MODEL        1
REMARK 921   NORMALIZED FREE ENERGY PREDICTED BY IDOCK:   -6.67 KCAL/MOL
REMARK 922        TOTAL FREE ENERGY PREDICTED BY IDOCK:  -10.33 KCAL/MOL
REMARK 923 INTER-LIGAND FREE ENERGY PREDICTED BY IDOCK:   -9.41 KCAL/MOL
REMARK 924 INTRA-LIGAND FREE ENERGY PREDICTED BY IDOCK:   -0.92 KCAL/MOL
REMARK 927      BINDING AFFINITY PREDICTED BY RF-SCORE:    0.00 PKD
ROOT
HETATM    1  C   UNL     1     -13.210   8.898  72.424  1.00  0.00    -0.430 C  
HETATM    2  O   UNL     1     -12.540   9.397  71.276  1.00  0.00    -0.316 OA 
ENDROOT
BRANCH   2   3
HETATM    3  C   UNL     1     -12.550  10.754  71.093  1.00  0.00    -0.428 A  
HETATM    4  C   UNL     1     -11.811  11.499  70.163  1.00  0.00    -0.356 A  
HETATM    5  C   UNL     1     -11.936  12.894  70.154  1.00  0.00    -0.373 A  
HETATM    6  C   UNL     1     -13.354  11.426  72.026  1.00  0.00    -0.388 A  
HETATM    7  C   UNL     1     -13.439  12.819  72.038  1.00  0.00    -0.540 A  
HETATM    8  C   UNL     1     -12.696  13.557  71.121  1.00  0.00    -0.425 A  
BRANCH   4   9
HETATM    9  O   UNL     1     -10.981  10.860  69.277  1.00  0.00    -0.212 OA 
HETATM   10  C   UNL     1     -11.367  10.970  67.908  1.00  0.00    -0.311 C  
ENDBRANCH   4   9
BRANCH   8  11
HETATM   11  C   UNL     1     -12.699  15.058  71.168  1.00  0.00    -0.431 C  
BRANCH  11  12
HETATM   12  C   UNL     1     -11.438  15.669  70.582  1.00  0.00    -0.375 C  
BRANCH  12  13
HETATM   13  O   UNL     1     -11.694  16.168  69.269  1.00  0.00    -0.313 OA 
BRANCH  13  14
HETATM   14  C   UNL     1     -10.531  16.519  68.492  1.00  0.00    -0.302 C  
HETATM   15  C   UNL     1     -10.126  17.978  68.751  1.00  0.00    -0.388 C  
HETATM   16  C   UNL     1      -9.067  18.486  67.784  1.00  0.00    -0.292 C  
HETATM   17  C   UNL     1      -9.519  18.260  66.349  1.00  0.00    -0.290 C  
HETATM   18  C   UNL     1      -9.637  16.762  66.077  1.00  0.00    -0.265 C  
HETATM   19  C   UNL     1     -10.692  16.114  66.986  1.00  0.00    -0.254 C  
BRANCH  19  20
HETATM   20  N   UNL     1     -10.880  14.647  66.883  1.00  0.00    -0.299 NA 
HETATM   21  C   UNL     1     -10.077  13.952  65.874  1.00  0.00    -0.317 C  
HETATM   22  C   UNL     1     -10.939  13.900  64.624  1.00  0.00    -0.406 C  
HETATM   23  C   UNL     1     -12.369  13.896  65.150  1.00  0.00    -0.449 C  
HETATM   24  C   UNL     1     -12.259  14.214  66.645  1.00  0.00    -0.418 C  
HETATM   25  O   UNL     1     -12.963  12.621  64.930  1.00  0.00    -0.830 OA 
HETATM   26  H   UNL     1     -13.854  12.619  65.259  1.00  0.00     0.000 HD 
ENDBRANCH  19  20
ENDBRANCH  13  14
ENDBRANCH  12  13
ENDBRANCH  11  12
ENDBRANCH   8  11
ENDBRANCH   2   3
TORSDOF 7
ENDMDL
MODEL        2
REMARK 921   NORMALIZED FREE ENERGY PREDICTED BY IDOCK:   -6.52 KCAL/MOL
REMARK 922        TOTAL FREE ENERGY PREDICTED BY IDOCK:  -10.12 KCAL/MOL
REMARK 923 INTER-LIGAND FREE ENERGY PREDICTED BY IDOCK:   -9.16 KCAL/MOL
REMARK 924 INTRA-LIGAND FREE ENERGY PREDICTED BY IDOCK:   -0.95 KCAL/MOL
REMARK 927      BINDING AFFINITY PREDICTED BY RF-SCORE:    0.00 PKD
ROOT
HETATM    1  C   UNL     1     -13.130  16.091  73.568  1.00  0.00    -0.559 C  
HETATM    2  O   UNL     1     -13.858  15.560  72.471  1.00  0.00    -0.517 OA 
ENDROOT
BRANCH   2   3
HETATM    3  C   UNL     1     -13.328  14.460  71.848  1.00  0.00    -0.374 A  
HETATM    4  C   UNL     1     -12.588  14.424  70.658  1.00  0.00    -0.357 A  
HETATM    5  C   UNL     1     -12.158  13.186  70.162  1.00  0.00    -0.392 A  
HETATM    6  C   UNL     1     -13.665  13.257  72.484  1.00  0.00    -0.613 A  
HETATM    7  C   UNL     1     -13.268  12.025  71.959  1.00  0.00    -0.481 A  
HETATM    8  C   UNL     1     -12.543  11.991  70.772  1.00  0.00    -0.312 A  
BRANCH   4   9
HETATM    9  O   UNL     1     -12.294  15.589  69.996  1.00  0.00    -0.369 OA 
HETATM   10  C   UNL     1     -10.902  15.890  69.902  1.00  0.00    -0.333 C  
ENDBRANCH   4   9
BRANCH   8  11
HETATM   11  C   UNL     1     -12.181  10.678  70.137  1.00  0.00    -0.398 C  
BRANCH  11  12
HETATM   12  C   UNL     1     -10.742  10.633  69.654  1.00  0.00    -0.244 C  
BRANCH  12  13
HETATM   13  O   UNL     1     -10.700  10.554  68.229  1.00  0.00    -0.197 OA 
BRANCH  13  14
HETATM   14  C   UNL     1      -9.786  11.456  67.575  1.00  0.00    -0.178 C  
HETATM   15  C   UNL     1      -8.544  11.698  68.448  1.00  0.00    -0.156 C  
HETATM   16  C   UNL     1      -7.662  12.826  67.936  1.00  0.00    -0.143 C  
HETATM   17  C   UNL     1      -8.487  14.089  67.745  1.00  0.00    -0.184 C  
HETATM   18  C   UNL     1      -9.534  13.861  66.657  1.00  0.00    -0.296 C  
HETATM   19  C   UNL     1     -10.511  12.743  67.052  1.00  0.00    -0.237 C  
BRANCH  19  20
HETATM   20  N   UNL     1     -11.552  12.363  66.068  1.00  0.00    -0.383 NA 
HETATM   21  C   UNL     1     -11.114  11.553  64.929  1.00  0.00    -0.215 C  
HETATM   22  C   UNL     1     -10.784  12.541  63.823  1.00  0.00    -0.483 C  
HETATM   23  C   UNL     1     -11.692  13.734  64.098  1.00  0.00    -0.364 C  
HETATM   24  C   UNL     1     -12.294  13.482  65.484  1.00  0.00    -0.481 C  
HETATM   25  O   UNL     1     -12.702  13.814  63.098  1.00  0.00    -0.900 OA 
HETATM   26  H   UNL     1     -13.268  14.558  63.270  1.00  0.00     0.000 HD 
ENDBRANCH  19  20
ENDBRANCH  13  14
ENDBRANCH  12  13
ENDBRANCH  11  12
ENDBRANCH   8  11
ENDBRANCH   2   3
TORSDOF 7
ENDMDL
MODEL        3
REMARK 921   NORMALIZED FREE ENERGY PREDICTED BY IDOCK:   -6.51 KCAL/MOL
REMARK 922        TOTAL FREE ENERGY PREDICTED BY IDOCK:  -10.09 KCAL/MOL
REMARK 923 INTER-LIGAND FREE ENERGY PREDICTED BY IDOCK:   -9.36 KCAL/MOL
REMARK 924 INTRA-LIGAND FREE ENERGY PREDICTED BY IDOCK:   -0.73 KCAL/MOL
REMARK 927      BINDING AFFINITY PREDICTED BY RF-SCORE:    0.00 PKD
ROOT
HETATM    1  C   UNL     1     -12.899  16.167  73.670  1.00  0.00    -0.558 C  
HETATM    2  O   UNL     1     -13.726  15.628  72.649  1.00  0.00    -0.525 OA 
ENDROOT
BRANCH   2   3
HETATM    3  C   UNL     1     -13.195  14.619  71.888  1.00  0.00    -0.349 A  
HETATM    4  C   UNL     1     -12.530  14.733  70.659  1.00  0.00    -0.345 A  
HETATM    5  C   UNL     1     -12.085  13.571  70.016  1.00  0.00    -0.411 A  
HETATM    6  C   UNL     1     -13.447  13.345  72.417  1.00  0.00    -0.685 A  
HETATM    7  C   UNL     1     -13.038  12.190  71.748  1.00  0.00    -0.457 A  
HETATM    8  C   UNL     1     -12.387  12.305  70.522  1.00  0.00    -0.349 A  
BRANCH   4   9
HETATM    9  O   UNL     1     -12.321  15.970  70.104  1.00  0.00    -0.256 OA 
HETATM   10  C   UNL     1     -10.956  16.276  69.819  1.00  0.00    -0.354 C  
ENDBRANCH   4   9
BRANCH   8  11
HETATM   11  C   UNL     1     -12.017  11.079  69.737  1.00  0.00    -0.428 C  
BRANCH  11  12
HETATM   12  C   UNL     1     -10.520  10.827  69.709  1.00  0.00    -0.083 C  
BRANCH  12  13
HETATM   13  O   UNL     1      -9.931  11.468  68.577  1.00  0.00    -0.196 OA 
BRANCH  13  14
HETATM   14  C   UNL     1     -10.181  10.847  67.301  1.00  0.00    -0.205 C  
HETATM   15  C   UNL     1      -9.539   9.451  67.242  1.00  0.00    -0.194 C  
HETATM   16  C   UNL     1      -9.550   8.846  65.846  1.00  0.00    -0.293 C  
HETATM   17  C   UNL     1      -8.922   9.812  64.853  1.00  0.00    -0.257 C  
HETATM   18  C   UNL     1      -9.772  11.076  64.757  1.00  0.00    -0.311 C  
HETATM   19  C   UNL     1      -9.839  11.804  66.108  1.00  0.00    -0.229 C  
BRANCH  19  20
HETATM   20  N   UNL     1     -10.680  13.022  66.192  1.00  0.00    -0.271 NA 
HETATM   21  C   UNL     1     -12.124  12.814  66.324  1.00  0.00    -0.332 C  
HETATM   22  C   UNL     1     -12.676  12.832  64.907  1.00  0.00    -0.479 C  
HETATM   23  C   UNL     1     -11.714  13.731  64.139  1.00  0.00    -0.364 C  
HETATM   24  C   UNL     1     -10.525  13.961  65.079  1.00  0.00    -0.410 C  
HETATM   25  O   UNL     1     -12.358  14.955  63.804  1.00  0.00    -1.022 OA 
HETATM   26  H   UNL     1     -11.758  15.515  63.325  1.00  0.00     0.000 HD 
ENDBRANCH  19  20
ENDBRANCH  13  14
ENDBRANCH  12  13
ENDBRANCH  11  12
ENDBRANCH   8  11
ENDBRANCH   2   3
TORSDOF 7
ENDMDL
MODEL        4
REMARK 921   NORMALIZED FREE ENERGY PREDICTED BY IDOCK:   -6.27 KCAL/MOL
REMARK 922        TOTAL FREE ENERGY PREDICTED BY IDOCK:   -9.75 KCAL/MOL
REMARK 923 INTER-LIGAND FREE ENERGY PREDICTED BY IDOCK:   -9.15 KCAL/MOL
REMARK 924 INTRA-LIGAND FREE ENERGY PREDICTED BY IDOCK:   -0.60 KCAL/MOL
REMARK 927      BINDING AFFINITY PREDICTED BY RF-SCORE:    0.00 PKD
ROOT
HETATM    1  C   UNL     1     -13.783   8.641  71.944  1.00  0.00    -0.421 C  
HETATM    2  O   UNL     1     -12.556   9.114  71.409  1.00  0.00    -0.312 OA 
ENDROOT
BRANCH   2   3
HETATM    3  C   UNL     1     -12.480  10.451  71.116  1.00  0.00    -0.404 A  
HETATM    4  C   UNL     1     -11.677  11.072  70.150  1.00  0.00    -0.356 A  
HETATM    5  C   UNL     1     -11.718  12.467  70.024  1.00  0.00    -0.307 A  
HETATM    6  C   UNL     1     -13.264  11.242  71.969  1.00  0.00    -0.437 A  
HETATM    7  C   UNL     1     -13.266  12.634  71.865  1.00  0.00    -0.504 A  
HETATM    8  C   UNL     1     -12.459  13.249  70.912  1.00  0.00    -0.424 A  
BRANCH   4   9
HETATM    9  O   UNL     1     -10.866  10.316  69.342  1.00  0.00    -0.214 OA 
HETATM   10  C   UNL     1     -11.129  10.439  67.945  1.00  0.00    -0.299 C  
ENDBRANCH   4   9
BRANCH   8  11
HETATM   11  C   UNL     1     -12.373  14.747  70.838  1.00  0.00    -0.388 C  
BRANCH  11  12
HETATM   12  C   UNL     1     -11.061  15.234  70.249  1.00  0.00    -0.293 C  
BRANCH  12  13
HETATM   13  O   UNL     1     -11.257  16.466  69.554  1.00  0.00    -0.308 OA 
BRANCH  13  14
HETATM   14  C   UNL     1     -10.866  16.474  68.167  1.00  0.00    -0.345 C  
HETATM   15  C   UNL     1     -11.277  15.163  67.479  1.00  0.00    -0.331 C  
HETATM   16  C   UNL     1     -10.679  15.001  66.090  1.00  0.00    -0.328 C  
HETATM   17  C   UNL     1      -9.168  15.173  66.149  1.00  0.00    -0.318 C  
HETATM   18  C   UNL     1      -8.829  16.598  66.578  1.00  0.00    -0.314 C  
HETATM   19  C   UNL     1      -9.368  16.898  67.985  1.00  0.00    -0.238 C  
BRANCH  19  20
HETATM   20  N   UNL     1      -9.170  18.266  68.520  1.00  0.00    -0.317 NA 
HETATM   21  C   UNL     1     -10.262  19.219  68.305  1.00  0.00    -0.418 C  
HETATM   22  C   UNL     1      -9.928  19.945  67.012  1.00  0.00    -0.559 C  
HETATM   23  C   UNL     1      -8.406  19.913  66.943  1.00  0.00    -0.321 C  
HETATM   24  C   UNL     1      -7.963  18.948  68.048  1.00  0.00    -0.286 C  
HETATM   25  O   UNL     1      -7.884  21.221  67.152  1.00  0.00    -0.713 OA 
HETATM   26  H   UNL     1      -6.935  21.200  67.109  1.00  0.00     0.000 HD 
ENDBRANCH  19  20
ENDBRANCH  13  14
ENDBRANCH  12  13
ENDBRANCH  11  12
ENDBRANCH   8  11
ENDBRANCH   2   3
TORSDOF 7
ENDMDL
MODEL        5
REMARK 921   NORMALIZED FREE ENERGY PREDICTED BY IDOCK:   -6.25 KCAL/MOL
REMARK 922        TOTAL FREE ENERGY PREDICTED BY IDOCK:   -9.73 KCAL/MOL
REMARK 923 INTER-LIGAND FREE ENERGY PREDICTED BY IDOCK:   -9.16 KCAL/MOL
REMARK 924 INTRA-LIGAND FREE ENERGY PREDICTED BY IDOCK:   -0.57 KCAL/MOL
REMARK 927      BINDING AFFINITY PREDICTED BY RF-SCORE:    0.00 PKD
ROOT
HETATM    1  C   UNL     1     -12.008   6.837  70.669  1.00  0.00    -0.362 C  
HETATM    2  O   UNL     1     -11.341   7.856  71.398  1.00  0.00    -0.244 OA 
ENDROOT
BRANCH   2   3
HETATM    3  C   UNL     1     -11.660   9.152  71.088  1.00  0.00    -0.317 A  
HETATM    4  C   UNL     1     -10.968  10.023  70.235  1.00  0.00    -0.316 A  
HETATM    5  C   UNL     1     -11.440  11.332  70.072  1.00  0.00    -0.359 A  
HETATM    6  C   UNL     1     -12.773   9.625  71.798  1.00  0.00    -0.510 A  
HETATM    7  C   UNL     1     -13.210  10.944  71.662  1.00  0.00    -0.471 A  
HETATM    8  C   UNL     1     -12.516  11.811  70.823  1.00  0.00    -0.405 A  
BRANCH   4   9
HETATM    9  O   UNL     1      -9.848   9.591  69.573  1.00  0.00    -0.173 OA 
HETATM   10  C   UNL     1     -10.099   8.959  68.318  1.00  0.00    -0.187 C  
ENDBRANCH   4   9
BRANCH   8  11
HETATM   11  C   UNL     1     -12.909  13.258  70.726  1.00  0.00    -0.194 C  
BRANCH  11  12
HETATM   12  C   UNL     1     -11.862  14.108  70.030  1.00  0.00    -0.323 C  
BRANCH  12  13
HETATM   13  O   UNL     1     -12.153  14.208  68.635  1.00  0.00    -0.343 OA 
BRANCH  13  14
HETATM   14  C   UNL     1     -11.105  14.757  67.811  1.00  0.00    -0.299 C  
HETATM   15  C   UNL     1     -10.717  16.164  68.292  1.00  0.00    -0.307 C  
HETATM   16  C   UNL     1      -9.800  16.896  67.324  1.00  0.00    -0.265 C  
HETATM   17  C   UNL     1     -10.415  16.911  65.932  1.00  0.00    -0.294 C  
HETATM   18  C   UNL     1     -10.517  15.484  65.400  1.00  0.00    -0.429 C  
HETATM   19  C   UNL     1     -11.433  14.625  66.284  1.00  0.00    -0.351 C  
BRANCH  19  20
HETATM   20  N   UNL     1     -11.586  13.194  65.930  1.00  0.00    -0.338 NA 
HETATM   21  C   UNL     1     -10.414  12.533  65.352  1.00  0.00    -0.282 C  
HETATM   22  C   UNL     1     -10.566  12.665  63.846  1.00  0.00    -0.460 C  
HETATM   23  C   UNL     1     -12.072  12.727  63.622  1.00  0.00    -0.543 C  
HETATM   24  C   UNL     1     -12.689  12.896  65.014  1.00  0.00    -0.404 C  
HETATM   25  O   UNL     1     -12.518  11.529  62.996  1.00  0.00    -0.982 OA 
HETATM   26  H   UNL     1     -13.457  11.568  62.856  1.00  0.00     0.000 HD 
ENDBRANCH  19  20
ENDBRANCH  13  14
ENDBRANCH  12  13
ENDBRANCH  11  12
ENDBRANCH   8  11
ENDBRANCH   2   3
TORSDOF 7
ENDMDL
MODEL        6
REMARK 921   NORMALIZED FREE ENERGY PREDICTED BY IDOCK:   -6.25 KCAL/MOL
REMARK 922        TOTAL FREE ENERGY PREDICTED BY IDOCK:   -9.73 KCAL/MOL
REMARK 923 INTER-LIGAND FREE ENERGY PREDICTED BY IDOCK:   -8.85 KCAL/MOL
REMARK 924 INTRA-LIGAND FREE ENERGY PREDICTED BY IDOCK:   -0.88 KCAL/MOL
REMARK 927      BINDING AFFINITY PREDICTED BY RF-SCORE:    0.00 PKD
ROOT
HETATM    1  C   UNL     1      -8.284   8.694  62.987  1.00  0.00    -0.179 C  
HETATM    2  O   UNL     1      -8.730   8.958  64.309  1.00  0.00    -0.165 OA 
ENDROOT
BRANCH   2   3
HETATM    3  C   UNL     1      -9.497  10.078  64.493  1.00  0.00    -0.296 A  
HETATM    4  C   UNL     1     -10.261  10.417  65.619  1.00  0.00    -0.238 A  
HETATM    5  C   UNL     1     -11.009  11.602  65.602  1.00  0.00    -0.322 A  
HETATM    6  C   UNL     1      -9.542  10.901  63.359  1.00  0.00    -0.364 A  
HETATM    7  C   UNL     1     -10.324  12.057  63.335  1.00  0.00    -0.468 A  
HETATM    8  C   UNL     1     -11.090  12.387  64.449  1.00  0.00    -0.381 A  
BRANCH   4   9
HETATM    9  O   UNL     1     -10.268   9.596  66.717  1.00  0.00    -0.227 OA 
HETATM   10  C   UNL     1     -10.583  10.244  67.949  1.00  0.00    -0.239 C  
ENDBRANCH   4   9
BRANCH   8  11
HETATM   11  C   UNL     1     -12.010  13.575  64.419  1.00  0.00    -0.466 C  
BRANCH  11  12
HETATM   12  C   UNL     1     -12.337  14.103  65.805  1.00  0.00    -0.461 C  
BRANCH  12  13
HETATM   13  O   UNL     1     -11.323  15.010  66.240  1.00  0.00    -0.341 OA 
BRANCH  13  14
HETATM   14  C   UNL     1     -11.008  14.973  67.646  1.00  0.00    -0.305 C  
HETATM   15  C   UNL     1     -11.892  13.948  68.374  1.00  0.00    -0.409 C  
HETATM   16  C   UNL     1     -11.788  14.035  69.889  1.00  0.00    -0.393 C  
HETATM   17  C   UNL     1     -12.058  15.460  70.349  1.00  0.00    -0.408 C  
HETATM   18  C   UNL     1     -10.974  16.389  69.810  1.00  0.00    -0.341 C  
HETATM   19  C   UNL     1     -10.972  16.408  68.274  1.00  0.00    -0.355 C  
BRANCH  19  20
HETATM   20  N   UNL     1      -9.934  17.221  67.598  1.00  0.00    -0.286 NA 
HETATM   21  C   UNL     1      -9.056  18.014  68.462  1.00  0.00    -0.284 C  
HETATM   22  C   UNL     1      -9.706  19.384  68.565  1.00  0.00    -0.497 C  
HETATM   23  C   UNL     1     -10.469  19.540  67.256  1.00  0.00    -0.470 C  
HETATM   24  C   UNL     1     -10.436  18.159  66.592  1.00  0.00    -0.339 C  
HETATM   25  O   UNL     1      -9.838  20.524  66.442  1.00  0.00    -0.612 OA 
HETATM   26  H   UNL     1     -10.313  20.621  65.626  1.00  0.00     0.000 HD 
ENDBRANCH  19  20
ENDBRANCH  13  14
ENDBRANCH  12  13
ENDBRANCH  11  12
ENDBRANCH   8  11
ENDBRANCH   2   3
TORSDOF 7
ENDMDL
MODEL        7
REMARK 921   NORMALIZED FREE ENERGY PREDICTED BY IDOCK:   -6.23 KCAL/MOL
REMARK 922        TOTAL FREE ENERGY PREDICTED BY IDOCK:   -9.70 KCAL/MOL
REMARK 923 INTER-LIGAND FREE ENERGY PREDICTED BY IDOCK:   -9.19 KCAL/MOL
REMARK 924 INTRA-LIGAND FREE ENERGY PREDICTED BY IDOCK:   -0.51 KCAL/MOL
REMARK 927      BINDING AFFINITY PREDICTED BY RF-SCORE:    0.00 PKD
ROOT
HETATM    1  C   UNL     1     -10.643  19.588  66.067  1.00  0.00    -0.491 C  
HETATM    2  O   UNL     1      -9.522  18.717  66.052  1.00  0.00    -0.486 OA 
ENDROOT
BRANCH   2   3
HETATM    3  C   UNL     1      -9.754  17.402  66.360  1.00  0.00    -0.290 A  
HETATM    4  C   UNL     1      -9.311  16.695  67.487  1.00  0.00    -0.219 A  
HETATM    5  C   UNL     1      -9.628  15.336  67.606  1.00  0.00    -0.206 A  
HETATM    6  C   UNL     1     -10.454  16.721  65.354  1.00  0.00    -0.212 A  
HETATM    7  C   UNL     1     -10.728  15.356  65.461  1.00  0.00    -0.397 A  
HETATM    8  C   UNL     1     -10.279  14.654  66.575  1.00  0.00    -0.282 A  
BRANCH   4   9
HETATM    9  O   UNL     1      -8.580  17.336  68.455  1.00  0.00    -0.256 OA 
HETATM   10  C   UNL     1      -7.171  17.123  68.382  1.00  0.00    -0.209 C  
ENDBRANCH   4   9
BRANCH   8  11
HETATM   11  C   UNL     1     -10.480  13.168  66.674  1.00  0.00    -0.280 C  
BRANCH  11  12
HETATM   12  C   UNL     1     -11.813  12.793  67.296  1.00  0.00    -0.350 C  
BRANCH  12  13
HETATM   13  O   UNL     1     -12.047  13.571  68.471  1.00  0.00    -0.359 OA 
BRANCH  13  14
HETATM   14  C   UNL     1     -11.854  12.889  69.726  1.00  0.00    -0.310 C  
HETATM   15  C   UNL     1     -11.520  11.407  69.492  1.00  0.00    -0.381 C  
HETATM   16  C   UNL     1     -11.550  10.578  70.767  1.00  0.00    -0.432 C  
HETATM   17  C   UNL     1     -12.881  10.763  71.479  1.00  0.00    -0.567 C  
HETATM   18  C   UNL     1     -13.025  12.214  71.931  1.00  0.00    -0.419 C  
HETATM   19  C   UNL     1     -13.022  13.173  70.731  1.00  0.00    -0.001 C  
BRANCH  19  20
HETATM   20  N   UNL     1     -13.095  14.626  71.012  1.00  0.00    -0.355 NA 
HETATM   21  C   UNL     1     -11.822  15.313  71.245  1.00  0.00    -0.361 C  
HETATM   22  C   UNL     1     -11.608  15.286  72.750  1.00  0.00    -0.439 C  
HETATM   23  C   UNL     1     -13.016  15.255  73.331  1.00  0.00    -0.531 C  
HETATM   24  C   UNL     1     -13.948  14.998  72.142  1.00  0.00    -0.507 C  
HETATM   25  O   UNL     1     -13.306  16.498  73.962  1.00  0.00    -0.847 OA 
HETATM   26  H   UNL     1     -14.184  16.479  74.324  1.00  0.00     0.000 HD 
ENDBRANCH  19  20
ENDBRANCH  13  14
ENDBRANCH  12  13
ENDBRANCH  11  12
ENDBRANCH   8  11
ENDBRANCH   2   3
TORSDOF 7
ENDMDL
MODEL        8
REMARK 921   NORMALIZED FREE ENERGY PREDICTED BY IDOCK:   -6.18 KCAL/MOL
REMARK 922        TOTAL FREE ENERGY PREDICTED BY IDOCK:   -9.63 KCAL/MOL
REMARK 923 INTER-LIGAND FREE ENERGY PREDICTED BY IDOCK:   -8.90 KCAL/MOL
REMARK 924 INTRA-LIGAND FREE ENERGY PREDICTED BY IDOCK:   -0.73 KCAL/MOL
REMARK 927      BINDING AFFINITY PREDICTED BY RF-SCORE:    0.00 PKD
ROOT
HETATM    1  C   UNL     1     -12.475  15.535  74.310  1.00  0.00    -0.643 C  
HETATM    2  O   UNL     1     -13.094  14.763  73.292  1.00  0.00    -0.512 OA 
ENDROOT
BRANCH   2   3
HETATM    3  C   UNL     1     -12.513  14.791  72.051  1.00  0.00    -0.336 A  
HETATM    4  C   UNL     1     -12.420  13.744  71.125  1.00  0.00    -0.370 A  
HETATM    5  C   UNL     1     -11.753  13.964  69.913  1.00  0.00    -0.358 A  
HETATM    6  C   UNL     1     -11.889  16.015  71.768  1.00  0.00    -0.599 A  
HETATM    7  C   UNL     1     -11.189  16.212  70.577  1.00  0.00    -0.381 A  
HETATM    8  C   UNL     1     -11.089  15.167  69.663  1.00  0.00    -0.283 A  
BRANCH   4   9
HETATM    9  O   UNL     1     -12.981  12.524  71.409  1.00  0.00    -0.358 OA 
HETATM   10  C   UNL     1     -12.467  11.435  70.643  1.00  0.00    -0.327 C  
ENDBRANCH   4   9
BRANCH   8  11
HETATM   11  C   UNL     1     -10.267  15.320  68.414  1.00  0.00    -0.223 C  
BRANCH  11  12
HETATM   12  C   UNL     1      -8.812  14.939  68.616  1.00  0.00    -0.179 C  
BRANCH  12  13
HETATM   13  O   UNL     1      -8.430  13.930  67.680  1.00  0.00    -0.166 OA 
BRANCH  13  14
HETATM   14  C   UNL     1      -9.166  12.692  67.754  1.00  0.00    -0.195 C  
HETATM   15  C   UNL     1      -8.335  11.608  68.459  1.00  0.00    -0.140 C  
HETATM   16  C   UNL     1      -8.946  10.220  68.350  1.00  0.00    -0.132 C  
HETATM   17  C   UNL     1      -9.217   9.882  66.892  1.00  0.00    -0.171 C  
HETATM   18  C   UNL     1     -10.267  10.836  66.330  1.00  0.00    -0.301 C  
HETATM   19  C   UNL     1      -9.773  12.290  66.367  1.00  0.00    -0.234 C  
BRANCH  19  20
HETATM   20  N   UNL     1     -10.707  13.345  65.908  1.00  0.00    -0.277 NA 
HETATM   21  C   UNL     1     -12.136  13.075  66.076  1.00  0.00    -0.432 C  
HETATM   22  C   UNL     1     -12.595  12.449  64.768  1.00  0.00    -0.419 C  
HETATM   23  C   UNL     1     -11.656  13.033  63.720  1.00  0.00    -0.457 C  
HETATM   24  C   UNL     1     -10.551  13.746  64.508  1.00  0.00    -0.386 C  
HETATM   25  O   UNL     1     -12.367  13.940  62.884  1.00  0.00    -1.023 OA 
HETATM   26  H   UNL     1     -11.781  14.304  62.231  1.00  0.00     0.000 HD 
ENDBRANCH  19  20
ENDBRANCH  13  14
ENDBRANCH  12  13
ENDBRANCH  11  12
ENDBRANCH   8  11
ENDBRANCH   2   3
TORSDOF 7
ENDMDL
MODEL        9
REMARK 921   NORMALIZED FREE ENERGY PREDICTED BY IDOCK:   -6.15 KCAL/MOL
REMARK 922        TOTAL FREE ENERGY PREDICTED BY IDOCK:   -9.59 KCAL/MOL
REMARK 923 INTER-LIGAND FREE ENERGY PREDICTED BY IDOCK:   -8.82 KCAL/MOL
REMARK 924 INTRA-LIGAND FREE ENERGY PREDICTED BY IDOCK:   -0.77 KCAL/MOL
REMARK 927      BINDING AFFINITY PREDICTED BY RF-SCORE:    0.00 PKD
ROOT
HETATM    1  C   UNL     1      -6.402  17.642  66.211  1.00  0.00    -0.244 C  
HETATM    2  O   UNL     1      -7.738  17.804  65.759  1.00  0.00    -0.541 OA 
ENDROOT
BRANCH   2   3
HETATM    3  C   UNL     1      -8.726  17.257  66.535  1.00  0.00    -0.262 A  
HETATM    4  C   UNL     1      -9.511  17.901  67.503  1.00  0.00    -0.258 A  
HETATM    5  C   UNL     1     -10.455  17.154  68.220  1.00  0.00    -0.373 A  
HETATM    6  C   UNL     1      -8.867  15.874  66.347  1.00  0.00    -0.368 A  
HETATM    7  C   UNL     1      -9.780  15.131  67.096  1.00  0.00    -0.230 A  
HETATM    8  C   UNL     1     -10.550  15.770  68.063  1.00  0.00    -0.279 A  
BRANCH   4   9
HETATM    9  O   UNL     1      -9.350  19.243  67.736  1.00  0.00    -0.299 OA 
HETATM   10  C   UNL     1     -10.371  20.074  67.184  1.00  0.00    -0.416 C  
ENDBRANCH   4   9
BRANCH   8  11
HETATM   11  C   UNL     1     -11.475  14.981  68.946  1.00  0.00    -0.333 C  
BRANCH  11  12
HETATM   12  C   UNL     1     -11.972  13.705  68.290  1.00  0.00    -0.350 C  
BRANCH  12  13
HETATM   13  O   UNL     1     -11.936  12.623  69.222  1.00  0.00    -0.292 OA 
BRANCH  13  14
HETATM   14  C   UNL     1     -10.970  11.589  68.949  1.00  0.00    -0.229 C  
HETATM   15  C   UNL     1     -10.590  11.581  67.461  1.00  0.00    -0.243 C  
HETATM   16  C   UNL     1      -9.771  10.363  67.058  1.00  0.00    -0.216 C  
HETATM   17  C   UNL     1     -10.489   9.090  67.477  1.00  0.00    -0.338 C  
HETATM   18  C   UNL     1     -10.589   9.031  68.999  1.00  0.00    -0.209 C  
HETATM   19  C   UNL     1     -11.409  10.208  69.547  1.00  0.00    -0.206 C  
BRANCH  19  20
HETATM   20  N   UNL     1     -11.545  10.324  71.019  1.00  0.00    -0.359 NA 
HETATM   21  C   UNL     1     -10.960   9.246  71.819  1.00  0.00    -0.313 C  
HETATM   22  C   UNL     1     -12.080   8.244  72.044  1.00  0.00    -0.402 C  
HETATM   23  C   UNL     1     -13.351   9.084  72.010  1.00  0.00    -0.438 C  
HETATM   24  C   UNL     1     -12.919  10.465  71.506  1.00  0.00    -0.458 C  
HETATM   25  O   UNL     1     -13.917   9.159  73.314  1.00  0.00    -1.164 OA 
HETATM   26  H   UNL     1     -14.710   9.683  73.293  1.00  0.00     0.000 HD 
ENDBRANCH  19  20
ENDBRANCH  13  14
ENDBRANCH  12  13
ENDBRANCH  11  12
ENDBRANCH   8  11
ENDBRANCH   2   3
TORSDOF 7
ENDMDL
MODEL       10
REMARK 921   NORMALIZED FREE ENERGY PREDICTED BY IDOCK:   -6.12 KCAL/MOL
REMARK 922        TOTAL FREE ENERGY PREDICTED BY IDOCK:   -9.54 KCAL/MOL
REMARK 923 INTER-LIGAND FREE ENERGY PREDICTED BY IDOCK:   -8.73 KCAL/MOL
REMARK 924 INTRA-LIGAND FREE ENERGY PREDICTED BY IDOCK:   -0.81 KCAL/MOL
REMARK 927      BINDING AFFINITY PREDICTED BY RF-SCORE:    0.00 PKD
ROOT
HETATM    1  C   UNL     1      -9.845   6.965  74.076  1.00  0.00    -0.320 C  
HETATM    2  O   UNL     1     -11.065   7.204  73.391  1.00  0.00    -0.289 OA 
ENDROOT
BRANCH   2   3
HETATM    3  C   UNL     1     -11.058   8.187  72.436  1.00  0.00    -0.369 A  
HETATM    4  C   UNL     1     -12.149   8.929  71.963  1.00  0.00    -0.371 A  
HETATM    5  C   UNL     1     -11.941   9.875  70.950  1.00  0.00    -0.434 A  
HETATM    6  C   UNL     1      -9.798   8.368  71.848  1.00  0.00    -0.328 A  
HETATM    7  C   UNL     1      -9.608   9.282  70.810  1.00  0.00    -0.341 A  
HETATM    8  C   UNL     1     -10.695  10.011  70.335  1.00  0.00    -0.369 A  
BRANCH   4   9
HETATM    9  O   UNL     1     -13.398   8.726  72.492  1.00  0.00    -0.399 OA 
HETATM   10  C   UNL     1     -14.348   8.161  71.588  1.00  0.00    -0.469 C  
ENDBRANCH   4   9
BRANCH   8  11
HETATM   11  C   UNL     1     -10.540  10.934  69.160  1.00  0.00    -0.253 C  
BRANCH  11  12
HETATM   12  C   UNL     1     -11.867  11.468  68.650  1.00  0.00    -0.318 C  
BRANCH  12  13
HETATM   13  O   UNL     1     -11.793  12.883  68.465  1.00  0.00    -0.308 OA 
BRANCH  13  14
HETATM   14  C   UNL     1     -11.601  13.664  69.661  1.00  0.00    -0.278 C  
HETATM   15  C   UNL     1     -12.669  13.320  70.711  1.00  0.00    -0.284 C  
HETATM   16  C   UNL     1     -12.678  14.278  71.893  1.00  0.00    -0.419 C  
HETATM   17  C   UNL     1     -12.794  15.713  71.400  1.00  0.00    -0.546 C  
HETATM   18  C   UNL     1     -11.556  16.079  70.585  1.00  0.00    -0.409 C  
HETATM   19  C   UNL     1     -11.427  15.188  69.341  1.00  0.00    -0.306 C  
BRANCH  19  20
HETATM   20  N   UNL     1     -10.238  15.382  68.477  1.00  0.00    -0.215 NA 
HETATM   21  C   UNL     1      -9.272  16.395  68.909  1.00  0.00    -0.259 C  
HETATM   22  C   UNL     1      -9.681  17.681  68.209  1.00  0.00    -0.315 C  
HETATM   23  C   UNL     1     -10.353  17.214  66.924  1.00  0.00    -0.308 C  
HETATM   24  C   UNL     1     -10.533  15.700  67.078  1.00  0.00    -0.303 C  
HETATM   25  O   UNL     1      -9.531  17.530  65.805  1.00  0.00    -0.519 OA 
HETATM   26  H   UNL     1      -9.951  17.239  65.004  1.00  0.00     0.000 HD 
ENDBRANCH  19  20
ENDBRANCH  13  14
ENDBRANCH  12  13
ENDBRANCH  11  12
ENDBRANCH   8  11
ENDBRANCH   2   3
TORSDOF 7
ENDMDL
MODEL       11
REMARK 921   NORMALIZED FREE ENERGY PREDICTED BY IDOCK:   -6.11 KCAL/MOL
REMARK 922        TOTAL FREE ENERGY PREDICTED BY IDOCK:   -9.54 KCAL/MOL
REMARK 923 INTER-LIGAND FREE ENERGY PREDICTED BY IDOCK:   -8.89 KCAL/MOL
REMARK 924 INTRA-LIGAND FREE ENERGY PREDICTED BY IDOCK:   -0.65 KCAL/MOL
REMARK 927      BINDING AFFINITY PREDICTED BY RF-SCORE:    0.00 PKD
ROOT
HETATM    1  C   UNL     1     -10.684   7.215  69.290  1.00  0.00    -0.215 C  
HETATM    2  O   UNL     1     -11.040   7.655  70.593  1.00  0.00    -0.250 OA 
ENDROOT
BRANCH   2   3
HETATM    3  C   UNL     1     -11.427   8.963  70.722  1.00  0.00    -0.275 A  
HETATM    4  C   UNL     1     -12.430   9.482  71.553  1.00  0.00    -0.376 A  
HETATM    5  C   UNL     1     -12.700  10.856  71.518  1.00  0.00    -0.533 A  
HETATM    6  C   UNL     1     -10.758   9.821  69.836  1.00  0.00    -0.303 A  
HETATM    7  C   UNL     1     -11.064  11.182  69.777  1.00  0.00    -0.271 A  
HETATM    8  C   UNL     1     -12.067  11.692  70.596  1.00  0.00    -0.432 A  
BRANCH   4   9
HETATM    9  O   UNL     1     -13.129   8.648  72.388  1.00  0.00    -0.373 OA 
HETATM   10  C   UNL     1     -14.324   8.103  71.828  1.00  0.00    -0.484 C  
ENDBRANCH   4   9
BRANCH   8  11
HETATM   11  C   UNL     1     -12.480  13.133  70.489  1.00  0.00    -0.322 C  
BRANCH  11  12
HETATM   12  C   UNL     1     -11.524  13.960  69.647  1.00  0.00    -0.248 C  
BRANCH  12  13
HETATM   13  O   UNL     1     -12.148  14.340  68.420  1.00  0.00    -0.335 OA 
BRANCH  13  14
HETATM   14  C   UNL     1     -11.265  14.825  67.389  1.00  0.00    -0.339 C  
HETATM   15  C   UNL     1     -10.712  16.211  67.756  1.00  0.00    -0.325 C  
HETATM   16  C   UNL     1      -9.977  16.885  66.607  1.00  0.00    -0.302 C  
HETATM   17  C   UNL     1     -10.864  16.926  65.372  1.00  0.00    -0.113 C  
HETATM   18  C   UNL     1     -11.151  15.505  64.897  1.00  0.00    -0.428 C  
HETATM   19  C   UNL     1     -11.909  14.703  65.965  1.00  0.00    -0.276 C  
BRANCH  19  20
HETATM   20  N   UNL     1     -12.208  13.281  65.674  1.00  0.00    -0.439 NA 
HETATM   21  C   UNL     1     -11.210  12.300  66.104  1.00  0.00    -0.328 C  
HETATM   22  C   UNL     1     -10.293  12.092  64.909  1.00  0.00    -0.321 C  
HETATM   23  C   UNL     1     -11.179  12.371  63.701  1.00  0.00    -0.474 C  
HETATM   24  C   UNL     1     -12.468  12.977  64.266  1.00  0.00    -0.315 C  
HETATM   25  O   UNL     1     -11.437  11.159  63.000  1.00  0.00    -0.812 OA 
HETATM   26  H   UNL     1     -11.989  11.333  62.246  1.00  0.00     0.000 HD 
ENDBRANCH  19  20
ENDBRANCH  13  14
ENDBRANCH  12  13
ENDBRANCH  11  12
ENDBRANCH   8  11
ENDBRANCH   2   3
TORSDOF 7
ENDMDL
MODEL       12
REMARK 921   NORMALIZED FREE ENERGY PREDICTED BY IDOCK:   -6.09 KCAL/MOL
REMARK 922        TOTAL FREE ENERGY PREDICTED BY IDOCK:   -9.51 KCAL/MOL
REMARK 923 INTER-LIGAND FREE ENERGY PREDICTED BY IDOCK:   -8.84 KCAL/MOL
REMARK 924 INTRA-LIGAND FREE ENERGY PREDICTED BY IDOCK:   -0.68 KCAL/MOL
REMARK 927      BINDING AFFINITY PREDICTED BY RF-SCORE:    0.00 PKD
ROOT
HETATM    1  C   UNL     1     -10.999   5.196  73.455  1.00  0.00    -0.310 C  
HETATM    2  O   UNL     1     -11.969   5.618  72.509  1.00  0.00    -0.258 OA 
ENDROOT
BRANCH   2   3
HETATM    3  C   UNL     1     -11.591   6.597  71.627  1.00  0.00    -0.304 A  
HETATM    4  C   UNL     1     -10.938   6.437  70.397  1.00  0.00    -0.308 A  
HETATM    5  C   UNL     1     -10.605   7.574  69.650  1.00  0.00    -0.243 A  
HETATM    6  C   UNL     1     -11.847   7.891  72.105  1.00  0.00    -0.384 A  
HETATM    7  C   UNL     1     -11.473   9.019  71.374  1.00  0.00    -0.400 A  
HETATM    8  C   UNL     1     -10.815   8.858  70.158  1.00  0.00    -0.251 A  
BRANCH   4   9
HETATM    9  O   UNL     1     -10.634   5.180  69.940  1.00  0.00    -0.280 OA 
HETATM   10  C   UNL     1      -9.919   5.147  68.705  1.00  0.00    -0.166 C  
ENDBRANCH   4   9
BRANCH   8  11
HETATM   11  C   UNL     1     -10.321  10.053  69.393  1.00  0.00    -0.245 C  
BRANCH  11  12
HETATM   12  C   UNL     1     -11.183  10.379  68.187  1.00  0.00    -0.268 C  
BRANCH  12  13
HETATM   13  O   UNL     1     -12.170  11.351  68.533  1.00  0.00    -0.557 OA 
BRANCH  13  14
HETATM   14  C   UNL     1     -11.669  12.646  68.920  1.00  0.00    -0.325 C  
HETATM   15  C   UNL     1     -12.083  12.979  70.362  1.00  0.00    -0.391 C  
HETATM   16  C   UNL     1     -11.804  14.424  70.748  1.00  0.00    -0.349 C  
HETATM   17  C   UNL     1     -12.437  15.365  69.734  1.00  0.00    -0.219 C  
HETATM   18  C   UNL     1     -11.780  15.171  68.370  1.00  0.00    -0.338 C  
HETATM   19  C   UNL     1     -11.995  13.743  67.849  1.00  0.00    -0.356 C  
BRANCH  19  20
HETATM   20  N   UNL     1     -11.363  13.380  66.558  1.00  0.00    -0.311 NA 
HETATM   21  C   UNL     1     -10.488  14.385  65.951  1.00  0.00    -0.308 C  
HETATM   22  C   UNL     1     -11.370  15.187  65.009  1.00  0.00    -0.381 C  
HETATM   23  C   UNL     1     -12.456  14.206  64.582  1.00  0.00    -0.350 C  
HETATM   24  C   UNL     1     -12.296  12.989  65.499  1.00  0.00    -0.472 C  
HETATM   25  O   UNL     1     -12.280  13.855  63.213  1.00  0.00    -1.061 OA 
HETATM   26  H   UNL     1     -12.957  13.243  62.948  1.00  0.00     0.000 HD 
ENDBRANCH  19  20
ENDBRANCH  13  14
ENDBRANCH  12  13
ENDBRANCH  11  12
ENDBRANCH   8  11
ENDBRANCH   2   3
TORSDOF 7
ENDMDL
MODEL       13
REMARK 921   NORMALIZED FREE ENERGY PREDICTED BY IDOCK:   -6.08 KCAL/MOL
REMARK 922        TOTAL FREE ENERGY PREDICTED BY IDOCK:   -9.49 KCAL/MOL
REMARK 923 INTER-LIGAND FREE ENERGY PREDICTED BY IDOCK:   -9.00 KCAL/MOL
REMARK 924 INTRA-LIGAND FREE ENERGY PREDICTED BY IDOCK:   -0.49 KCAL/MOL
REMARK 927      BINDING AFFINITY PREDICTED BY RF-SCORE:    0.00 PKD
ROOT
HETATM    1  C   UNL     1     -12.935  16.070  73.662  1.00  0.00    -0.562 C  
HETATM    2  O   UNL     1     -13.743  15.522  72.631  1.00  0.00    -0.508 OA 
ENDROOT
BRANCH   2   3
HETATM    3  C   UNL     1     -13.196  14.510  71.886  1.00  0.00    -0.359 A  
HETATM    4  C   UNL     1     -12.475  14.622  70.688  1.00  0.00    -0.344 A  
HETATM    5  C   UNL     1     -12.023  13.458  70.055  1.00  0.00    -0.407 A  
HETATM    6  C   UNL     1     -13.493  13.237  72.392  1.00  0.00    -0.670 A  
HETATM    7  C   UNL     1     -13.074  12.080  71.731  1.00  0.00    -0.460 A  
HETATM    8  C   UNL     1     -12.369  12.193  70.536  1.00  0.00    -0.358 A  
BRANCH   4   9
HETATM    9  O   UNL     1     -12.221  15.860  70.153  1.00  0.00    -0.342 OA 
HETATM   10  C   UNL     1     -11.556  15.842  68.890  1.00  0.00    -0.394 C  
ENDBRANCH   4   9
BRANCH   8  11
HETATM   11  C   UNL     1     -11.984  10.967  69.758  1.00  0.00    -0.428 C  
BRANCH  11  12
HETATM   12  C   UNL     1     -11.087  11.278  68.573  1.00  0.00    -0.235 C  
BRANCH  12  13
HETATM   13  O   UNL     1     -11.844  11.263  67.362  1.00  0.00    -0.590 OA 
BRANCH  13  14
HETATM   14  C   UNL     1     -11.303  12.037  66.273  1.00  0.00    -0.357 C  
HETATM   15  C   UNL     1     -12.375  12.968  65.683  1.00  0.00    -0.504 C  
HETATM   16  C   UNL     1     -11.947  13.625  64.380  1.00  0.00    -0.476 C  
HETATM   17  C   UNL     1     -11.491  12.568  63.387  1.00  0.00    -0.523 C  
HETATM   18  C   UNL     1     -10.246  11.864  63.919  1.00  0.00    -0.420 C  
HETATM   19  C   UNL     1     -10.540  11.139  65.241  1.00  0.00    -0.238 C  
BRANCH  19  20
HETATM   20  N   UNL     1      -9.411  10.456  65.916  1.00  0.00    -0.173 NA 
HETATM   21  C   UNL     1      -8.067  10.951  65.609  1.00  0.00    -0.060 C  
HETATM   22  C   UNL     1      -7.566  10.099  64.454  1.00  0.00    -0.130 C  
HETATM   23  C   UNL     1      -8.282   8.765  64.630  1.00  0.00    -0.165 C  
HETATM   24  C   UNL     1      -9.346   9.008  65.706  1.00  0.00    -0.236 C  
HETATM   25  O   UNL     1      -7.352   7.765  65.033  1.00  0.00    -0.066 OA 
HETATM   26  H   UNL     1      -7.799   6.934  65.142  1.00  0.00     0.000 HD 
ENDBRANCH  19  20
ENDBRANCH  13  14
ENDBRANCH  12  13
ENDBRANCH  11  12
ENDBRANCH   8  11
ENDBRANCH   2   3
TORSDOF 7
ENDMDL
MODEL       14
REMARK 921   NORMALIZED FREE ENERGY PREDICTED BY IDOCK:   -6.08 KCAL/MOL
REMARK 922        TOTAL FREE ENERGY PREDICTED BY IDOCK:   -9.49 KCAL/MOL
REMARK 923 INTER-LIGAND FREE ENERGY PREDICTED BY IDOCK:   -8.91 KCAL/MOL
REMARK 924 INTRA-LIGAND FREE ENERGY PREDICTED BY IDOCK:   -0.57 KCAL/MOL
REMARK 927      BINDING AFFINITY PREDICTED BY RF-SCORE:    0.00 PKD
ROOT
HETATM    1  C   UNL     1     -10.642  19.306  65.857  1.00  0.00    -0.435 C  
HETATM    2  O   UNL     1      -9.818  18.155  65.752  1.00  0.00    -0.527 OA 
ENDROOT
BRANCH   2   3
HETATM    3  C   UNL     1     -10.372  16.958  66.125  1.00  0.00    -0.320 A  
HETATM    4  C   UNL     1     -10.466  16.423  67.417  1.00  0.00    -0.309 A  
HETATM    5  C   UNL     1     -11.045  15.158  67.590  1.00  0.00    -0.318 A  
HETATM    6  C   UNL     1     -10.807  16.194  65.032  1.00  0.00    -0.380 A  
HETATM    7  C   UNL     1     -11.343  14.917  65.209  1.00  0.00    -0.358 A  
HETATM    8  C   UNL     1     -11.426  14.383  66.492  1.00  0.00    -0.369 A  
BRANCH   4   9
HETATM    9  O   UNL     1      -9.998  17.136  68.491  1.00  0.00    -0.274 OA 
HETATM   10  C   UNL     1      -8.614  16.942  68.782  1.00  0.00    -0.246 C  
ENDBRANCH   4   9
BRANCH   8  11
HETATM   11  C   UNL     1     -11.913  12.978  66.704  1.00  0.00    -0.453 C  
BRANCH  11  12
HETATM   12  C   UNL     1     -11.653  12.470  68.111  1.00  0.00    -0.340 C  
BRANCH  12  13
HETATM   13  O   UNL     1     -11.936  11.072  68.192  1.00  0.00    -0.610 OA 
BRANCH  13  14
HETATM   14  C   UNL     1     -10.791  10.202  68.289  1.00  0.00    -0.252 C  
HETATM   15  C   UNL     1     -10.360   9.716  66.897  1.00  0.00    -0.307 C  
HETATM   16  C   UNL     1      -9.321   8.605  66.945  1.00  0.00    -0.216 C  
HETATM   17  C   UNL     1      -9.815   7.468  67.826  1.00  0.00    -0.191 C  
HETATM   18  C   UNL     1      -9.959   7.957  69.265  1.00  0.00    -0.190 C  
HETATM   19  C   UNL     1     -10.997   9.084  69.367  1.00  0.00    -0.065 C  
BRANCH  19  20
HETATM   20  N   UNL     1     -11.207   9.707  70.696  1.00  0.00    -0.294 NA 
HETATM   21  C   UNL     1     -10.551   9.060  71.834  1.00  0.00    -0.317 C  
HETATM   22  C   UNL     1     -11.574   8.090  72.404  1.00  0.00    -0.450 C  
HETATM   23  C   UNL     1     -12.920   8.717  72.063  1.00  0.00    -0.390 C  
HETATM   24  C   UNL     1     -12.608   9.862  71.094  1.00  0.00    -0.367 C  
HETATM   25  O   UNL     1     -13.546   9.195  73.250  1.00  0.00    -0.935 OA 
HETATM   26  H   UNL     1     -14.385   9.586  73.037  1.00  0.00     0.000 HD 
ENDBRANCH  19  20
ENDBRANCH  13  14
ENDBRANCH  12  13
ENDBRANCH  11  12
ENDBRANCH   8  11
ENDBRANCH   2   3
TORSDOF 7
ENDMDL
MODEL       15
REMARK 921   NORMALIZED FREE ENERGY PREDICTED BY IDOCK:   -6.08 KCAL/MOL
REMARK 922        TOTAL FREE ENERGY PREDICTED BY IDOCK:   -9.48 KCAL/MOL
REMARK 923 INTER-LIGAND FREE ENERGY PREDICTED BY IDOCK:   -8.81 KCAL/MOL
REMARK 924 INTRA-LIGAND FREE ENERGY PREDICTED BY IDOCK:   -0.67 KCAL/MOL
REMARK 927      BINDING AFFINITY PREDICTED BY RF-SCORE:    0.00 PKD
ROOT
HETATM    1  C   UNL     1      -6.138  20.096  68.276  1.00  0.00    -0.264 C  
HETATM    2  O   UNL     1      -7.219  19.749  69.128  1.00  0.00    -0.342 OA 
ENDROOT
BRANCH   2   3
HETATM    3  C   UNL     1      -7.943  18.636  68.791  1.00  0.00    -0.286 A  
HETATM    4  C   UNL     1      -9.312  18.561  68.497  1.00  0.00    -0.338 A  
HETATM    5  C   UNL     1      -9.878  17.313  68.204  1.00  0.00    -0.290 A  
HETATM    6  C   UNL     1      -7.186  17.457  68.839  1.00  0.00    -0.250 A  
HETATM    7  C   UNL     1      -7.767  16.213  68.588  1.00  0.00    -0.186 A  
HETATM    8  C   UNL     1      -9.129  16.139  68.306  1.00  0.00    -0.190 A  
BRANCH   4   9
HETATM    9  O   UNL     1     -10.078  19.699  68.497  1.00  0.00    -0.419 OA 
HETATM   10  C   UNL     1     -10.092  20.412  67.260  1.00  0.00    -0.363 C  
ENDBRANCH   4   9
BRANCH   8  11
HETATM   11  C   UNL     1      -9.799  14.807  68.122  1.00  0.00    -0.221 C  
BRANCH  11  12
HETATM   12  C   UNL     1     -11.065  14.895  67.288  1.00  0.00    -0.336 C  
BRANCH  12  13
HETATM   13  O   UNL     1     -12.143  14.238  67.956  1.00  0.00    -0.338 OA 
BRANCH  13  14
HETATM   14  C   UNL     1     -11.782  13.441  69.101  1.00  0.00    -0.326 C  
HETATM   15  C   UNL     1     -11.405  12.014  68.673  1.00  0.00    -0.329 C  
HETATM   16  C   UNL     1     -11.257  11.056  69.846  1.00  0.00    -0.327 C  
HETATM   17  C   UNL     1     -12.510  11.089  70.708  1.00  0.00    -0.491 C  
HETATM   18  C   UNL     1     -12.672  12.474  71.328  1.00  0.00    -0.350 C  
HETATM   19  C   UNL     1     -12.846  13.550  70.247  1.00  0.00     0.059 C  
BRANCH  19  20
HETATM   20  N   UNL     1     -12.956  14.960  70.691  1.00  0.00    -0.358 NA 
HETATM   21  C   UNL     1     -11.735  15.581  71.209  1.00  0.00    -0.401 C  
HETATM   22  C   UNL     1     -11.767  15.365  72.713  1.00  0.00    -0.535 C  
HETATM   23  C   UNL     1     -13.250  15.299  73.054  1.00  0.00    -0.510 C  
HETATM   24  C   UNL     1     -13.979  15.212  71.708  1.00  0.00    -0.529 C  
HETATM   25  O   UNL     1     -13.633  16.462  73.779  1.00  0.00    -0.892 OA 
HETATM   26  H   UNL     1     -14.559  16.421  73.991  1.00  0.00     0.000 HD 
ENDBRANCH  19  20
ENDBRANCH  13  14
ENDBRANCH  12  13
ENDBRANCH  11  12
ENDBRANCH   8  11
ENDBRANCH   2   3
TORSDOF 7
ENDMDL
MODEL       16
REMARK 921   NORMALIZED FREE ENERGY PREDICTED BY IDOCK:   -6.07 KCAL/MOL
REMARK 922        TOTAL FREE ENERGY PREDICTED BY IDOCK:   -9.48 KCAL/MOL
REMARK 923 INTER-LIGAND FREE ENERGY PREDICTED BY IDOCK:   -8.62 KCAL/MOL
REMARK 924 INTRA-LIGAND FREE ENERGY PREDICTED BY IDOCK:   -0.86 KCAL/MOL
REMARK 927      BINDING AFFINITY PREDICTED BY RF-SCORE:    0.00 PKD
ROOT
HETATM    1  C   UNL     1     -12.899  15.933  73.815  1.00  0.00    -0.584 C  
HETATM    2  O   UNL     1     -13.645  14.965  73.093  1.00  0.00    -0.520 OA 
ENDROOT
BRANCH   2   3
HETATM    3  C   UNL     1     -13.145  14.574  71.878  1.00  0.00    -0.350 A  
HETATM    4  C   UNL     1     -12.948  13.266  71.414  1.00  0.00    -0.311 A  
HETATM    5  C   UNL     1     -12.390  13.072  70.144  1.00  0.00    -0.270 A  
HETATM    6  C   UNL     1     -12.729  15.654  71.086  1.00  0.00    -0.525 A  
HETATM    7  C   UNL     1     -12.134  15.450  69.840  1.00  0.00    -0.382 A  
HETATM    8  C   UNL     1     -11.929  14.150  69.385  1.00  0.00    -0.382 A  
BRANCH   4   9
HETATM    9  O   UNL     1     -13.303  12.199  72.199  1.00  0.00    -0.522 OA 
HETATM   10  C   UNL     1     -12.953  10.921  71.667  1.00  0.00    -0.464 C  
ENDBRANCH   4   9
BRANCH   8  11
HETATM   11  C   UNL     1     -11.210  13.898  68.090  1.00  0.00    -0.293 C  
BRANCH  11  12
HETATM   12  C   UNL     1     -12.144  13.864  66.894  1.00  0.00    -0.430 C  
BRANCH  12  13
HETATM   13  O   UNL     1     -12.130  12.568  66.292  1.00  0.00    -0.574 OA 
BRANCH  13  14
HETATM   14  C   UNL     1     -10.946  12.236  65.541  1.00  0.00    -0.298 C  
HETATM   15  C   UNL     1     -11.154  12.523  64.045  1.00  0.00    -0.449 C  
HETATM   16  C   UNL     1     -10.044  11.966  63.168  1.00  0.00    -0.341 C  
HETATM   17  C   UNL     1      -9.851  10.483  63.450  1.00  0.00    -0.323 C  
HETATM   18  C   UNL     1      -9.373  10.290  64.887  1.00  0.00    -0.306 C  
HETATM   19  C   UNL     1     -10.415  10.804  65.892  1.00  0.00    -0.204 C  
BRANCH  19  20
HETATM   20  N   UNL     1     -10.070  10.741  67.332  1.00  0.00    -0.187 NA 
HETATM   21  C   UNL     1      -8.746  10.213  67.666  1.00  0.00    -0.121 C  
HETATM   22  C   UNL     1      -8.942   8.724  67.903  1.00  0.00    -0.142 C  
HETATM   23  C   UNL     1     -10.380   8.607  68.396  1.00  0.00    -0.201 C  
HETATM   24  C   UNL     1     -11.009   9.984  68.162  1.00  0.00    -0.235 C  
HETATM   25  O   UNL     1     -10.392   8.255  69.775  1.00  0.00    -0.207 OA 
HETATM   26  H   UNL     1     -11.288   8.182  70.082  1.00  0.00     0.000 HD 
ENDBRANCH  19  20
ENDBRANCH  13  14
ENDBRANCH  12  13
ENDBRANCH  11  12
ENDBRANCH   8  11
ENDBRANCH   2   3
TORSDOF 7
ENDMDL
MODEL       17
REMARK 921   NORMALIZED FREE ENERGY PREDICTED BY IDOCK:   -6.04 KCAL/MOL
REMARK 922        TOTAL FREE ENERGY PREDICTED BY IDOCK:   -9.43 KCAL/MOL
REMARK 923 INTER-LIGAND FREE ENERGY PREDICTED BY IDOCK:   -8.62 KCAL/MOL
REMARK 924 INTRA-LIGAND FREE ENERGY PREDICTED BY IDOCK:   -0.81 KCAL/MOL
REMARK 927      BINDING AFFINITY PREDICTED BY RF-SCORE:    0.00 PKD
ROOT
HETATM    1  C   UNL     1     -11.405   7.622  72.704  1.00  0.00    -0.370 C  
HETATM    2  O   UNL     1     -12.252   7.974  71.620  1.00  0.00    -0.286 OA 
ENDROOT
BRANCH   2   3
HETATM    3  C   UNL     1     -12.242   9.286  71.226  1.00  0.00    -0.334 A  
HETATM    4  C   UNL     1     -11.419   9.886  70.262  1.00  0.00    -0.281 A  
HETATM    5  C   UNL     1     -11.541  11.261  70.023  1.00  0.00    -0.404 A  
HETATM    6  C   UNL     1     -13.128  10.085  71.965  1.00  0.00    -0.541 A  
HETATM    7  C   UNL     1     -13.212  11.462  71.749  1.00  0.00    -0.472 A  
HETATM    8  C   UNL     1     -12.386  12.056  70.800  1.00  0.00    -0.403 A  
BRANCH   4   9
HETATM    9  O   UNL     1     -10.512   9.127  69.567  1.00  0.00    -0.209 OA 
HETATM   10  C   UNL     1      -9.168   9.219  70.038  1.00  0.00    -0.210 C  
ENDBRANCH   4   9
BRANCH   8  11
HETATM   11  C   UNL     1     -12.390  13.547  70.610  1.00  0.00    -0.432 C  
BRANCH  11  12
HETATM   12  C   UNL     1     -11.429  14.007  69.529  1.00  0.00    -0.275 C  
BRANCH  12  13
HETATM   13  O   UNL     1     -11.921  15.192  68.901  1.00  0.00    -0.308 OA 
BRANCH  13  14
HETATM   14  C   UNL     1     -11.871  15.208  67.460  1.00  0.00    -0.094 C  
HETATM   15  C   UNL     1     -12.112  13.800  66.893  1.00  0.00    -0.454 C  
HETATM   16  C   UNL     1     -11.827  13.697  65.403  1.00  0.00    -0.370 C  
HETATM   17  C   UNL     1     -10.426  14.208  65.103  1.00  0.00    -0.422 C  
HETATM   18  C   UNL     1     -10.338  15.695  65.436  1.00  0.00    -0.421 C  
HETATM   19  C   UNL     1     -10.595  15.946  66.929  1.00  0.00    -0.309 C  
BRANCH  19  20
HETATM   20  N   UNL     1     -10.603  17.352  67.398  1.00  0.00    -0.337 NA 
HETATM   21  C   UNL     1     -10.205  18.371  66.423  1.00  0.00    -0.410 C  
HETATM   22  C   UNL     1      -8.712  18.574  66.625  1.00  0.00    -0.294 C  
HETATM   23  C   UNL     1      -8.481  18.242  68.094  1.00  0.00    -0.278 C  
HETATM   24  C   UNL     1      -9.789  17.615  68.586  1.00  0.00    -0.347 C  
HETATM   25  O   UNL     1      -8.168  19.429  68.815  1.00  0.00    -0.360 OA 
HETATM   26  H   UNL     1      -8.024  19.222  69.731  1.00  0.00     0.000 HD 
ENDBRANCH  19  20
ENDBRANCH  13  14
ENDBRANCH  12  13
ENDBRANCH  11  12
ENDBRANCH   8  11
ENDBRANCH   2   3
TORSDOF 7
ENDMDL
MODEL       18
REMARK 921   NORMALIZED FREE ENERGY PREDICTED BY IDOCK:   -6.02 KCAL/MOL
REMARK 922        TOTAL FREE ENERGY PREDICTED BY IDOCK:   -9.41 KCAL/MOL
REMARK 923 INTER-LIGAND FREE ENERGY PREDICTED BY IDOCK:   -8.68 KCAL/MOL
REMARK 924 INTRA-LIGAND FREE ENERGY PREDICTED BY IDOCK:   -0.73 KCAL/MOL
REMARK 927      BINDING AFFINITY PREDICTED BY RF-SCORE:    0.00 PKD
ROOT
HETATM    1  C   UNL     1     -12.591  12.123  63.378  1.00  0.00    -0.463 C  
HETATM    2  O   UNL     1     -11.223  12.499  63.325  1.00  0.00    -0.452 OA 
ENDROOT
BRANCH   2   3
HETATM    3  C   UNL     1     -10.628  12.845  64.510  1.00  0.00    -0.382 A  
HETATM    4  C   UNL     1     -10.007  11.996  65.437  1.00  0.00    -0.253 A  
HETATM    5  C   UNL     1      -9.482  12.543  66.615  1.00  0.00    -0.242 A  
HETATM    6  C   UNL     1     -10.758  14.209  64.808  1.00  0.00    -0.436 A  
HETATM    7  C   UNL     1     -10.270  14.738  66.004  1.00  0.00    -0.320 A  
HETATM    8  C   UNL     1      -9.664  13.892  66.928  1.00  0.00    -0.268 A  
BRANCH   4   9
HETATM    9  O   UNL     1      -9.918  10.651  65.183  1.00  0.00    -0.261 OA 
HETATM   10  C   UNL     1     -10.053   9.814  66.332  1.00  0.00    -0.243 C  
ENDBRANCH   4   9
BRANCH   8  11
HETATM   11  C   UNL     1      -9.211  14.416  68.261  1.00  0.00    -0.201 C  
BRANCH  11  12
HETATM   12  C   UNL     1     -10.365  14.721  69.198  1.00  0.00    -0.233 C  
BRANCH  12  13
HETATM   13  O   UNL     1     -11.420  13.777  69.008  1.00  0.00    -0.265 OA 
BRANCH  13  14
HETATM   14  C   UNL     1     -12.514  13.858  69.944  1.00  0.00    -0.229 C  
HETATM   15  C   UNL     1     -12.622  15.275  70.530  1.00  0.00    -0.450 C  
HETATM   16  C   UNL     1     -13.588  15.366  71.702  1.00  0.00    -0.603 C  
HETATM   17  C   UNL     1     -13.228  14.331  72.757  1.00  0.00    -0.614 C  
HETATM   18  C   UNL     1     -13.411  12.928  72.184  1.00  0.00    -0.615 C  
HETATM   19  C   UNL     1     -12.477  12.690  70.988  1.00  0.00    -0.260 C  
BRANCH  19  20
HETATM   20  N   UNL     1     -12.579  11.390  70.284  1.00  0.00    -0.193 NA 
HETATM   21  C   UNL     1     -13.159  10.278  71.040  1.00  0.00    -0.373 C  
HETATM   22  C   UNL     1     -11.984   9.557  71.680  1.00  0.00    -0.474 C  
HETATM   23  C   UNL     1     -10.821   9.811  70.728  1.00  0.00    -0.333 C  
HETATM   24  C   UNL     1     -11.318  10.876  69.745  1.00  0.00    -0.301 C  
HETATM   25  O   UNL     1     -10.471   8.605  70.058  1.00  0.00    -0.212 OA 
HETATM   26  H   UNL     1      -9.746   8.764  69.465  1.00  0.00     0.000 HD 
ENDBRANCH  19  20
ENDBRANCH  13  14
ENDBRANCH  12  13
ENDBRANCH  11  12
ENDBRANCH   8  11
ENDBRANCH   2   3
TORSDOF 7
ENDMDL
MODEL       19
REMARK 921   NORMALIZED FREE ENERGY PREDICTED BY IDOCK:   -6.01 KCAL/MOL
REMARK 922        TOTAL FREE ENERGY PREDICTED BY IDOCK:   -9.39 KCAL/MOL
REMARK 923 INTER-LIGAND FREE ENERGY PREDICTED BY IDOCK:   -8.33 KCAL/MOL
REMARK 924 INTRA-LIGAND FREE ENERGY PREDICTED BY IDOCK:   -1.07 KCAL/MOL
REMARK 927      BINDING AFFINITY PREDICTED BY RF-SCORE:    0.00 PKD
ROOT
HETATM    1  C   UNL     1     -10.893  19.840  65.716  1.00  0.00    -0.275 C  
HETATM    2  O   UNL     1      -9.745  20.049  66.525  1.00  0.00    -0.392 OA 
ENDROOT
BRANCH   2   3
HETATM    3  C   UNL     1      -9.230  18.953  67.167  1.00  0.00    -0.290 A  
HETATM    4  C   UNL     1      -8.125  18.179  66.788  1.00  0.00    -0.246 A  
HETATM    5  C   UNL     1      -7.773  17.068  67.566  1.00  0.00    -0.187 A  
HETATM    6  C   UNL     1      -9.989  18.568  68.282  1.00  0.00    -0.409 A  
HETATM    7  C   UNL     1      -9.656  17.435  69.026  1.00  0.00    -0.162 A  
HETATM    8  C   UNL     1      -8.565  16.661  68.642  1.00  0.00    -0.253 A  
BRANCH   4   9
HETATM    9  O   UNL     1      -7.403  18.513  65.671  1.00  0.00    -0.499 OA 
HETATM   10  C   UNL     1      -6.142  19.127  65.933  1.00  0.00    -0.191 C  
ENDBRANCH   4   9
BRANCH   8  11
HETATM   11  C   UNL     1      -8.238  15.388  69.369  1.00  0.00    -0.250 C  
BRANCH  11  12
HETATM   12  C   UNL     1      -8.795  14.155  68.681  1.00  0.00    -0.132 C  
BRANCH  12  13
HETATM   13  O   UNL     1     -10.196  14.037  68.936  1.00  0.00    -0.223 OA 
BRANCH  13  14
HETATM   14  C   UNL     1     -10.852  12.905  68.330  1.00  0.00    -0.242 C  
HETATM   15  C   UNL     1     -10.257  11.589  68.853  1.00  0.00    -0.166 C  
HETATM   16  C   UNL     1     -10.727  10.368  68.076  1.00  0.00    -0.292 C  
HETATM   17  C   UNL     1     -10.472  10.566  66.589  1.00  0.00    -0.290 C  
HETATM   18  C   UNL     1     -11.315  11.730  66.073  1.00  0.00    -0.335 C  
HETATM   19  C   UNL     1     -10.933  13.044  66.771  1.00  0.00    -0.276 C  
BRANCH  19  20
HETATM   20  N   UNL     1     -11.707  14.258  66.419  1.00  0.00    -0.377 NA 
HETATM   21  C   UNL     1     -12.803  14.084  65.463  1.00  0.00    -0.419 C  
HETATM   22  C   UNL     1     -12.207  14.370  64.095  1.00  0.00    -0.393 C  
HETATM   23  C   UNL     1     -11.076  15.353  64.373  1.00  0.00    -0.132 C  
HETATM   24  C   UNL     1     -10.911  15.371  65.896  1.00  0.00    -0.293 C  
HETATM   25  O   UNL     1     -11.418  16.640  63.870  1.00  0.00    -1.604 OA 
HETATM   26  H   UNL     1     -10.713  17.252  64.044  1.00  0.00     0.000 HD 
ENDBRANCH  19  20
ENDBRANCH  13  14
ENDBRANCH  12  13
ENDBRANCH  11  12
ENDBRANCH   8  11
ENDBRANCH   2   3
TORSDOF 7
ENDMDL
MODEL       20
REMARK 921   NORMALIZED FREE ENERGY PREDICTED BY IDOCK:   -6.00 KCAL/MOL
REMARK 922        TOTAL FREE ENERGY PREDICTED BY IDOCK:   -9.38 KCAL/MOL
REMARK 923 INTER-LIGAND FREE ENERGY PREDICTED BY IDOCK:   -8.72 KCAL/MOL
REMARK 924 INTRA-LIGAND FREE ENERGY PREDICTED BY IDOCK:   -0.66 KCAL/MOL
REMARK 927      BINDING AFFINITY PREDICTED BY RF-SCORE:    0.00 PKD
ROOT
HETATM    1  C   UNL     1      -7.988   9.112  66.517  1.00  0.00    -0.100 C  
HETATM    2  O   UNL     1      -8.664   9.004  65.273  1.00  0.00    -0.173 OA 
ENDROOT
BRANCH   2   3
HETATM    3  C   UNL     1      -9.522  10.020  64.943  1.00  0.00    -0.293 A  
HETATM    4  C   UNL     1      -9.743  10.576  63.675  1.00  0.00    -0.318 A  
HETATM    5  C   UNL     1     -10.645  11.641  63.546  1.00  0.00    -0.496 A  
HETATM    6  C   UNL     1     -10.165  10.577  66.058  1.00  0.00    -0.310 A  
HETATM    7  C   UNL     1     -11.029  11.665  65.926  1.00  0.00    -0.334 A  
HETATM    8  C   UNL     1     -11.239  12.223  64.668  1.00  0.00    -0.363 A  
BRANCH   4   9
HETATM    9  O   UNL     1      -9.082  10.077  62.582  1.00  0.00    -0.244 OA 
HETATM   10  C   UNL     1      -7.744  10.547  62.424  1.00  0.00    -0.161 C  
ENDBRANCH   4   9
BRANCH   8  11
HETATM   11  C   UNL     1     -12.091  13.450  64.509  1.00  0.00    -0.457 C  
BRANCH  11  12
HETATM   12  C   UNL     1     -12.353  14.161  65.825  1.00  0.00    -0.461 C  
BRANCH  12  13
HETATM   13  O   UNL     1     -11.204  14.913  66.218  1.00  0.00    -0.340 OA 
BRANCH  13  14
HETATM   14  C   UNL     1     -10.931  14.952  67.633  1.00  0.00    -0.300 C  
HETATM   15  C   UNL     1     -11.795  13.924  68.380  1.00  0.00    -0.409 C  
HETATM   16  C   UNL     1     -11.742  14.083  69.892  1.00  0.00    -0.368 C  
HETATM   17  C   UNL     1     -12.083  15.514  70.279  1.00  0.00    -0.415 C  
HETATM   18  C   UNL     1     -11.021  16.463  69.729  1.00  0.00    -0.341 C  
HETATM   19  C   UNL     1     -10.973  16.414  68.195  1.00  0.00    -0.339 C  
BRANCH  19  20
HETATM   20  N   UNL     1      -9.947  17.238  67.513  1.00  0.00    -0.286 NA 
HETATM   21  C   UNL     1      -9.002  17.953  68.373  1.00  0.00    -0.282 C  
HETATM   22  C   UNL     1      -9.604  19.331  68.593  1.00  0.00    -0.479 C  
HETATM   23  C   UNL     1     -10.429  19.588  67.338  1.00  0.00    -0.471 C  
HETATM   24  C   UNL     1     -10.474  18.249  66.593  1.00  0.00    -0.360 C  
HETATM   25  O   UNL     1      -9.813  20.602  66.552  1.00  0.00    -0.619 OA 
HETATM   26  H   UNL     1     -10.328  20.761  65.769  1.00  0.00     0.000 HD 
ENDBRANCH  19  20
ENDBRANCH  13  14
ENDBRANCH  12  13
ENDBRANCH  11  12
ENDBRANCH   8  11
ENDBRANCH   2   3
TORSDOF 7
ENDMDL
MODEL       21
REMARK 921   NORMALIZED FREE ENERGY PREDICTED BY IDOCK:   -6.00 KCAL/MOL
REMARK 922        TOTAL FREE ENERGY PREDICTED BY IDOCK:   -9.38 KCAL/MOL
REMARK 923 INTER-LIGAND FREE ENERGY PREDICTED BY IDOCK:   -8.26 KCAL/MOL
REMARK 924 INTRA-LIGAND FREE ENERGY PREDICTED BY IDOCK:   -1.12 KCAL/MOL
REMARK 927      BINDING AFFINITY PREDICTED BY RF-SCORE:    0.00 PKD
ROOT
HETATM    1  C   UNL     1      -7.294  19.665  65.826  1.00  0.00    -0.304 C  
HETATM    2  O   UNL     1      -7.829  18.364  65.633  1.00  0.00    -0.505 OA 
ENDROOT
BRANCH   2   3
HETATM    3  C   UNL     1      -8.456  17.786  66.705  1.00  0.00    -0.258 A  
HETATM    4  C   UNL     1      -8.104  16.601  67.367  1.00  0.00    -0.167 A  
HETATM    5  C   UNL     1      -8.898  16.154  68.431  1.00  0.00    -0.188 A  
HETATM    6  C   UNL     1      -9.623  18.464  67.087  1.00  0.00    -0.299 A  
HETATM    7  C   UNL     1     -10.432  17.988  68.120  1.00  0.00    -0.373 A  
HETATM    8  C   UNL     1     -10.086  16.806  68.768  1.00  0.00    -0.286 A  
BRANCH   4   9
HETATM    9  O   UNL     1      -6.994  15.898  66.972  1.00  0.00    -0.205 OA 
HETATM   10  C   UNL     1      -5.806  16.190  67.707  1.00  0.00    -0.138 C  
ENDBRANCH   4   9
BRANCH   8  11
HETATM   11  C   UNL     1     -10.984  16.222  69.822  1.00  0.00    -0.354 C  
BRANCH  11  12
HETATM   12  C   UNL     1     -10.917  14.706  69.880  1.00  0.00    -0.160 C  
BRANCH  12  13
HETATM   13  O   UNL     1     -12.129  14.138  69.382  1.00  0.00    -0.316 OA 
BRANCH  13  14
HETATM   14  C   UNL     1     -11.995  12.886  68.680  1.00  0.00    -0.247 C  
HETATM   15  C   UNL     1     -11.314  11.835  69.570  1.00  0.00    -0.317 C  
HETATM   16  C   UNL     1     -10.917  10.576  68.813  1.00  0.00    -0.296 C  
HETATM   17  C   UNL     1     -10.073  10.940  67.601  1.00  0.00    -0.206 C  
HETATM   18  C   UNL     1     -10.907  11.761  66.621  1.00  0.00    -0.318 C  
HETATM   19  C   UNL     1     -11.370  13.081  67.256  1.00  0.00    -0.306 C  
BRANCH  19  20
HETATM   20  N   UNL     1     -12.242  13.964  66.446  1.00  0.00    -0.451 NA 
HETATM   21  C   UNL     1     -12.774  13.400  65.203  1.00  0.00    -0.399 C  
HETATM   22  C   UNL     1     -11.787  13.794  64.116  1.00  0.00    -0.439 C  
HETATM   23  C   UNL     1     -11.179  15.100  64.612  1.00  0.00    -0.343 C  
HETATM   24  C   UNL     1     -11.645  15.246  66.065  1.00  0.00     0.006 C  
HETATM   25  O   UNL     1     -11.634  16.183  63.808  1.00  0.00    -1.390 OA 
HETATM   26  H   UNL     1     -11.255  16.997  64.118  1.00  0.00     0.000 HD 
ENDBRANCH  19  20
ENDBRANCH  13  14
ENDBRANCH  12  13
ENDBRANCH  11  12
ENDBRANCH   8  11
ENDBRANCH   2   3
TORSDOF 7
ENDMDL
MODEL       22
REMARK 921   NORMALIZED FREE ENERGY PREDICTED BY IDOCK:   -5.99 KCAL/MOL
REMARK 922        TOTAL FREE ENERGY PREDICTED BY IDOCK:   -9.36 KCAL/MOL
REMARK 923 INTER-LIGAND FREE ENERGY PREDICTED BY IDOCK:   -8.58 KCAL/MOL
REMARK 924 INTRA-LIGAND FREE ENERGY PREDICTED BY IDOCK:   -0.79 KCAL/MOL
REMARK 927      BINDING AFFINITY PREDICTED BY RF-SCORE:    0.00 PKD
ROOT
HETATM    1  C   UNL     1     -12.188  15.431  64.019  1.00  0.00     0.051 C  
HETATM    2  O   UNL     1     -12.616  14.089  64.196  1.00  0.00    -0.680 OA 
ENDROOT
BRANCH   2   3
HETATM    3  C   UNL     1     -12.099  13.409  65.267  1.00  0.00    -0.413 A  
HETATM    4  C   UNL     1     -11.531  12.127  65.274  1.00  0.00    -0.336 A  
HETATM    5  C   UNL     1     -11.084  11.587  66.488  1.00  0.00    -0.341 A  
HETATM    6  C   UNL     1     -12.256  14.096  66.479  1.00  0.00    -0.463 A  
HETATM    7  C   UNL     1     -11.847  13.533  67.689  1.00  0.00    -0.399 A  
HETATM    8  C   UNL     1     -11.294  12.256  67.696  1.00  0.00    -0.374 A  
BRANCH   4   9
HETATM    9  O   UNL     1     -11.417  11.420  64.105  1.00  0.00    -0.288 OA 
HETATM   10  C   UNL     1     -10.103  11.390  63.547  1.00  0.00    -0.395 C  
ENDBRANCH   4   9
BRANCH   8  11
HETATM   11  C   UNL     1     -10.928  11.588  68.991  1.00  0.00    -0.285 C  
BRANCH  11  12
HETATM   12  C   UNL     1      -9.671  10.745  68.886  1.00  0.00    -0.198 C  
BRANCH  12  13
HETATM   13  O   UNL     1      -9.600   9.824  69.976  1.00  0.00    -0.224 OA 
BRANCH  13  14
HETATM   14  C   UNL     1      -9.600   8.427  69.621  1.00  0.00    -0.163 C  
HETATM   15  C   UNL     1      -9.069   8.230  68.192  1.00  0.00    -0.134 C  
HETATM   16  C   UNL     1      -9.276   6.818  67.666  1.00  0.00    -0.118 C  
HETATM   17  C   UNL     1     -10.738   6.421  67.798  1.00  0.00    -0.377 C  
HETATM   18  C   UNL     1     -11.126   6.369  69.273  1.00  0.00    -0.437 C  
HETATM   19  C   UNL     1     -10.976   7.746  69.936  1.00  0.00    -0.190 C  
BRANCH  19  20
HETATM   20  N   UNL     1     -11.259   7.844  71.387  1.00  0.00    -0.243 NA 
HETATM   21  C   UNL     1     -11.993   6.729  71.990  1.00  0.00    -0.317 C  
HETATM   22  C   UNL     1     -13.461   7.121  71.930  1.00  0.00    -0.276 C  
HETATM   23  C   UNL     1     -13.448   8.643  71.981  1.00  0.00    -0.403 C  
HETATM   24  C   UNL     1     -11.982   9.050  71.798  1.00  0.00    -0.368 C  
HETATM   25  O   UNL     1     -13.961   9.090  73.232  1.00  0.00    -1.205 OA 
HETATM   26  H   UNL     1     -13.952  10.040  73.264  1.00  0.00     0.000 HD 
ENDBRANCH  19  20
ENDBRANCH  13  14
ENDBRANCH  12  13
ENDBRANCH  11  12
ENDBRANCH   8  11
ENDBRANCH   2   3
TORSDOF 7
ENDMDL
MODEL       23
REMARK 921   NORMALIZED FREE ENERGY PREDICTED BY IDOCK:   -5.98 KCAL/MOL
REMARK 922        TOTAL FREE ENERGY PREDICTED BY IDOCK:   -9.35 KCAL/MOL
REMARK 923 INTER-LIGAND FREE ENERGY PREDICTED BY IDOCK:   -8.60 KCAL/MOL
REMARK 924 INTRA-LIGAND FREE ENERGY PREDICTED BY IDOCK:   -0.76 KCAL/MOL
REMARK 927      BINDING AFFINITY PREDICTED BY RF-SCORE:    0.00 PKD
ROOT
HETATM    1  C   UNL     1     -13.761  14.720  72.574  1.00  0.00    -0.468 C  
HETATM    2  O   UNL     1     -13.774  13.304  72.666  1.00  0.00    -0.674 OA 
ENDROOT
BRANCH   2   3
HETATM    3  C   UNL     1     -13.153  12.611  71.660  1.00  0.00    -0.323 A  
HETATM    4  C   UNL     1     -13.035  11.220  71.523  1.00  0.00    -0.415 A  
HETATM    5  C   UNL     1     -12.327  10.701  70.431  1.00  0.00    -0.428 A  
HETATM    6  C   UNL     1     -12.514  13.448  70.733  1.00  0.00    -0.418 A  
HETATM    7  C   UNL     1     -11.775  12.922  69.673  1.00  0.00    -0.367 A  
HETATM    8  C   UNL     1     -11.650  11.542  69.545  1.00  0.00    -0.400 A  
BRANCH   4   9
HETATM    9  O   UNL     1     -13.611  10.389  72.449  1.00  0.00    -0.235 OA 
HETATM   10  C   UNL     1     -13.252   9.013  72.325  1.00  0.00    -0.460 C  
ENDBRANCH   4   9
BRANCH   8  11
HETATM   11  C   UNL     1     -10.787  10.949  68.467  1.00  0.00    -0.262 C  
BRANCH  11  12
HETATM   12  C   UNL     1      -9.565  11.795  68.159  1.00  0.00    -0.193 C  
BRANCH  12  13
HETATM   13  O   UNL     1      -9.511  12.098  66.764  1.00  0.00    -0.200 OA 
BRANCH  13  14
HETATM   14  C   UNL     1     -10.702  12.686  66.203  1.00  0.00    -0.267 C  
HETATM   15  C   UNL     1     -11.350  11.733  65.186  1.00  0.00    -0.281 C  
HETATM   16  C   UNL     1     -12.460  12.386  64.376  1.00  0.00    -0.520 C  
HETATM   17  C   UNL     1     -11.951  13.664  63.727  1.00  0.00    -0.425 C  
HETATM   18  C   UNL     1     -11.581  14.678  64.807  1.00  0.00    -0.418 C  
HETATM   19  C   UNL     1     -10.450  14.149  65.701  1.00  0.00    -0.321 C  
BRANCH  19  20
HETATM   20  N   UNL     1     -10.018  14.997  66.837  1.00  0.00    -0.241 NA 
HETATM   21  C   UNL     1     -10.662  16.307  66.959  1.00  0.00    -0.233 C  
HETATM   22  C   UNL     1      -9.764  17.281  66.215  1.00  0.00    -0.282 C  
HETATM   23  C   UNL     1      -8.371  16.675  66.332  1.00  0.00    -0.318 C  
HETATM   24  C   UNL     1      -8.580  15.267  66.899  1.00  0.00    -0.257 C  
HETATM   25  O   UNL     1      -7.567  17.471  67.197  1.00  0.00    -0.189 OA 
HETATM   26  H   UNL     1      -6.699  17.093  67.270  1.00  0.00     0.000 HD 
ENDBRANCH  19  20
ENDBRANCH  13  14
ENDBRANCH  12  13
ENDBRANCH  11  12
ENDBRANCH   8  11
ENDBRANCH   2   3
TORSDOF 7
ENDMDL
MODEL       24
REMARK 921   NORMALIZED FREE ENERGY PREDICTED BY IDOCK:   -5.97 KCAL/MOL
REMARK 922        TOTAL FREE ENERGY PREDICTED BY IDOCK:   -9.33 KCAL/MOL
REMARK 923 INTER-LIGAND FREE ENERGY PREDICTED BY IDOCK:   -8.60 KCAL/MOL
REMARK 924 INTRA-LIGAND FREE ENERGY PREDICTED BY IDOCK:   -0.73 KCAL/MOL
REMARK 927      BINDING AFFINITY PREDICTED BY RF-SCORE:    0.00 PKD
ROOT
HETATM    1  C   UNL     1      -9.467  11.141  62.701  1.00  0.00    -0.276 C  
HETATM    2  O   UNL     1     -10.682  11.674  63.207  1.00  0.00    -0.373 OA 
ENDROOT
BRANCH   2   3
HETATM    3  C   UNL     1     -10.900  11.551  64.555  1.00  0.00    -0.327 A  
HETATM    4  C   UNL     1     -11.672  12.384  65.377  1.00  0.00    -0.402 A  
HETATM    5  C   UNL     1     -11.745  12.107  66.748  1.00  0.00    -0.377 A  
HETATM    6  C   UNL     1     -10.177  10.496  65.131  1.00  0.00    -0.358 A  
HETATM    7  C   UNL     1     -10.222  10.254  66.505  1.00  0.00    -0.289 A  
HETATM    8  C   UNL     1     -10.981  11.088  67.321  1.00  0.00    -0.356 A  
BRANCH   4   9
HETATM    9  O   UNL     1     -12.343  13.451  64.837  1.00  0.00    -0.390 OA 
HETATM   10  C   UNL     1     -11.611  14.677  64.825  1.00  0.00    -0.418 C  
ENDBRANCH   4   9
BRANCH   8  11
HETATM   11  C   UNL     1     -10.976  10.907  68.812  1.00  0.00    -0.285 C  
BRANCH  11  12
HETATM   12  C   UNL     1      -9.614  10.512  69.355  1.00  0.00    -0.148 C  
BRANCH  12  13
HETATM   13  O   UNL     1      -9.759   9.562  70.411  1.00  0.00    -0.242 OA 
BRANCH  13  14
HETATM   14  C   UNL     1      -9.755   8.175  70.016  1.00  0.00    -0.172 C  
HETATM   15  C   UNL     1      -9.036   7.997  68.669  1.00  0.00    -0.140 C  
HETATM   16  C   UNL     1      -9.212   6.608  68.075  1.00  0.00    -0.112 C  
HETATM   17  C   UNL     1     -10.691   6.261  67.990  1.00  0.00    -0.369 C  
HETATM   18  C   UNL     1     -11.283   6.183  69.395  1.00  0.00    -0.466 C  
HETATM   19  C   UNL     1     -11.183   7.536  70.115  1.00  0.00    -0.196 C  
BRANCH  19  20
HETATM   20  N   UNL     1     -11.663   7.606  71.515  1.00  0.00    -0.272 NA 
HETATM   21  C   UNL     1     -12.657   6.610  71.919  1.00  0.00    -0.256 C  
HETATM   22  C   UNL     1     -14.011   7.259  71.685  1.00  0.00    -0.488 C  
HETATM   23  C   UNL     1     -13.750   8.750  71.857  1.00  0.00    -0.433 C  
HETATM   24  C   UNL     1     -12.226   8.898  71.915  1.00  0.00    -0.374 C  
HETATM   25  O   UNL     1     -14.364   9.214  73.055  1.00  0.00    -1.075 OA 
HETATM   26  H   UNL     1     -14.201  10.144  73.162  1.00  0.00     0.000 HD 
ENDBRANCH  19  20
ENDBRANCH  13  14
ENDBRANCH  12  13
ENDBRANCH  11  12
ENDBRANCH   8  11
ENDBRANCH   2   3
TORSDOF 7
ENDMDL
MODEL       25
REMARK 921   NORMALIZED FREE ENERGY PREDICTED BY IDOCK:   -5.95 KCAL/MOL
REMARK 922        TOTAL FREE ENERGY PREDICTED BY IDOCK:   -9.30 KCAL/MOL
REMARK 923 INTER-LIGAND FREE ENERGY PREDICTED BY IDOCK:   -8.22 KCAL/MOL
REMARK 924 INTRA-LIGAND FREE ENERGY PREDICTED BY IDOCK:   -1.08 KCAL/MOL
REMARK 927      BINDING AFFINITY PREDICTED BY RF-SCORE:    0.00 PKD
ROOT
HETATM    1  C   UNL     1     -12.224  10.160  70.976  1.00  0.00    -0.374 C  
HETATM    2  O   UNL     1     -12.181  11.569  71.142  1.00  0.00    -0.301 OA 
ENDROOT
BRANCH   2   3
HETATM    3  C   UNL     1     -12.040  12.324  70.007  1.00  0.00    -0.273 A  
HETATM    4  C   UNL     1     -12.108  13.720  69.892  1.00  0.00    -0.348 A  
HETATM    5  C   UNL     1     -11.969  14.307  68.628  1.00  0.00    -0.348 A  
HETATM    6  C   UNL     1     -11.889  11.547  68.849  1.00  0.00    -0.406 A  
HETATM    7  C   UNL     1     -11.794  12.138  67.588  1.00  0.00    -0.316 A  
HETATM    8  C   UNL     1     -11.873  13.523  67.475  1.00  0.00    -0.406 A  
BRANCH   4   9
HETATM    9  O   UNL     1     -12.307  14.491  71.009  1.00  0.00    -0.302 OA 
HETATM   10  C   UNL     1     -13.661  14.878  71.237  1.00  0.00    -0.435 C  
ENDBRANCH   4   9
BRANCH   8  11
HETATM   11  C   UNL     1     -11.864  14.181  66.125  1.00  0.00    -0.420 C  
BRANCH  11  12
HETATM   12  C   UNL     1     -10.550  13.998  65.387  1.00  0.00    -0.341 C  
BRANCH  12  13
HETATM   13  O   UNL     1      -9.841  15.236  65.324  1.00  0.00    -0.307 OA 
BRANCH  13  14
HETATM   14  C   UNL     1      -8.902  15.478  66.391  1.00  0.00    -0.324 C  
HETATM   15  C   UNL     1      -8.566  14.171  67.125  1.00  0.00    -0.230 C  
HETATM   16  C   UNL     1      -7.781  14.389  68.409  1.00  0.00    -0.132 C  
HETATM   17  C   UNL     1      -8.509  15.382  69.303  1.00  0.00    -0.258 C  
HETATM   18  C   UNL     1      -8.564  16.746  68.619  1.00  0.00    -0.263 C  
HETATM   19  C   UNL     1      -9.347  16.674  67.300  1.00  0.00    -0.230 C  
BRANCH  19  20
HETATM   20  N   UNL     1      -9.438  17.910  66.487  1.00  0.00    -0.296 NA 
HETATM   21  C   UNL     1      -8.179  18.605  66.207  1.00  0.00    -0.237 C  
HETATM   22  C   UNL     1      -8.023  19.639  67.309  1.00  0.00    -0.314 C  
HETATM   23  C   UNL     1      -9.453  19.979  67.713  1.00  0.00    -0.367 C  
HETATM   24  C   UNL     1     -10.336  18.938  67.017  1.00  0.00    -0.404 C  
HETATM   25  O   UNL     1      -9.774  21.300  67.292  1.00  0.00    -0.590 OA 
HETATM   26  H   UNL     1     -10.666  21.512  67.544  1.00  0.00     0.000 HD 
ENDBRANCH  19  20
ENDBRANCH  13  14
ENDBRANCH  12  13
ENDBRANCH  11  12
ENDBRANCH   8  11
ENDBRANCH   2   3
TORSDOF 7
ENDMDL
MODEL       26
REMARK 921   NORMALIZED FREE ENERGY PREDICTED BY IDOCK:   -5.93 KCAL/MOL
REMARK 922        TOTAL FREE ENERGY PREDICTED BY IDOCK:   -9.28 KCAL/MOL
REMARK 923 INTER-LIGAND FREE ENERGY PREDICTED BY IDOCK:   -8.04 KCAL/MOL
REMARK 924 INTRA-LIGAND FREE ENERGY PREDICTED BY IDOCK:   -1.24 KCAL/MOL
REMARK 927      BINDING AFFINITY PREDICTED BY RF-SCORE:    0.00 PKD
ROOT
HETATM    1  C   UNL     1     -10.658  19.825  66.426  1.00  0.00    -0.464 C  
HETATM    2  O   UNL     1     -10.908  18.836  67.413  1.00  0.00    -0.449 OA 
ENDROOT
BRANCH   2   3
HETATM    3  C   UNL     1      -9.945  17.877  67.588  1.00  0.00    -0.324 A  
HETATM    4  C   UNL     1      -9.745  17.059  68.709  1.00  0.00    -0.273 A  
HETATM    5  C   UNL     1      -8.675  16.154  68.710  1.00  0.00    -0.240 A  
HETATM    6  C   UNL     1      -9.039  17.810  66.519  1.00  0.00    -0.281 A  
HETATM    7  C   UNL     1      -7.951  16.936  66.547  1.00  0.00    -0.329 A  
HETATM    8  C   UNL     1      -7.748  16.133  67.665  1.00  0.00    -0.161 A  
BRANCH   4   9
HETATM    9  O   UNL     1     -10.591  17.149  69.785  1.00  0.00    -0.200 OA 
HETATM   10  C   UNL     1     -11.087  15.899  70.264  1.00  0.00    -0.373 C  
ENDBRANCH   4   9
BRANCH   8  11
HETATM   11  C   UNL     1      -6.537  15.249  67.761  1.00  0.00    -0.182 C  
BRANCH  11  12
HETATM   12  C   UNL     1      -6.876  13.821  68.149  1.00  0.00    -0.122 C  
BRANCH  12  13
HETATM   13  O   UNL     1      -7.848  13.283  67.251  1.00  0.00    -0.165 OA 
BRANCH  13  14
HETATM   14  C   UNL     1      -8.989  12.650  67.864  1.00  0.00    -0.189 C  
HETATM   15  C   UNL     1      -8.602  11.281  68.446  1.00  0.00    -0.155 C  
HETATM   16  C   UNL     1      -9.803  10.455  68.883  1.00  0.00    -0.206 C  
HETATM   17  C   UNL     1     -10.798  10.336  67.739  1.00  0.00    -0.346 C  
HETATM   18  C   UNL     1     -11.353  11.715  67.394  1.00  0.00    -0.367 C  
HETATM   19  C   UNL     1     -10.239  12.659  66.920  1.00  0.00    -0.234 C  
BRANCH  19  20
HETATM   20  N   UNL     1     -10.613  14.058  66.603  1.00  0.00    -0.273 NA 
HETATM   21  C   UNL     1     -11.997  14.446  66.881  1.00  0.00    -0.399 C  
HETATM   22  C   UNL     1     -12.759  14.213  65.586  1.00  0.00    -0.469 C  
HETATM   23  C   UNL     1     -11.714  14.403  64.494  1.00  0.00    -0.419 C  
HETATM   24  C   UNL     1     -10.366  14.469  65.220  1.00  0.00    -0.410 C  
HETATM   25  O   UNL     1     -11.977  15.603  63.774  1.00  0.00    -1.007 OA 
HETATM   26  H   UNL     1     -11.325  15.721  63.093  1.00  0.00     0.000 HD 
ENDBRANCH  19  20
ENDBRANCH  13  14
ENDBRANCH  12  13
ENDBRANCH  11  12
ENDBRANCH   8  11
ENDBRANCH   2   3
TORSDOF 7
ENDMDL
MODEL       27
REMARK 921   NORMALIZED FREE ENERGY PREDICTED BY IDOCK:   -5.91 KCAL/MOL
REMARK 922        TOTAL FREE ENERGY PREDICTED BY IDOCK:   -9.25 KCAL/MOL
REMARK 923 INTER-LIGAND FREE ENERGY PREDICTED BY IDOCK:   -7.74 KCAL/MOL
REMARK 924 INTRA-LIGAND FREE ENERGY PREDICTED BY IDOCK:   -1.51 KCAL/MOL
REMARK 927      BINDING AFFINITY PREDICTED BY RF-SCORE:    0.00 PKD
ROOT
HETATM    1  C   UNL     1     -12.557  16.007  72.832  1.00  0.00    -0.480 C  
HETATM    2  O   UNL     1     -11.782  14.938  72.311  1.00  0.00    -0.342 OA 
ENDROOT
BRANCH   2   3
HETATM    3  C   UNL     1     -11.928  14.657  70.977  1.00  0.00    -0.339 A  
HETATM    4  C   UNL     1     -12.164  13.408  70.386  1.00  0.00    -0.345 A  
HETATM    5  C   UNL     1     -12.252  13.322  68.990  1.00  0.00    -0.156 A  
HETATM    6  C   UNL     1     -11.732  15.779  70.158  1.00  0.00    -0.367 A  
HETATM    7  C   UNL     1     -11.779  15.676  68.767  1.00  0.00    -0.382 A  
HETATM    8  C   UNL     1     -12.002  14.433  68.181  1.00  0.00    -0.320 A  
BRANCH   4   9
HETATM    9  O   UNL     1     -12.306  12.293  71.171  1.00  0.00    -0.305 OA 
HETATM   10  C   UNL     1     -11.996  11.059  70.523  1.00  0.00    -0.379 C  
ENDBRANCH   4   9
BRANCH   8  11
HETATM   11  C   UNL     1     -11.967  14.275  66.688  1.00  0.00    -0.454 C  
BRANCH  11  12
HETATM   12  C   UNL     1     -10.689  13.623  66.192  1.00  0.00    -0.286 C  
BRANCH  12  13
HETATM   13  O   UNL     1      -9.775  14.616  65.727  1.00  0.00    -0.323 OA 
BRANCH  13  14
HETATM   14  C   UNL     1      -8.712  14.968  66.635  1.00  0.00    -0.254 C  
HETATM   15  C   UNL     1      -8.476  13.844  67.656  1.00  0.00    -0.193 C  
HETATM   16  C   UNL     1      -7.547  14.250  68.790  1.00  0.00    -0.130 C  
HETATM   17  C   UNL     1      -8.050  15.528  69.445  1.00  0.00    -0.241 C  
HETATM   18  C   UNL     1      -7.996  16.676  68.440  1.00  0.00    -0.205 C  
HETATM   19  C   UNL     1      -8.908  16.403  67.235  1.00  0.00    -0.188 C  
BRANCH  19  20
HETATM   20  N   UNL     1      -8.919  17.402  66.141  1.00  0.00    -0.486 NA 
HETATM   21  C   UNL     1      -7.933  18.482  66.229  1.00  0.00    -0.246 C  
HETATM   22  C   UNL     1      -8.634  19.625  66.944  1.00  0.00    -0.359 C  
HETATM   23  C   UNL     1     -10.106  19.444  66.591  1.00  0.00    -0.407 C  
HETATM   24  C   UNL     1     -10.204  18.069  65.922  1.00  0.00    -0.229 C  
HETATM   25  O   UNL     1     -10.524  20.483  65.712  1.00  0.00    -0.328 OA 
HETATM   26  H   UNL     1     -11.442  20.370  65.493  1.00  0.00     0.000 HD 
ENDBRANCH  19  20
ENDBRANCH  13  14
ENDBRANCH  12  13
ENDBRANCH  11  12
ENDBRANCH   8  11
ENDBRANCH   2   3
TORSDOF 7
ENDMDL
MODEL       28
REMARK 921   NORMALIZED FREE ENERGY PREDICTED BY IDOCK:   -5.91 KCAL/MOL
REMARK 922        TOTAL FREE ENERGY PREDICTED BY IDOCK:   -9.25 KCAL/MOL
REMARK 923 INTER-LIGAND FREE ENERGY PREDICTED BY IDOCK:   -8.47 KCAL/MOL
REMARK 924 INTRA-LIGAND FREE ENERGY PREDICTED BY IDOCK:   -0.78 KCAL/MOL
REMARK 927      BINDING AFFINITY PREDICTED BY RF-SCORE:    0.00 PKD
ROOT
HETATM    1  C   UNL     1      -9.437   5.910  73.307  1.00  0.00    -0.142 C  
HETATM    2  O   UNL     1      -9.427   7.312  73.532  1.00  0.00    -0.179 OA 
ENDROOT
BRANCH   2   3
HETATM    3  C   UNL     1     -10.099   8.091  72.628  1.00  0.00    -0.301 A  
HETATM    4  C   UNL     1      -9.552   8.924  71.642  1.00  0.00    -0.293 A  
HETATM    5  C   UNL     1     -10.413   9.673  70.829  1.00  0.00    -0.375 A  
HETATM    6  C   UNL     1     -11.489   8.067  72.813  1.00  0.00    -0.420 A  
HETATM    7  C   UNL     1     -12.337   8.849  72.026  1.00  0.00    -0.460 A  
HETATM    8  C   UNL     1     -11.791   9.684  71.055  1.00  0.00    -0.428 A  
BRANCH   4   9
HETATM    9  O   UNL     1      -8.191   8.998  71.483  1.00  0.00    -0.303 OA 
HETATM   10  C   UNL     1      -7.762   9.592  70.258  1.00  0.00    -0.161 C  
ENDBRANCH   4   9
BRANCH   8  11
HETATM   11  C   UNL     1     -12.671  10.602  70.256  1.00  0.00    -0.277 C  
BRANCH  11  12
HETATM   12  C   UNL     1     -11.884  11.609  69.437  1.00  0.00    -0.342 C  
BRANCH  12  13
HETATM   13  O   UNL     1     -12.216  11.490  68.053  1.00  0.00    -0.582 OA 
BRANCH  13  14
HETATM   14  C   UNL     1     -11.106  11.532  67.134  1.00  0.00    -0.297 C  
HETATM   15  C   UNL     1     -10.145  10.361  67.388  1.00  0.00    -0.237 C  
HETATM   16  C   UNL     1      -8.834  10.485  66.626  1.00  0.00    -0.145 C  
HETATM   17  C   UNL     1      -8.190  11.832  66.913  1.00  0.00    -0.166 C  
HETATM   18  C   UNL     1      -9.080  12.952  66.381  1.00  0.00    -0.083 C  
HETATM   19  C   UNL     1     -10.448  12.953  67.079  1.00  0.00    -0.238 C  
BRANCH  19  20
HETATM   20  N   UNL     1     -11.449  13.948  66.628  1.00  0.00    -0.340 NA 
HETATM   21  C   UNL     1     -12.284  13.567  65.486  1.00  0.00    -0.451 C  
HETATM   22  C   UNL     1     -11.568  14.098  64.255  1.00  0.00    -0.327 C  
HETATM   23  C   UNL     1     -10.805  15.317  64.758  1.00  0.00    -0.358 C  
HETATM   24  C   UNL     1     -10.906  15.265  66.286  1.00  0.00    -0.312 C  
HETATM   25  O   UNL     1     -11.391  16.505  64.237  1.00  0.00    -1.249 OA 
HETATM   26  H   UNL     1     -10.915  17.264  64.551  1.00  0.00     0.000 HD 
ENDBRANCH  19  20
ENDBRANCH  13  14
ENDBRANCH  12  13
ENDBRANCH  11  12
ENDBRANCH   8  11
ENDBRANCH   2   3
TORSDOF 7
ENDMDL
MODEL       29
REMARK 921   NORMALIZED FREE ENERGY PREDICTED BY IDOCK:   -5.90 KCAL/MOL
REMARK 922        TOTAL FREE ENERGY PREDICTED BY IDOCK:   -9.24 KCAL/MOL
REMARK 923 INTER-LIGAND FREE ENERGY PREDICTED BY IDOCK:   -8.29 KCAL/MOL
REMARK 924 INTRA-LIGAND FREE ENERGY PREDICTED BY IDOCK:   -0.95 KCAL/MOL
REMARK 927      BINDING AFFINITY PREDICTED BY RF-SCORE:    0.00 PKD
ROOT
HETATM    1  C   UNL     1      -8.810  19.463  68.531  1.00  0.00    -0.366 C  
HETATM    2  O   UNL     1      -9.874  18.664  69.028  1.00  0.00    -0.363 OA 
ENDROOT
BRANCH   2   3
HETATM    3  C   UNL     1     -10.326  17.657  68.217  1.00  0.00    -0.384 A  
HETATM    4  C   UNL     1     -10.917  16.446  68.603  1.00  0.00    -0.345 A  
HETATM    5  C   UNL     1     -11.286  15.523  67.615  1.00  0.00    -0.291 A  
HETATM    6  C   UNL     1     -10.068  17.893  66.858  1.00  0.00    -0.348 A  
HETATM    7  C   UNL     1     -10.399  16.949  65.885  1.00  0.00    -0.327 A  
HETATM    8  C   UNL     1     -10.976  15.743  66.271  1.00  0.00    -0.163 A  
BRANCH   4   9
HETATM    9  O   UNL     1     -11.130  16.179  69.931  1.00  0.00    -0.318 OA 
HETATM   10  C   UNL     1     -12.334  15.467  70.214  1.00  0.00    -0.388 C  
ENDBRANCH   4   9
BRANCH   8  11
HETATM   11  C   UNL     1     -11.260  14.673  65.255  1.00  0.00    -0.358 C  
BRANCH  11  12
HETATM   12  C   UNL     1     -12.592  13.982  65.483  1.00  0.00    -0.516 C  
BRANCH  12  13
HETATM   13  O   UNL     1     -12.429  12.563  65.434  1.00  0.00    -0.630 OA 
BRANCH  13  14
HETATM   14  C   UNL     1     -11.101  12.094  65.125  1.00  0.00    -0.322 C  
HETATM   15  C   UNL     1     -11.029  11.584  63.677  1.00  0.00    -0.482 C  
HETATM   16  C   UNL     1      -9.735  10.848  63.366  1.00  0.00    -0.392 C  
HETATM   17  C   UNL     1      -9.508   9.737  64.380  1.00  0.00    -0.233 C  
HETATM   18  C   UNL     1      -9.312  10.341  65.768  1.00  0.00    -0.233 C  
HETATM   19  C   UNL     1     -10.561  11.112  66.221  1.00  0.00    -0.253 C  
BRANCH  19  20
HETATM   20  N   UNL     1     -10.503  11.809  67.528  1.00  0.00    -0.198 NA 
HETATM   21  C   UNL     1      -9.306  11.580  68.340  1.00  0.00    -0.194 C  
HETATM   22  C   UNL     1      -9.646  10.416  69.257  1.00  0.00    -0.226 C  
HETATM   23  C   UNL     1     -11.155  10.509  69.443  1.00  0.00    -0.258 C  
HETATM   24  C   UNL     1     -11.633  11.547  68.421  1.00  0.00    -0.308 C  
HETATM   25  O   UNL     1     -11.455  10.913  70.775  1.00  0.00    -0.394 OA 
HETATM   26  H   UNL     1     -12.396  10.972  70.890  1.00  0.00     0.000 HD 
ENDBRANCH  19  20
ENDBRANCH  13  14
ENDBRANCH  12  13
ENDBRANCH  11  12
ENDBRANCH   8  11
ENDBRANCH   2   3
TORSDOF 7
ENDMDL
MODEL       30
REMARK 921   NORMALIZED FREE ENERGY PREDICTED BY IDOCK:   -5.89 KCAL/MOL
REMARK 922        TOTAL FREE ENERGY PREDICTED BY IDOCK:   -9.23 KCAL/MOL
REMARK 923 INTER-LIGAND FREE ENERGY PREDICTED BY IDOCK:   -8.79 KCAL/MOL
REMARK 924 INTRA-LIGAND FREE ENERGY PREDICTED BY IDOCK:   -0.43 KCAL/MOL
REMARK 927      BINDING AFFINITY PREDICTED BY RF-SCORE:    0.00 PKD
ROOT
HETATM    1  C   UNL     1     -14.214   8.537  72.162  1.00  0.00    -0.434 C  
HETATM    2  O   UNL     1     -13.268   9.578  72.358  1.00  0.00    -0.431 OA 
ENDROOT
BRANCH   2   3
HETATM    3  C   UNL     1     -12.297   9.722  71.402  1.00  0.00    -0.388 A  
HETATM    4  C   UNL     1     -11.017   9.151  71.388  1.00  0.00    -0.344 A  
HETATM    5  C   UNL     1     -10.150   9.448  70.329  1.00  0.00    -0.288 A  
HETATM    6  C   UNL     1     -12.659  10.618  70.385  1.00  0.00    -0.395 A  
HETATM    7  C   UNL     1     -11.774  10.942  69.356  1.00  0.00    -0.397 A  
HETATM    8  C   UNL     1     -10.499  10.382  69.351  1.00  0.00    -0.261 A  
BRANCH   4   9
HETATM    9  O   UNL     1     -10.628   8.313  72.402  1.00  0.00    -0.293 OA 
HETATM   10  C   UNL     1     -10.645   6.925  72.072  1.00  0.00    -0.212 C  
ENDBRANCH   4   9
BRANCH   8  11
HETATM   11  C   UNL     1      -9.495  10.782  68.307  1.00  0.00    -0.164 C  
BRANCH  11  12
HETATM   12  C   UNL     1      -8.916  12.165  68.544  1.00  0.00    -0.082 C  
BRANCH  12  13
HETATM   13  O   UNL     1      -9.898  13.166  68.273  1.00  0.00    -0.223 OA 
BRANCH  13  14
HETATM   14  C   UNL     1      -9.683  13.952  67.084  1.00  0.00    -0.244 C  
HETATM   15  C   UNL     1      -9.060  15.311  67.438  1.00  0.00    -0.201 C  
HETATM   16  C   UNL     1      -9.038  16.283  66.268  1.00  0.00    -0.366 C  
HETATM   17  C   UNL     1     -10.434  16.424  65.680  1.00  0.00    -0.364 C  
HETATM   18  C   UNL     1     -10.882  15.088  65.094  1.00  0.00    -0.422 C  
HETATM   19  C   UNL     1     -10.962  14.004  66.179  1.00  0.00    -0.295 C  
BRANCH  19  20
HETATM   20  N   UNL     1     -11.327  12.632  65.755  1.00  0.00    -0.318 NA 
HETATM   21  C   UNL     1     -10.305  11.876  65.027  1.00  0.00    -0.289 C  
HETATM   22  C   UNL     1     -10.572  12.135  63.553  1.00  0.00    -0.501 C  
HETATM   23  C   UNL     1     -12.071  12.395  63.481  1.00  0.00    -0.558 C  
HETATM   24  C   UNL     1     -12.536  12.536  64.934  1.00  0.00    -0.450 C  
HETATM   25  O   UNL     1     -12.721  11.309  62.829  1.00  0.00    -0.876 OA 
HETATM   26  H   UNL     1     -13.656  11.472  62.784  1.00  0.00     0.000 HD 
ENDBRANCH  19  20
ENDBRANCH  13  14
ENDBRANCH  12  13
ENDBRANCH  11  12
ENDBRANCH   8  11
ENDBRANCH   2   3
TORSDOF 7
ENDMDL
MODEL       31
REMARK 921   NORMALIZED FREE ENERGY PREDICTED BY IDOCK:   -5.89 KCAL/MOL
REMARK 922        TOTAL FREE ENERGY PREDICTED BY IDOCK:   -9.22 KCAL/MOL
REMARK 923 INTER-LIGAND FREE ENERGY PREDICTED BY IDOCK:   -8.54 KCAL/MOL
REMARK 924 INTRA-LIGAND FREE ENERGY PREDICTED BY IDOCK:   -0.68 KCAL/MOL
REMARK 927      BINDING AFFINITY PREDICTED BY RF-SCORE:    0.00 PKD
ROOT
HETATM    1  C   UNL     1     -13.336   9.989  71.530  1.00  0.00    -0.361 C  
HETATM    2  O   UNL     1     -13.334  11.256  72.170  1.00  0.00    -0.457 OA 
ENDROOT
BRANCH   2   3
HETATM    3  C   UNL     1     -12.831  12.311  71.456  1.00  0.00    -0.280 A  
HETATM    4  C   UNL     1     -12.986  13.679  71.725  1.00  0.00    -0.353 A  
HETATM    5  C   UNL     1     -12.416  14.613  70.850  1.00  0.00    -0.406 A  
HETATM    6  C   UNL     1     -12.159  11.913  70.291  1.00  0.00    -0.409 A  
HETATM    7  C   UNL     1     -11.633  12.851  69.403  1.00  0.00    -0.363 A  
HETATM    8  C   UNL     1     -11.796  14.208  69.666  1.00  0.00    -0.379 A  
BRANCH   4   9
HETATM    9  O   UNL     1     -13.684  14.086  72.833  1.00  0.00    -0.677 OA 
HETATM   10  C   UNL     1     -13.799  15.500  72.984  1.00  0.00    -0.341 C  
ENDBRANCH   4   9
BRANCH   8  11
HETATM   11  C   UNL     1     -11.320  15.240  68.683  1.00  0.00    -0.327 C  
BRANCH  11  12
HETATM   12  C   UNL     1     -11.560  14.834  67.239  1.00  0.00    -0.369 C  
BRANCH  12  13
HETATM   13  O   UNL     1     -10.416  14.156  66.719  1.00  0.00    -0.273 OA 
BRANCH  13  14
HETATM   14  C   UNL     1     -10.551  13.627  65.385  1.00  0.00    -0.317 C  
HETATM   15  C   UNL     1     -11.741  14.277  64.661  1.00  0.00    -0.439 C  
HETATM   16  C   UNL     1     -12.092  13.591  63.350  1.00  0.00    -0.351 C  
HETATM   17  C   UNL     1     -12.300  12.102  63.579  1.00  0.00    -0.682 C  
HETATM   18  C   UNL     1     -10.991  11.464  64.037  1.00  0.00    -0.428 C  
HETATM   19  C   UNL     1     -10.520  12.060  65.372  1.00  0.00    -0.275 C  
BRANCH  19  20
HETATM   20  N   UNL     1      -9.227  11.584  65.920  1.00  0.00    -0.221 NA 
HETATM   21  C   UNL     1      -8.594  10.461  65.225  1.00  0.00    -0.176 C  
HETATM   22  C   UNL     1      -9.074   9.209  65.941  1.00  0.00    -0.256 C  
HETATM   23  C   UNL     1      -9.339   9.669  67.369  1.00  0.00    -0.134 C  
HETATM   24  C   UNL     1      -9.256  11.199  67.332  1.00  0.00    -0.153 C  
HETATM   25  O   UNL     1      -8.363   9.115  68.245  1.00  0.00    -0.118 OA 
HETATM   26  H   UNL     1      -8.529   9.402  69.136  1.00  0.00     0.000 HD 
ENDBRANCH  19  20
ENDBRANCH  13  14
ENDBRANCH  12  13
ENDBRANCH  11  12
ENDBRANCH   8  11
ENDBRANCH   2   3
TORSDOF 7
ENDMDL
MODEL       32
REMARK 921   NORMALIZED FREE ENERGY PREDICTED BY IDOCK:   -5.83 KCAL/MOL
REMARK 922        TOTAL FREE ENERGY PREDICTED BY IDOCK:   -9.14 KCAL/MOL
REMARK 923 INTER-LIGAND FREE ENERGY PREDICTED BY IDOCK:   -8.60 KCAL/MOL
REMARK 924 INTRA-LIGAND FREE ENERGY PREDICTED BY IDOCK:   -0.54 KCAL/MOL
REMARK 927      BINDING AFFINITY PREDICTED BY RF-SCORE:    0.00 PKD
ROOT
HETATM    1  C   UNL     1     -10.881  16.084  70.019  1.00  0.00    -0.353 C  
HETATM    2  O   UNL     1     -12.199  15.849  70.491  1.00  0.00    -0.380 OA 
ENDROOT
BRANCH   2   3
HETATM    3  C   UNL     1     -12.519  14.558  70.820  1.00  0.00    -0.351 A  
HETATM    4  C   UNL     1     -13.229  14.111  71.943  1.00  0.00    -0.387 A  
HETATM    5  C   UNL     1     -13.428  12.735  72.120  1.00  0.00    -0.591 A  
HETATM    6  C   UNL     1     -11.979  13.618  69.930  1.00  0.00    -0.415 A  
HETATM    7  C   UNL     1     -12.146  12.247  70.137  1.00  0.00    -0.364 A  
HETATM    8  C   UNL     1     -12.841  11.805  71.259  1.00  0.00    -0.409 A  
BRANCH   4   9
HETATM    9  O   UNL     1     -13.719  15.015  72.850  1.00  0.00    -0.456 OA 
HETATM   10  C   UNL     1     -12.785  15.432  73.846  1.00  0.00    -0.554 C  
ENDBRANCH   4   9
BRANCH   8  11
HETATM   11  C   UNL     1     -12.958  10.337  71.555  1.00  0.00    -0.556 C  
BRANCH  11  12
HETATM   12  C   UNL     1     -11.616   9.627  71.560  1.00  0.00    -0.381 C  
BRANCH  12  13
HETATM   13  O   UNL     1     -11.449   8.877  70.356  1.00  0.00    -0.246 OA 
BRANCH  13  14
HETATM   14  C   UNL     1     -11.438   7.443  70.505  1.00  0.00    -0.255 C  
HETATM   15  C   UNL     1     -11.243   7.052  71.978  1.00  0.00    -0.288 C  
HETATM   16  C   UNL     1     -10.973   5.568  72.173  1.00  0.00    -0.291 C  
HETATM   17  C   UNL     1      -9.806   5.131  71.301  1.00  0.00    -0.239 C  
HETATM   18  C   UNL     1     -10.176   5.290  69.829  1.00  0.00    -0.364 C  
HETATM   19  C   UNL     1     -10.466   6.758  69.484  1.00  0.00    -0.220 C  
BRANCH  19  20
HETATM   20  N   UNL     1     -10.899   7.067  68.101  1.00  0.00    -0.184 NA 
HETATM   21  C   UNL     1     -10.762   5.992  67.115  1.00  0.00    -0.330 C  
HETATM   22  C   UNL     1      -9.401   6.194  66.469  1.00  0.00    -0.171 C  
HETATM   23  C   UNL     1      -9.156   7.695  66.567  1.00  0.00    -0.167 C  
HETATM   24  C   UNL     1     -10.253   8.232  67.493  1.00  0.00    -0.243 C  
HETATM   25  O   UNL     1      -9.232   8.284  65.274  1.00  0.00    -0.405 OA 
HETATM   26  H   UNL     1      -9.079   9.220  65.335  1.00  0.00     0.000 HD 
ENDBRANCH  19  20
ENDBRANCH  13  14
ENDBRANCH  12  13
ENDBRANCH  11  12
ENDBRANCH   8  11
ENDBRANCH   2   3
TORSDOF 7
ENDMDL
MODEL       33
REMARK 921   NORMALIZED FREE ENERGY PREDICTED BY IDOCK:   -5.80 KCAL/MOL
REMARK 922        TOTAL FREE ENERGY PREDICTED BY IDOCK:   -9.09 KCAL/MOL
REMARK 923 INTER-LIGAND FREE ENERGY PREDICTED BY IDOCK:   -8.12 KCAL/MOL
REMARK 924 INTRA-LIGAND FREE ENERGY PREDICTED BY IDOCK:   -0.97 KCAL/MOL
REMARK 927      BINDING AFFINITY PREDICTED BY RF-SCORE:    0.00 PKD
ROOT
HETATM    1  C   UNL     1     -10.390  18.303  66.469  1.00  0.00    -0.392 C  
HETATM    2  O   UNL     1      -9.997  17.340  65.502  1.00  0.00    -0.557 OA 
ENDROOT
BRANCH   2   3
HETATM    3  C   UNL     1      -9.925  16.037  65.918  1.00  0.00    -0.352 A  
HETATM    4  C   UNL     1      -8.845  15.394  66.539  1.00  0.00    -0.312 A  
HETATM    5  C   UNL     1      -8.955  14.035  66.861  1.00  0.00    -0.243 A  
HETATM    6  C   UNL     1     -11.067  15.293  65.585  1.00  0.00    -0.308 A  
HETATM    7  C   UNL     1     -11.151  13.929  65.871  1.00  0.00    -0.291 A  
HETATM    8  C   UNL     1     -10.073  13.291  66.478  1.00  0.00    -0.275 A  
BRANCH   4   9
HETATM    9  O   UNL     1      -7.701  16.095  66.825  1.00  0.00    -0.225 OA 
HETATM   10  C   UNL     1      -6.742  15.385  67.608  1.00  0.00    -0.173 C  
ENDBRANCH   4   9
BRANCH   8  11
HETATM   11  C   UNL     1     -10.100  11.808  66.715  1.00  0.00    -0.235 C  
BRANCH  11  12
HETATM   12  C   UNL     1     -11.187  11.385  67.686  1.00  0.00    -0.283 C  
BRANCH  12  13
HETATM   13  O   UNL     1     -10.910  11.892  68.992  1.00  0.00    -0.222 OA 
BRANCH  13  14
HETATM   14  C   UNL     1     -12.038  12.429  69.711  1.00  0.00    -0.223 C  
HETATM   15  C   UNL     1     -11.912  13.953  69.859  1.00  0.00    -0.405 C  
HETATM   16  C   UNL     1     -12.933  14.549  70.817  1.00  0.00    -0.403 C  
HETATM   17  C   UNL     1     -12.871  13.832  72.157  1.00  0.00    -0.367 C  
HETATM   18  C   UNL     1     -13.280  12.372  71.979  1.00  0.00    -0.514 C  
HETATM   19  C   UNL     1     -12.317  11.637  71.034  1.00  0.00    -0.301 C  
BRANCH  19  20
HETATM   20  N   UNL     1     -12.617  10.221  70.713  1.00  0.00    -0.344 NA 
HETATM   21  C   UNL     1     -13.890   9.692  71.206  1.00  0.00    -0.076 C  
HETATM   22  C   UNL     1     -13.581   9.061  72.554  1.00  0.00    -0.492 C  
HETATM   23  C   UNL     1     -12.126   8.623  72.441  1.00  0.00    -0.345 C  
HETATM   24  C   UNL     1     -11.603   9.258  71.148  1.00  0.00    -0.327 C  
HETATM   25  O   UNL     1     -12.050   7.202  72.391  1.00  0.00    -0.457 OA 
HETATM   26  H   UNL     1     -11.143   6.929  72.320  1.00  0.00     0.000 HD 
ENDBRANCH  19  20
ENDBRANCH  13  14
ENDBRANCH  12  13
ENDBRANCH  11  12
ENDBRANCH   8  11
ENDBRANCH   2   3
TORSDOF 7
ENDMDL
MODEL       34
REMARK 921   NORMALIZED FREE ENERGY PREDICTED BY IDOCK:   -5.78 KCAL/MOL
REMARK 922        TOTAL FREE ENERGY PREDICTED BY IDOCK:   -9.07 KCAL/MOL
REMARK 923 INTER-LIGAND FREE ENERGY PREDICTED BY IDOCK:   -8.53 KCAL/MOL
REMARK 924 INTRA-LIGAND FREE ENERGY PREDICTED BY IDOCK:   -0.54 KCAL/MOL
REMARK 927      BINDING AFFINITY PREDICTED BY RF-SCORE:    0.00 PKD
ROOT
HETATM    1  C   UNL     1     -10.929   6.589  73.119  1.00  0.00    -0.221 C  
HETATM    2  O   UNL     1     -10.943   8.007  73.201  1.00  0.00    -0.337 OA 
ENDROOT
BRANCH   2   3
HETATM    3  C   UNL     1     -10.637   8.698  72.058  1.00  0.00    -0.351 A  
HETATM    4  C   UNL     1     -11.442   9.618  71.372  1.00  0.00    -0.385 A  
HETATM    5  C   UNL     1     -10.958  10.199  70.193  1.00  0.00    -0.376 A  
HETATM    6  C   UNL     1      -9.392   8.340  71.520  1.00  0.00    -0.236 A  
HETATM    7  C   UNL     1      -8.936   8.893  70.322  1.00  0.00    -0.201 A  
HETATM    8  C   UNL     1      -9.742   9.798  69.637  1.00  0.00    -0.242 A  
BRANCH   4   9
HETATM    9  O   UNL     1     -12.684   9.939  71.858  1.00  0.00    -0.394 OA 
HETATM   10  C   UNL     1     -13.699   8.970  71.597  1.00  0.00    -0.387 C  
ENDBRANCH   4   9
BRANCH   8  11
HETATM   11  C   UNL     1      -9.317  10.339  68.301  1.00  0.00    -0.140 C  
BRANCH  11  12
HETATM   12  C   UNL     1      -8.718  11.731  68.392  1.00  0.00    -0.155 C  
BRANCH  12  13
HETATM   13  O   UNL     1      -9.728  12.719  68.184  1.00  0.00    -0.214 OA 
BRANCH  13  14
HETATM   14  C   UNL     1      -9.534  13.589  67.052  1.00  0.00    -0.251 C  
HETATM   15  C   UNL     1      -8.739  14.840  67.459  1.00  0.00    -0.195 C  
HETATM   16  C   UNL     1      -8.714  15.912  66.379  1.00  0.00    -0.362 C  
HETATM   17  C   UNL     1     -10.133  16.246  65.942  1.00  0.00    -0.381 C  
HETATM   18  C   UNL     1     -10.772  15.022  65.290  1.00  0.00    -0.406 C  
HETATM   19  C   UNL     1     -10.873  13.854  66.282  1.00  0.00    -0.290 C  
BRANCH  19  20
HETATM   20  N   UNL     1     -11.419  12.571  65.780  1.00  0.00    -0.346 NA 
HETATM   21  C   UNL     1     -10.485  11.692  65.073  1.00  0.00    -0.285 C  
HETATM   22  C   UNL     1     -10.623  12.041  63.600  1.00  0.00    -0.503 C  
HETATM   23  C   UNL     1     -12.058  12.534  63.461  1.00  0.00    -0.562 C  
HETATM   24  C   UNL     1     -12.579  12.695  64.894  1.00  0.00    -0.450 C  
HETATM   25  O   UNL     1     -12.827  11.586  62.730  1.00  0.00    -0.857 OA 
HETATM   26  H   UNL     1     -13.722  11.894  62.644  1.00  0.00     0.000 HD 
ENDBRANCH  19  20
ENDBRANCH  13  14
ENDBRANCH  12  13
ENDBRANCH  11  12
ENDBRANCH   8  11
ENDBRANCH   2   3
TORSDOF 7
ENDMDL
MODEL       35
REMARK 921   NORMALIZED FREE ENERGY PREDICTED BY IDOCK:   -5.78 KCAL/MOL
REMARK 922        TOTAL FREE ENERGY PREDICTED BY IDOCK:   -9.06 KCAL/MOL
REMARK 923 INTER-LIGAND FREE ENERGY PREDICTED BY IDOCK:   -8.37 KCAL/MOL
REMARK 924 INTRA-LIGAND FREE ENERGY PREDICTED BY IDOCK:   -0.69 KCAL/MOL
REMARK 927      BINDING AFFINITY PREDICTED BY RF-SCORE:    0.00 PKD
ROOT
HETATM    1  C   UNL     1     -10.676   5.348  66.769  1.00  0.00    -0.211 C  
HETATM    2  O   UNL     1      -9.973   5.604  67.975  1.00  0.00    -0.127 OA 
ENDROOT
BRANCH   2   3
HETATM    3  C   UNL     1     -10.405   6.659  68.734  1.00  0.00    -0.194 A  
HETATM    4  C   UNL     1     -10.106   8.018  68.561  1.00  0.00    -0.199 A  
HETATM    5  C   UNL     1     -10.624   8.950  69.470  1.00  0.00    -0.233 A  
HETATM    6  C   UNL     1     -11.168   6.260  69.841  1.00  0.00    -0.498 A  
HETATM    7  C   UNL     1     -11.644   7.191  70.766  1.00  0.00    -0.358 A  
HETATM    8  C   UNL     1     -11.337   8.538  70.599  1.00  0.00    -0.265 A  
BRANCH   4   9
HETATM    9  O   UNL     1      -9.319   8.419  67.513  1.00  0.00    -0.143 OA 
HETATM   10  C   UNL     1     -10.028   8.993  66.415  1.00  0.00    -0.300 C  
ENDBRANCH   4   9
BRANCH   8  11
HETATM   11  C   UNL     1     -11.758   9.551  71.625  1.00  0.00    -0.460 C  
BRANCH  11  12
HETATM   12  C   UNL     1     -12.998  10.326  71.216  1.00  0.00    -0.420 C  
BRANCH  12  13
HETATM   13  O   UNL     1     -12.646  11.394  70.336  1.00  0.00    -0.255 OA 
BRANCH  13  14
HETATM   14  C   UNL     1     -12.445  12.680  70.955  1.00  0.00    -0.260 C  
HETATM   15  C   UNL     1     -13.421  12.876  72.126  1.00  0.00    -0.619 C  
HETATM   16  C   UNL     1     -13.435  14.299  72.663  1.00  0.00    -0.623 C  
HETATM   17  C   UNL     1     -13.690  15.281  71.529  1.00  0.00    -0.610 C  
HETATM   18  C   UNL     1     -12.534  15.230  70.534  1.00  0.00    -0.454 C  
HETATM   19  C   UNL     1     -12.409  13.837  69.899  1.00  0.00    -0.275 C  
BRANCH  19  20
HETATM   20  N   UNL     1     -11.291  13.611  68.953  1.00  0.00    -0.272 NA 
HETATM   21  C   UNL     1     -10.370  14.731  68.746  1.00  0.00    -0.248 C  
HETATM   22  C   UNL     1     -10.906  15.490  67.543  1.00  0.00    -0.306 C  
HETATM   23  C   UNL     1     -11.623  14.430  66.716  1.00  0.00    -0.385 C  
HETATM   24  C   UNL     1     -11.691  13.186  67.609  1.00  0.00    -0.369 C  
HETATM   25  O   UNL     1     -10.894  14.173  65.521  1.00  0.00    -0.290 OA 
HETATM   26  H   UNL     1     -11.341  13.512  65.005  1.00  0.00     0.000 HD 
ENDBRANCH  19  20
ENDBRANCH  13  14
ENDBRANCH  12  13
ENDBRANCH  11  12
ENDBRANCH   8  11
ENDBRANCH   2   3
TORSDOF 7
ENDMDL
MODEL       36
REMARK 921   NORMALIZED FREE ENERGY PREDICTED BY IDOCK:   -5.77 KCAL/MOL
REMARK 922        TOTAL FREE ENERGY PREDICTED BY IDOCK:   -9.06 KCAL/MOL
REMARK 923 INTER-LIGAND FREE ENERGY PREDICTED BY IDOCK:   -8.40 KCAL/MOL
REMARK 924 INTRA-LIGAND FREE ENERGY PREDICTED BY IDOCK:   -0.66 KCAL/MOL
REMARK 927      BINDING AFFINITY PREDICTED BY RF-SCORE:    0.00 PKD
ROOT
HETATM    1  C   UNL     1      -9.776  17.321  68.437  1.00  0.00    -0.293 C  
HETATM    2  O   UNL     1     -10.579  17.252  69.606  1.00  0.00    -0.208 OA 
ENDROOT
BRANCH   2   3
HETATM    3  C   UNL     1     -11.178  16.050  69.877  1.00  0.00    -0.361 A  
HETATM    4  C   UNL     1     -11.692  15.606  71.104  1.00  0.00    -0.413 A  
HETATM    5  C   UNL     1     -12.241  14.320  71.187  1.00  0.00    -0.431 A  
HETATM    6  C   UNL     1     -11.177  15.178  68.778  1.00  0.00    -0.293 A  
HETATM    7  C   UNL     1     -11.687  13.883  68.881  1.00  0.00    -0.373 A  
HETATM    8  C   UNL     1     -12.186  13.441  70.103  1.00  0.00    -0.385 A  
BRANCH   4   9
HETATM    9  O   UNL     1     -11.654  16.428  72.201  1.00  0.00    -0.442 OA 
HETATM   10  C   UNL     1     -12.062  15.815  73.424  1.00  0.00    -0.487 C  
ENDBRANCH   4   9
BRANCH   8  11
HETATM   11  C   UNL     1     -12.658  12.024  70.267  1.00  0.00    -0.060 C  
BRANCH  11  12
HETATM   12  C   UNL     1     -11.712  11.011  69.648  1.00  0.00    -0.329 C  
BRANCH  12  13
HETATM   13  O   UNL     1     -12.055  10.786  68.279  1.00  0.00    -0.496 OA 
BRANCH  13  14
HETATM   14  C   UNL     1     -10.973  10.375  67.419  1.00  0.00    -0.270 C  
HETATM   15  C   UNL     1      -9.832   9.757  68.241  1.00  0.00    -0.167 C  
HETATM   16  C   UNL     1      -8.564   9.533  67.430  1.00  0.00    -0.125 C  
HETATM   17  C   UNL     1      -8.147  10.825  66.746  1.00  0.00    -0.137 C  
HETATM   18  C   UNL     1      -9.212  11.238  65.734  1.00  0.00    -0.236 C  
HETATM   19  C   UNL     1     -10.557  11.511  66.423  1.00  0.00    -0.259 C  
BRANCH  19  20
HETATM   20  N   UNL     1     -11.711  11.865  65.563  1.00  0.00    -0.338 NA 
HETATM   21  C   UNL     1     -11.623  11.475  64.154  1.00  0.00    -0.165 C  
HETATM   22  C   UNL     1     -11.034  12.675  63.429  1.00  0.00    -0.305 C  
HETATM   23  C   UNL     1     -11.476  13.873  64.260  1.00  0.00    -0.318 C  
HETATM   24  C   UNL     1     -12.062  13.287  65.549  1.00  0.00    -0.435 C  
HETATM   25  O   UNL     1     -12.447  14.628  63.542  1.00  0.00    -1.069 OA 
HETATM   26  H   UNL     1     -12.723  15.375  64.060  1.00  0.00     0.000 HD 
ENDBRANCH  19  20
ENDBRANCH  13  14
ENDBRANCH  12  13
ENDBRANCH  11  12
ENDBRANCH   8  11
ENDBRANCH   2   3
TORSDOF 7
ENDMDL
MODEL       37
REMARK 921   NORMALIZED FREE ENERGY PREDICTED BY IDOCK:   -5.76 KCAL/MOL
REMARK 922        TOTAL FREE ENERGY PREDICTED BY IDOCK:   -9.04 KCAL/MOL
REMARK 923 INTER-LIGAND FREE ENERGY PREDICTED BY IDOCK:   -8.11 KCAL/MOL
REMARK 924 INTRA-LIGAND FREE ENERGY PREDICTED BY IDOCK:   -0.94 KCAL/MOL
REMARK 927      BINDING AFFINITY PREDICTED BY RF-SCORE:    0.00 PKD
ROOT
HETATM    1  C   UNL     1     -10.543   5.803  71.926  1.00  0.00    -0.232 C  
HETATM    2  O   UNL     1     -11.538   6.341  71.067  1.00  0.00    -0.324 OA 
ENDROOT
BRANCH   2   3
HETATM    3  C   UNL     1     -11.103   7.080  69.999  1.00  0.00    -0.278 A  
HETATM    4  C   UNL     1     -10.801   8.449  69.970  1.00  0.00    -0.225 A  
HETATM    5  C   UNL     1     -10.399   9.032  68.761  1.00  0.00    -0.236 A  
HETATM    6  C   UNL     1     -11.047   6.339  68.809  1.00  0.00    -0.424 A  
HETATM    7  C   UNL     1     -10.686   6.938  67.601  1.00  0.00    -0.344 A  
HETATM    8  C   UNL     1     -10.398   8.299  67.572  1.00  0.00    -0.333 A  
BRANCH   4   9
HETATM    9  O   UNL     1     -10.900   9.198  71.115  1.00  0.00    -0.257 OA 
HETATM   10  C   UNL     1     -12.055  10.034  71.186  1.00  0.00    -0.380 C  
ENDBRANCH   4   9
BRANCH   8  11
HETATM   11  C   UNL     1     -10.095   8.989  66.272  1.00  0.00    -0.311 C  
BRANCH  11  12
HETATM   12  C   UNL     1      -8.848   9.852  66.338  1.00  0.00    -0.142 C  
BRANCH  12  13
HETATM   13  O   UNL     1      -9.050  11.069  65.618  1.00  0.00    -0.198 OA 
BRANCH  13  14
HETATM   14  C   UNL     1     -10.421  11.422  65.351  1.00  0.00    -0.280 C  
HETATM   15  C   UNL     1     -10.711  11.374  63.843  1.00  0.00    -0.462 C  
HETATM   16  C   UNL     1     -12.060  11.973  63.472  1.00  0.00    -0.628 C  
HETATM   17  C   UNL     1     -12.178  13.380  64.038  1.00  0.00    -0.466 C  
HETATM   18  C   UNL     1     -12.159  13.326  65.563  1.00  0.00    -0.480 C  
HETATM   19  C   UNL     1     -10.835  12.745  66.082  1.00  0.00    -0.279 C  
BRANCH  19  20
HETATM   20  N   UNL     1     -10.688  12.572  67.547  1.00  0.00    -0.222 NA 
HETATM   21  C   UNL     1     -11.904  12.719  68.350  1.00  0.00    -0.310 C  
HETATM   22  C   UNL     1     -11.942  14.177  68.778  1.00  0.00    -0.367 C  
HETATM   23  C   UNL     1     -10.478  14.594  68.831  1.00  0.00    -0.248 C  
HETATM   24  C   UNL     1      -9.699  13.446  68.179  1.00  0.00    -0.226 C  
HETATM   25  O   UNL     1     -10.079  14.792  70.183  1.00  0.00    -0.454 OA 
HETATM   26  H   UNL     1      -9.166  15.052  70.216  1.00  0.00     0.000 HD 
ENDBRANCH  19  20
ENDBRANCH  13  14
ENDBRANCH  12  13
ENDBRANCH  11  12
ENDBRANCH   8  11
ENDBRANCH   2   3
TORSDOF 7
ENDMDL
MODEL       38
REMARK 921   NORMALIZED FREE ENERGY PREDICTED BY IDOCK:   -5.76 KCAL/MOL
REMARK 922        TOTAL FREE ENERGY PREDICTED BY IDOCK:   -9.04 KCAL/MOL
REMARK 923 INTER-LIGAND FREE ENERGY PREDICTED BY IDOCK:   -8.26 KCAL/MOL
REMARK 924 INTRA-LIGAND FREE ENERGY PREDICTED BY IDOCK:   -0.78 KCAL/MOL
REMARK 927      BINDING AFFINITY PREDICTED BY RF-SCORE:    0.00 PKD
ROOT
HETATM    1  C   UNL     1     -13.012  16.091  73.526  1.00  0.00    -0.586 C  
HETATM    2  O   UNL     1     -13.534  15.733  72.255  1.00  0.00    -0.467 OA 
ENDROOT
BRANCH   2   3
HETATM    3  C   UNL     1     -13.054  14.582  71.689  1.00  0.00    -0.343 A  
HETATM    4  C   UNL     1     -12.233  14.461  70.559  1.00  0.00    -0.341 A  
HETATM    5  C   UNL     1     -11.873  13.182  70.113  1.00  0.00    -0.328 A  
HETATM    6  C   UNL     1     -13.539  13.423  72.312  1.00  0.00    -0.703 A  
HETATM    7  C   UNL     1     -13.210  12.153  71.835  1.00  0.00    -0.474 A  
HETATM    8  C   UNL     1     -12.403  12.035  70.706  1.00  0.00    -0.403 A  
BRANCH   4   9
HETATM    9  O   UNL     1     -11.792  15.584  69.907  1.00  0.00    -0.317 OA 
HETATM   10  C   UNL     1     -11.559  15.414  68.509  1.00  0.00    -0.359 C  
ENDBRANCH   4   9
BRANCH   8  11
HETATM   11  C   UNL     1     -12.107  10.685  70.117  1.00  0.00    -0.414 C  
BRANCH  11  12
HETATM   12  C   UNL     1     -11.030  10.731  69.048  1.00  0.00    -0.240 C  
BRANCH  12  13
HETATM   13  O   UNL     1      -9.891   9.974  69.459  1.00  0.00    -0.205 OA 
BRANCH  13  14
HETATM   14  C   UNL     1      -9.652   8.752  68.733  1.00  0.00    -0.158 C  
HETATM   15  C   UNL     1      -9.979   8.934  67.242  1.00  0.00    -0.277 C  
HETATM   16  C   UNL     1      -9.989   7.626  66.467  1.00  0.00    -0.226 C  
HETATM   17  C   UNL     1     -10.914   6.625  67.143  1.00  0.00    -0.478 C  
HETATM   18  C   UNL     1     -10.373   6.277  68.527  1.00  0.00    -0.238 C  
HETATM   19  C   UNL     1     -10.319   7.518  69.431  1.00  0.00    -0.213 C  
BRANCH  19  20
HETATM   20  N   UNL     1      -9.758   7.353  70.792  1.00  0.00    -0.171 NA 
HETATM   21  C   UNL     1      -9.139   6.060  71.094  1.00  0.00    -0.146 C  
HETATM   22  C   UNL     1     -10.237   5.211  71.714  1.00  0.00    -0.271 C  
HETATM   23  C   UNL     1     -11.163   6.220  72.381  1.00  0.00    -0.280 C  
HETATM   24  C   UNL     1     -10.701   7.595  71.886  1.00  0.00    -0.220 C  
HETATM   25  O   UNL     1     -11.058   6.113  73.796  1.00  0.00    -0.405 OA 
HETATM   26  H   UNL     1     -11.636   6.742  74.212  1.00  0.00     0.000 HD 
ENDBRANCH  19  20
ENDBRANCH  13  14
ENDBRANCH  12  13
ENDBRANCH  11  12
ENDBRANCH   8  11
ENDBRANCH   2   3
TORSDOF 7
ENDMDL
MODEL       39
REMARK 921   NORMALIZED FREE ENERGY PREDICTED BY IDOCK:   -5.75 KCAL/MOL
REMARK 922        TOTAL FREE ENERGY PREDICTED BY IDOCK:   -9.03 KCAL/MOL
REMARK 923 INTER-LIGAND FREE ENERGY PREDICTED BY IDOCK:   -8.38 KCAL/MOL
REMARK 924 INTRA-LIGAND FREE ENERGY PREDICTED BY IDOCK:   -0.64 KCAL/MOL
REMARK 927      BINDING AFFINITY PREDICTED BY RF-SCORE:    0.00 PKD
ROOT
HETATM    1  C   UNL     1      -8.865  10.176  62.491  1.00  0.00    -0.240 C  
HETATM    2  O   UNL     1      -9.435  11.336  63.079  1.00  0.00    -0.324 OA 
ENDROOT
BRANCH   2   3
HETATM    3  C   UNL     1      -9.967  11.198  64.334  1.00  0.00    -0.301 A  
HETATM    4  C   UNL     1     -10.709  12.142  65.058  1.00  0.00    -0.297 A  
HETATM    5  C   UNL     1     -11.142  11.820  66.351  1.00  0.00    -0.360 A  
HETATM    6  C   UNL     1      -9.630   9.978  64.939  1.00  0.00    -0.375 A  
HETATM    7  C   UNL     1     -10.030   9.684  66.244  1.00  0.00    -0.335 A  
HETATM    8  C   UNL     1     -10.757  10.626  66.965  1.00  0.00    -0.317 A  
BRANCH   4   9
HETATM    9  O   UNL     1     -11.003  13.359  64.500  1.00  0.00    -0.353 OA 
HETATM   10  C   UNL     1     -12.396  13.629  64.348  1.00  0.00    -0.338 C  
ENDBRANCH   4   9
BRANCH   8  11
HETATM   11  C   UNL     1     -11.122  10.373  68.400  1.00  0.00    -0.322 C  
BRANCH  11  12
HETATM   12  C   UNL     1     -10.908  11.588  69.286  1.00  0.00    -0.167 C  
BRANCH  12  13
HETATM   13  O   UNL     1     -12.157  12.221  69.567  1.00  0.00    -0.273 OA 
BRANCH  13  14
HETATM   14  C   UNL     1     -12.153  13.164  70.658  1.00  0.00    -0.264 C  
HETATM   15  C   UNL     1     -13.277  12.845  71.655  1.00  0.00    -0.416 C  
HETATM   16  C   UNL     1     -13.488  13.939  72.691  1.00  0.00    -0.652 C  
HETATM   17  C   UNL     1     -13.692  15.279  72.001  1.00  0.00    -0.596 C  
HETATM   18  C   UNL     1     -12.423  15.668  71.246  1.00  0.00    -0.503 C  
HETATM   19  C   UNL     1     -12.095  14.645  70.149  1.00  0.00    -0.327 C  
BRANCH  19  20
HETATM   20  N   UNL     1     -10.854  14.853  69.365  1.00  0.00    -0.257 NA 
HETATM   21  C   UNL     1      -9.971  15.934  69.809  1.00  0.00    -0.211 C  
HETATM   22  C   UNL     1     -10.384  17.159  69.010  1.00  0.00    -0.331 C  
HETATM   23  C   UNL     1     -10.935  16.593  67.707  1.00  0.00    -0.234 C  
HETATM   24  C   UNL     1     -11.055  15.082  67.933  1.00  0.00    -0.307 C  
HETATM   25  O   UNL     1     -10.045  16.891  66.636  1.00  0.00    -0.281 OA 
HETATM   26  H   UNL     1     -10.389  16.537  65.824  1.00  0.00     0.000 HD 
ENDBRANCH  19  20
ENDBRANCH  13  14
ENDBRANCH  12  13
ENDBRANCH  11  12
ENDBRANCH   8  11
ENDBRANCH   2   3
TORSDOF 7
ENDMDL
MODEL       40
REMARK 921   NORMALIZED FREE ENERGY PREDICTED BY IDOCK:   -5.74 KCAL/MOL
REMARK 922        TOTAL FREE ENERGY PREDICTED BY IDOCK:   -9.02 KCAL/MOL
REMARK 923 INTER-LIGAND FREE ENERGY PREDICTED BY IDOCK:   -8.64 KCAL/MOL
REMARK 924 INTRA-LIGAND FREE ENERGY PREDICTED BY IDOCK:   -0.37 KCAL/MOL
REMARK 927      BINDING AFFINITY PREDICTED BY RF-SCORE:    0.00 PKD
ROOT
HETATM    1  C   UNL     1     -10.742   6.185  73.527  1.00  0.00    -0.244 C  
HETATM    2  O   UNL     1     -11.548   6.300  72.363  1.00  0.00    -0.291 OA 
ENDROOT
BRANCH   2   3
HETATM    3  C   UNL     1     -11.752   7.564  71.873  1.00  0.00    -0.284 A  
HETATM    4  C   UNL     1     -10.920   8.292  71.011  1.00  0.00    -0.245 A  
HETATM    5  C   UNL     1     -11.291   9.594  70.646  1.00  0.00    -0.379 A  
HETATM    6  C   UNL     1     -12.904   8.172  72.393  1.00  0.00    -0.199 A  
HETATM    7  C   UNL     1     -13.243   9.484  72.058  1.00  0.00    -0.539 A  
HETATM    8  C   UNL     1     -12.410  10.210  71.211  1.00  0.00    -0.501 A  
BRANCH   4   9
HETATM    9  O   UNL     1      -9.764   7.730  70.535  1.00  0.00    -0.175 OA 
HETATM   10  C   UNL     1      -9.364   8.184  69.242  1.00  0.00    -0.151 C  
ENDBRANCH   4   9
BRANCH   8  11
HETATM   11  C   UNL     1     -12.702  11.652  70.905  1.00  0.00    -0.351 C  
BRANCH  11  12
HETATM   12  C   UNL     1     -11.854  12.197  69.770  1.00  0.00    -0.327 C  
BRANCH  12  13
HETATM   13  O   UNL     1     -12.210  13.553  69.494  1.00  0.00    -0.304 OA 
BRANCH  13  14
HETATM   14  C   UNL     1     -11.186  14.358  68.876  1.00  0.00    -0.262 C  
HETATM   15  C   UNL     1     -10.622  15.380  69.876  1.00  0.00    -0.315 C  
HETATM   16  C   UNL     1      -9.723  16.421  69.226  1.00  0.00    -0.221 C  
HETATM   17  C   UNL     1     -10.450  17.088  68.068  1.00  0.00    -0.353 C  
HETATM   18  C   UNL     1     -10.737  16.057  66.979  1.00  0.00    -0.277 C  
HETATM   19  C   UNL     1     -11.654  14.941  67.499  1.00  0.00    -0.339 C  
BRANCH  19  20
HETATM   20  N   UNL     1     -11.977  13.829  66.573  1.00  0.00    -0.411 NA 
HETATM   21  C   UNL     1     -10.845  13.176  65.913  1.00  0.00    -0.273 C  
HETATM   22  C   UNL     1     -10.667  13.898  64.587  1.00  0.00    -0.422 C  
HETATM   23  C   UNL     1     -12.064  14.396  64.237  1.00  0.00    -0.436 C  
HETATM   24  C   UNL     1     -12.909  14.169  65.495  1.00  0.00    -0.376 C  
HETATM   25  O   UNL     1     -12.575  13.665  63.128  1.00  0.00    -0.969 OA 
HETATM   26  H   UNL     1     -13.446  13.976  62.910  1.00  0.00     0.000 HD 
ENDBRANCH  19  20
ENDBRANCH  13  14
ENDBRANCH  12  13
ENDBRANCH  11  12
ENDBRANCH   8  11
ENDBRANCH   2   3
TORSDOF 7
ENDMDL
MODEL       41
REMARK 921   NORMALIZED FREE ENERGY PREDICTED BY IDOCK:   -5.74 KCAL/MOL
REMARK 922        TOTAL FREE ENERGY PREDICTED BY IDOCK:   -9.01 KCAL/MOL
REMARK 923 INTER-LIGAND FREE ENERGY PREDICTED BY IDOCK:   -8.35 KCAL/MOL
REMARK 924 INTRA-LIGAND FREE ENERGY PREDICTED BY IDOCK:   -0.66 KCAL/MOL
REMARK 927      BINDING AFFINITY PREDICTED BY RF-SCORE:    0.00 PKD
ROOT
HETATM    1  C   UNL     1      -7.536   5.095  72.488  1.00  0.00    -0.097 C  
HETATM    2  O   UNL     1      -7.865   6.155  73.374  1.00  0.00    -0.100 OA 
ENDROOT
BRANCH   2   3
HETATM    3  C   UNL     1      -8.949   6.925  73.045  1.00  0.00    -0.126 A  
HETATM    4  C   UNL     1     -10.293   6.701  73.379  1.00  0.00    -0.275 A  
HETATM    5  C   UNL     1     -11.267   7.594  72.916  1.00  0.00    -0.426 A  
HETATM    6  C   UNL     1      -8.620   8.005  72.213  1.00  0.00    -0.212 A  
HETATM    7  C   UNL     1      -9.603   8.866  71.722  1.00  0.00    -0.353 A  
HETATM    8  C   UNL     1     -10.937   8.635  72.045  1.00  0.00    -0.432 A  
BRANCH   4   9
HETATM    9  O   UNL     1     -10.637   5.619  74.149  1.00  0.00    -0.272 OA 
HETATM   10  C   UNL     1     -11.181   4.516  73.425  1.00  0.00    -0.315 C  
ENDBRANCH   4   9
BRANCH   8  11
HETATM   11  C   UNL     1     -12.024   9.490  71.458  1.00  0.00    -0.475 C  
BRANCH  11  12
HETATM   12  C   UNL     1     -11.496  10.535  70.492  1.00  0.00    -0.345 C  
BRANCH  12  13
HETATM   13  O   UNL     1     -12.506  11.505  70.212  1.00  0.00    -0.267 OA 
BRANCH  13  14
HETATM   14  C   UNL     1     -12.355  12.779  70.870  1.00  0.00    -0.265 C  
HETATM   15  C   UNL     1     -13.358  12.914  72.026  1.00  0.00    -0.579 C  
HETATM   16  C   UNL     1     -13.424  14.321  72.601  1.00  0.00    -0.623 C  
HETATM   17  C   UNL     1     -13.686  15.327  71.489  1.00  0.00    -0.610 C  
HETATM   18  C   UNL     1     -12.510  15.336  70.516  1.00  0.00    -0.454 C  
HETATM   19  C   UNL     1     -12.332  13.965  69.846  1.00  0.00    -0.300 C  
BRANCH  19  20
HETATM   20  N   UNL     1     -11.190  13.798  68.916  1.00  0.00    -0.259 NA 
HETATM   21  C   UNL     1     -10.281  14.938  68.781  1.00  0.00    -0.243 C  
HETATM   22  C   UNL     1     -10.802  15.744  67.602  1.00  0.00    -0.310 C  
HETATM   23  C   UNL     1     -11.484  14.713  66.712  1.00  0.00    -0.364 C  
HETATM   24  C   UNL     1     -11.554  13.429  67.547  1.00  0.00    -0.344 C  
HETATM   25  O   UNL     1     -10.725  14.521  65.523  1.00  0.00    -0.304 OA 
HETATM   26  H   UNL     1     -11.152  13.877  64.968  1.00  0.00     0.000 HD 
ENDBRANCH  19  20
ENDBRANCH  13  14
ENDBRANCH  12  13
ENDBRANCH  11  12
ENDBRANCH   8  11
ENDBRANCH   2   3
TORSDOF 7
ENDMDL
MODEL       42
REMARK 921   NORMALIZED FREE ENERGY PREDICTED BY IDOCK:   -5.72 KCAL/MOL
REMARK 922        TOTAL FREE ENERGY PREDICTED BY IDOCK:   -8.98 KCAL/MOL
REMARK 923 INTER-LIGAND FREE ENERGY PREDICTED BY IDOCK:   -8.49 KCAL/MOL
REMARK 924 INTRA-LIGAND FREE ENERGY PREDICTED BY IDOCK:   -0.49 KCAL/MOL
REMARK 927      BINDING AFFINITY PREDICTED BY RF-SCORE:    0.00 PKD
ROOT
HETATM    1  C   UNL     1      -7.597   5.789  71.714  1.00  0.00    -0.096 C  
HETATM    2  O   UNL     1      -8.080   6.711  72.680  1.00  0.00    -0.102 OA 
ENDROOT
BRANCH   2   3
HETATM    3  C   UNL     1      -9.108   7.531  72.296  1.00  0.00    -0.137 A  
HETATM    4  C   UNL     1     -10.460   7.437  72.655  1.00  0.00    -0.255 A  
HETATM    5  C   UNL     1     -11.371   8.361  72.127  1.00  0.00    -0.437 A  
HETATM    6  C   UNL     1      -8.709   8.512  71.376  1.00  0.00    -0.237 A  
HETATM    7  C   UNL     1      -9.632   9.401  70.822  1.00  0.00    -0.322 A  
HETATM    8  C   UNL     1     -10.975   9.299  71.172  1.00  0.00    -0.409 A  
BRANCH   4   9
HETATM    9  O   UNL     1     -10.874   6.451  73.514  1.00  0.00    -0.260 OA 
HETATM   10  C   UNL     1     -11.384   5.278  72.880  1.00  0.00    -0.301 C  
ENDBRANCH   4   9
BRANCH   8  11
HETATM   11  C   UNL     1     -12.002  10.183  70.523  1.00  0.00    -0.400 C  
BRANCH  11  12
HETATM   12  C   UNL     1     -11.635  10.571  69.102  1.00  0.00    -0.224 C  
BRANCH  12  13
HETATM   13  O   UNL     1     -12.361  11.734  68.703  1.00  0.00    -0.335 OA 
BRANCH  13  14
HETATM   14  C   UNL     1     -11.728  12.998  68.985  1.00  0.00    -0.329 C  
HETATM   15  C   UNL     1     -12.101  13.490  70.392  1.00  0.00    -0.415 C  
HETATM   16  C   UNL     1     -11.674  14.926  70.658  1.00  0.00    -0.357 C  
HETATM   17  C   UNL     1     -12.209  15.840  69.566  1.00  0.00    -0.178 C  
HETATM   18  C   UNL     1     -11.579  15.466  68.227  1.00  0.00    -0.361 C  
HETATM   19  C   UNL     1     -11.942  14.029  67.824  1.00  0.00    -0.357 C  
BRANCH  19  20
HETATM   20  N   UNL     1     -11.354  13.497  66.572  1.00  0.00    -0.311 NA 
HETATM   21  C   UNL     1     -10.383  14.354  65.887  1.00  0.00    -0.314 C  
HETATM   22  C   UNL     1     -11.184  15.158  64.876  1.00  0.00    -0.424 C  
HETATM   23  C   UNL     1     -12.364  14.260  64.528  1.00  0.00    -0.410 C  
HETATM   24  C   UNL     1     -12.324  13.114  65.545  1.00  0.00    -0.474 C  
HETATM   25  O   UNL     1     -12.229  13.778  63.195  1.00  0.00    -1.048 OA 
HETATM   26  H   UNL     1     -12.965  13.218  62.978  1.00  0.00     0.000 HD 
ENDBRANCH  19  20
ENDBRANCH  13  14
ENDBRANCH  12  13
ENDBRANCH  11  12
ENDBRANCH   8  11
ENDBRANCH   2   3
TORSDOF 7
ENDMDL
MODEL       43
REMARK 921   NORMALIZED FREE ENERGY PREDICTED BY IDOCK:   -5.72 KCAL/MOL
REMARK 922        TOTAL FREE ENERGY PREDICTED BY IDOCK:   -8.98 KCAL/MOL
REMARK 923 INTER-LIGAND FREE ENERGY PREDICTED BY IDOCK:   -8.05 KCAL/MOL
REMARK 924 INTRA-LIGAND FREE ENERGY PREDICTED BY IDOCK:   -0.93 KCAL/MOL
REMARK 927      BINDING AFFINITY PREDICTED BY RF-SCORE:    0.00 PKD
ROOT
HETATM    1  C   UNL     1     -14.017   8.762  72.240  1.00  0.00    -0.447 C  
HETATM    2  O   UNL     1     -12.629   8.479  72.342  1.00  0.00    -0.374 OA 
ENDROOT
BRANCH   2   3
HETATM    3  C   UNL     1     -11.881   8.626  71.204  1.00  0.00    -0.287 A  
HETATM    4  C   UNL     1     -11.375   7.615  70.374  1.00  0.00    -0.219 A  
HETATM    5  C   UNL     1     -10.598   7.970  69.264  1.00  0.00    -0.193 A  
HETATM    6  C   UNL     1     -11.552   9.963  70.935  1.00  0.00    -0.456 A  
HETATM    7  C   UNL     1     -10.741  10.305  69.852  1.00  0.00    -0.344 A  
HETATM    8  C   UNL     1     -10.231   9.299  69.036  1.00  0.00    -0.217 A  
BRANCH   4   9
HETATM    9  O   UNL     1     -11.645   6.300  70.653  1.00  0.00    -0.353 OA 
HETATM   10  C   UNL     1     -10.635   5.626  71.403  1.00  0.00    -0.253 C  
ENDBRANCH   4   9
BRANCH   8  11
HETATM   11  C   UNL     1      -9.283   9.629  67.918  1.00  0.00    -0.134 C  
BRANCH  11  12
HETATM   12  C   UNL     1      -9.956   9.637  66.557  1.00  0.00    -0.246 C  
BRANCH  12  13
HETATM   13  O   UNL     1      -9.772  10.902  65.921  1.00  0.00    -0.205 OA 
BRANCH  13  14
HETATM   14  C   UNL     1     -10.976  11.595  65.537  1.00  0.00    -0.270 C  
HETATM   15  C   UNL     1     -11.216  11.470  64.025  1.00  0.00    -0.414 C  
HETATM   16  C   UNL     1     -12.324  12.379  63.516  1.00  0.00    -0.648 C  
HETATM   17  C   UNL     1     -12.057  13.815  63.941  1.00  0.00    -0.423 C  
HETATM   18  C   UNL     1     -12.107  13.920  65.463  1.00  0.00    -0.425 C  
HETATM   19  C   UNL     1     -11.022  13.051  66.115  1.00  0.00    -0.280 C  
BRANCH  19  20
HETATM   20  N   UNL     1     -10.980  13.000  67.596  1.00  0.00    -0.248 NA 
HETATM   21  C   UNL     1     -12.019  13.748  68.308  1.00  0.00    -0.357 C  
HETATM   22  C   UNL     1     -11.423  15.118  68.587  1.00  0.00    -0.341 C  
HETATM   23  C   UNL     1      -9.924  14.865  68.685  1.00  0.00    -0.224 C  
HETATM   24  C   UNL     1      -9.715  13.427  68.197  1.00  0.00    -0.226 C  
HETATM   25  O   UNL     1      -9.493  15.025  70.033  1.00  0.00    -0.462 OA 
HETATM   26  H   UNL     1      -8.558  14.867  70.094  1.00  0.00     0.000 HD 
ENDBRANCH  19  20
ENDBRANCH  13  14
ENDBRANCH  12  13
ENDBRANCH  11  12
ENDBRANCH   8  11
ENDBRANCH   2   3
TORSDOF 7
ENDMDL
MODEL       44
REMARK 921   NORMALIZED FREE ENERGY PREDICTED BY IDOCK:   -5.68 KCAL/MOL
REMARK 922        TOTAL FREE ENERGY PREDICTED BY IDOCK:   -8.93 KCAL/MOL
REMARK 923 INTER-LIGAND FREE ENERGY PREDICTED BY IDOCK:   -8.24 KCAL/MOL
REMARK 924 INTRA-LIGAND FREE ENERGY PREDICTED BY IDOCK:   -0.69 KCAL/MOL
REMARK 927      BINDING AFFINITY PREDICTED BY RF-SCORE:    0.00 PKD
ROOT
HETATM    1  C   UNL     1     -14.318   8.680  72.235  1.00  0.00    -0.396 C  
HETATM    2  O   UNL     1     -13.290   9.631  72.469  1.00  0.00    -0.390 OA 
ENDROOT
BRANCH   2   3
HETATM    3  C   UNL     1     -12.300   9.720  71.526  1.00  0.00    -0.405 A  
HETATM    4  C   UNL     1     -11.037   9.112  71.550  1.00  0.00    -0.365 A  
HETATM    5  C   UNL     1     -10.145   9.353  70.498  1.00  0.00    -0.335 A  
HETATM    6  C   UNL     1     -12.619  10.597  70.479  1.00  0.00    -0.433 A  
HETATM    7  C   UNL     1     -11.708  10.865  69.457  1.00  0.00    -0.400 A  
HETATM    8  C   UNL     1     -10.451  10.269  69.488  1.00  0.00    -0.268 A  
BRANCH   4   9
HETATM    9  O   UNL     1     -10.690   8.292  72.594  1.00  0.00    -0.343 OA 
HETATM   10  C   UNL     1     -11.119   6.937  72.460  1.00  0.00    -0.266 C  
ENDBRANCH   4   9
BRANCH   8  11
HETATM   11  C   UNL     1      -9.418  10.609  68.451  1.00  0.00    -0.165 C  
BRANCH  11  12
HETATM   12  C   UNL     1      -9.170  12.102  68.333  1.00  0.00    -0.154 C  
BRANCH  12  13
HETATM   13  O   UNL     1      -9.200  12.502  66.962  1.00  0.00    -0.200 OA 
BRANCH  13  14
HETATM   14  C   UNL     1     -10.407  13.157  66.525  1.00  0.00    -0.283 C  
HETATM   15  C   UNL     1     -11.358  12.152  65.857  1.00  0.00    -0.407 C  
HETATM   16  C   UNL     1     -12.533  12.815  65.153  1.00  0.00    -0.565 C  
HETATM   17  C   UNL     1     -12.029  13.868  64.178  1.00  0.00    -0.464 C  
HETATM   18  C   UNL     1     -11.327  14.986  64.945  1.00  0.00    -0.419 C  
HETATM   19  C   UNL     1     -10.101  14.455  65.701  1.00  0.00    -0.353 C  
BRANCH  19  20
HETATM   20  N   UNL     1      -9.346  15.412  66.545  1.00  0.00    -0.260 NA 
HETATM   21  C   UNL     1      -9.862  15.645  67.895  1.00  0.00    -0.217 C  
HETATM   22  C   UNL     1     -10.780  16.852  67.784  1.00  0.00    -0.315 C  
HETATM   23  C   UNL     1     -10.209  17.655  66.622  1.00  0.00    -0.341 C  
HETATM   24  C   UNL     1      -9.167  16.744  65.964  1.00  0.00    -0.201 C  
HETATM   25  O   UNL     1      -9.618  18.856  67.108  1.00  0.00    -0.295 OA 
HETATM   26  H   UNL     1      -9.262  19.357  66.383  1.00  0.00     0.000 HD 
ENDBRANCH  19  20
ENDBRANCH  13  14
ENDBRANCH  12  13
ENDBRANCH  11  12
ENDBRANCH   8  11
ENDBRANCH   2   3
TORSDOF 7
ENDMDL
MODEL       45
REMARK 921   NORMALIZED FREE ENERGY PREDICTED BY IDOCK:   -5.65 KCAL/MOL
REMARK 922        TOTAL FREE ENERGY PREDICTED BY IDOCK:   -8.89 KCAL/MOL
REMARK 923 INTER-LIGAND FREE ENERGY PREDICTED BY IDOCK:   -7.57 KCAL/MOL
REMARK 924 INTRA-LIGAND FREE ENERGY PREDICTED BY IDOCK:   -1.31 KCAL/MOL
REMARK 927      BINDING AFFINITY PREDICTED BY RF-SCORE:    0.00 PKD
ROOT
HETATM    1  C   UNL     1      -8.013  18.462  68.731  1.00  0.00    -0.256 C  
HETATM    2  O   UNL     1      -8.392  17.417  67.848  1.00  0.00    -0.220 OA 
ENDROOT
BRANCH   2   3
HETATM    3  C   UNL     1      -9.212  16.443  68.355  1.00  0.00    -0.217 A  
HETATM    4  C   UNL     1      -8.988  15.059  68.370  1.00  0.00    -0.179 A  
HETATM    5  C   UNL     1      -9.970  14.217  68.909  1.00  0.00    -0.160 A  
HETATM    6  C   UNL     1     -10.432  16.947  68.827  1.00  0.00    -0.343 A  
HETATM    7  C   UNL     1     -11.422  16.097  69.323  1.00  0.00    -0.304 A  
HETATM    8  C   UNL     1     -11.203  14.722  69.328  1.00  0.00    -0.303 A  
BRANCH   4   9
HETATM    9  O   UNL     1      -7.821  14.546  67.865  1.00  0.00    -0.122 OA 
HETATM   10  C   UNL     1      -6.823  14.250  68.841  1.00  0.00    -0.104 C  
ENDBRANCH   4   9
BRANCH   8  11
HETATM   11  C   UNL     1     -12.285  13.778  69.771  1.00  0.00    -0.368 C  
BRANCH  11  12
HETATM   12  C   UNL     1     -11.833  12.329  69.786  1.00  0.00    -0.318 C  
BRANCH  12  13
HETATM   13  O   UNL     1     -12.317  11.648  68.628  1.00  0.00    -0.394 OA 
BRANCH  13  14
HETATM   14  C   UNL     1     -11.333  10.915  67.871  1.00  0.00    -0.308 C  
HETATM   15  C   UNL     1     -10.258  10.332  68.802  1.00  0.00    -0.205 C  
HETATM   16  C   UNL     1      -9.062   9.764  68.053  1.00  0.00    -0.127 C  
HETATM   17  C   UNL     1      -8.497  10.809  67.102  1.00  0.00    -0.126 C  
HETATM   18  C   UNL     1      -9.531  11.142  66.030  1.00  0.00    -0.234 C  
HETATM   19  C   UNL     1     -10.801  11.742  66.651  1.00  0.00    -0.276 C  
BRANCH  19  20
HETATM   20  N   UNL     1     -11.926  12.063  65.740  1.00  0.00    -0.498 NA 
HETATM   21  C   UNL     1     -11.779  11.645  64.344  1.00  0.00    -0.143 C  
HETATM   22  C   UNL     1     -11.177  12.836  63.617  1.00  0.00    -0.482 C  
HETATM   23  C   UNL     1     -11.666  14.045  64.404  1.00  0.00    -0.397 C  
HETATM   24  C   UNL     1     -12.293  13.479  65.682  1.00  0.00    -0.476 C  
HETATM   25  O   UNL     1     -12.617  14.772  63.634  1.00  0.00    -1.014 OA 
HETATM   26  H   UNL     1     -12.922  15.526  64.125  1.00  0.00     0.000 HD 
ENDBRANCH  19  20
ENDBRANCH  13  14
ENDBRANCH  12  13
ENDBRANCH  11  12
ENDBRANCH   8  11
ENDBRANCH   2   3
TORSDOF 7
ENDMDL
MODEL       46
REMARK 921   NORMALIZED FREE ENERGY PREDICTED BY IDOCK:   -5.64 KCAL/MOL
REMARK 922        TOTAL FREE ENERGY PREDICTED BY IDOCK:   -8.87 KCAL/MOL
REMARK 923 INTER-LIGAND FREE ENERGY PREDICTED BY IDOCK:   -7.93 KCAL/MOL
REMARK 924 INTRA-LIGAND FREE ENERGY PREDICTED BY IDOCK:   -0.94 KCAL/MOL
REMARK 927      BINDING AFFINITY PREDICTED BY RF-SCORE:    0.00 PKD
ROOT
HETATM    1  C   UNL     1      -6.604  18.890  68.635  1.00  0.00    -0.264 C  
HETATM    2  O   UNL     1      -7.199  17.884  67.829  1.00  0.00    -0.202 OA 
ENDROOT
BRANCH   2   3
HETATM    3  C   UNL     1      -8.262  17.206  68.367  1.00  0.00    -0.253 A  
HETATM    4  C   UNL     1      -8.300  15.872  68.795  1.00  0.00    -0.206 A  
HETATM    5  C   UNL     1      -9.502  15.349  69.290  1.00  0.00    -0.261 A  
HETATM    6  C   UNL     1      -9.439  17.968  68.392  1.00  0.00    -0.314 A  
HETATM    7  C   UNL     1     -10.643  17.426  68.846  1.00  0.00    -0.243 A  
HETATM    8  C   UNL     1     -10.680  16.098  69.261  1.00  0.00    -0.295 A  
BRANCH   4   9
HETATM    9  O   UNL     1      -7.169  15.098  68.729  1.00  0.00    -0.115 OA 
HETATM   10  C   UNL     1      -6.373  15.096  69.913  1.00  0.00    -0.164 C  
ENDBRANCH   4   9
BRANCH   8  11
HETATM   11  C   UNL     1     -11.978  15.462  69.669  1.00  0.00    -0.366 C  
BRANCH  11  12
HETATM   12  C   UNL     1     -11.787  14.140  70.390  1.00  0.00    -0.297 C  
BRANCH  12  13
HETATM   13  O   UNL     1     -12.281  13.064  69.590  1.00  0.00    -0.255 OA 
BRANCH  13  14
HETATM   14  C   UNL     1     -11.294  12.127  69.116  1.00  0.00    -0.276 C  
HETATM   15  C   UNL     1     -11.005  12.353  67.623  1.00  0.00    -0.276 C  
HETATM   16  C   UNL     1     -10.165  11.247  67.002  1.00  0.00    -0.250 C  
HETATM   17  C   UNL     1     -10.806   9.894  67.267  1.00  0.00    -0.268 C  
HETATM   18  C   UNL     1     -10.810   9.611  68.767  1.00  0.00    -0.199 C  
HETATM   19  C   UNL     1     -11.641  10.656  69.527  1.00  0.00    -0.288 C  
BRANCH  19  20
HETATM   20  N   UNL     1     -11.692  10.551  71.005  1.00  0.00    -0.327 NA 
HETATM   21  C   UNL     1     -11.148   9.326  71.594  1.00  0.00    -0.368 C  
HETATM   22  C   UNL     1     -12.327   8.376  71.736  1.00  0.00    -0.375 C  
HETATM   23  C   UNL     1     -13.531   9.293  71.909  1.00  0.00    -0.430 C  
HETATM   24  C   UNL     1     -13.024  10.704  71.592  1.00  0.00    -0.477 C  
HETATM   25  O   UNL     1     -14.022   9.202  73.242  1.00  0.00    -1.164 OA 
HETATM   26  H   UNL     1     -14.773   9.774  73.349  1.00  0.00     0.000 HD 
ENDBRANCH  19  20
ENDBRANCH  13  14
ENDBRANCH  12  13
ENDBRANCH  11  12
ENDBRANCH   8  11
ENDBRANCH   2   3
TORSDOF 7
ENDMDL
MODEL       47
REMARK 921   NORMALIZED FREE ENERGY PREDICTED BY IDOCK:   -5.62 KCAL/MOL
REMARK 922        TOTAL FREE ENERGY PREDICTED BY IDOCK:   -8.84 KCAL/MOL
REMARK 923 INTER-LIGAND FREE ENERGY PREDICTED BY IDOCK:   -8.16 KCAL/MOL
REMARK 924 INTRA-LIGAND FREE ENERGY PREDICTED BY IDOCK:   -0.68 KCAL/MOL
REMARK 927      BINDING AFFINITY PREDICTED BY RF-SCORE:    0.00 PKD
ROOT
HETATM    1  C   UNL     1     -11.092  15.924  69.918  1.00  0.00    -0.343 C  
HETATM    2  O   UNL     1     -12.214  15.733  70.767  1.00  0.00    -0.391 OA 
ENDROOT
BRANCH   2   3
HETATM    3  C   UNL     1     -12.559  14.439  71.058  1.00  0.00    -0.349 A  
HETATM    4  C   UNL     1     -13.234  13.966  72.192  1.00  0.00    -0.444 A  
HETATM    5  C   UNL     1     -13.467  12.591  72.321  1.00  0.00    -0.490 A  
HETATM    6  C   UNL     1     -12.086  13.521  70.108  1.00  0.00    -0.425 A  
HETATM    7  C   UNL     1     -12.285  12.149  70.267  1.00  0.00    -0.344 A  
HETATM    8  C   UNL     1     -12.945  11.681  71.399  1.00  0.00    -0.426 A  
BRANCH   4   9
HETATM    9  O   UNL     1     -13.658  14.846  73.155  1.00  0.00    -0.520 OA 
HETATM   10  C   UNL     1     -12.621  15.382  73.976  1.00  0.00    -0.598 C  
ENDBRANCH   4   9
BRANCH   8  11
HETATM   11  C   UNL     1     -13.094  10.205  71.641  1.00  0.00    -0.550 C  
BRANCH  11  12
HETATM   12  C   UNL     1     -11.763   9.476  71.674  1.00  0.00    -0.390 C  
BRANCH  12  13
HETATM   13  O   UNL     1     -11.569   8.747  70.461  1.00  0.00    -0.244 OA 
BRANCH  13  14
HETATM   14  C   UNL     1     -10.209   8.663  69.989  1.00  0.00    -0.194 C  
HETATM   15  C   UNL     1      -9.237   8.477  71.165  1.00  0.00    -0.248 C  
HETATM   16  C   UNL     1      -7.777   8.631  70.765  1.00  0.00    -0.091 C  
HETATM   17  C   UNL     1      -7.569   9.957  70.048  1.00  0.00    -0.179 C  
HETATM   18  C   UNL     1      -8.355   9.963  68.740  1.00  0.00    -0.116 C  
HETATM   19  C   UNL     1      -9.863   9.825  68.997  1.00  0.00    -0.181 C  
BRANCH  19  20
HETATM   20  N   UNL     1     -10.758   9.754  67.817  1.00  0.00    -0.271 NA 
HETATM   21  C   UNL     1     -10.571   8.612  66.920  1.00  0.00    -0.200 C  
HETATM   22  C   UNL     1      -9.603   9.083  65.846  1.00  0.00    -0.317 C  
HETATM   23  C   UNL     1      -9.845  10.584  65.753  1.00  0.00    -0.237 C  
HETATM   24  C   UNL     1     -10.736  10.934  66.950  1.00  0.00    -0.264 C  
HETATM   25  O   UNL     1     -10.484  10.896  64.519  1.00  0.00    -0.346 OA 
HETATM   26  H   UNL     1     -10.635  11.832  64.461  1.00  0.00     0.000 HD 
ENDBRANCH  19  20
ENDBRANCH  13  14
ENDBRANCH  12  13
ENDBRANCH  11  12
ENDBRANCH   8  11
ENDBRANCH   2   3
TORSDOF 7
ENDMDL
MODEL       48
REMARK 921   NORMALIZED FREE ENERGY PREDICTED BY IDOCK:   -5.60 KCAL/MOL
REMARK 922        TOTAL FREE ENERGY PREDICTED BY IDOCK:   -8.82 KCAL/MOL
REMARK 923 INTER-LIGAND FREE ENERGY PREDICTED BY IDOCK:   -8.23 KCAL/MOL
REMARK 924 INTRA-LIGAND FREE ENERGY PREDICTED BY IDOCK:   -0.59 KCAL/MOL
REMARK 927      BINDING AFFINITY PREDICTED BY RF-SCORE:    0.00 PKD
ROOT
HETATM    1  C   UNL     1     -13.218  11.083  71.888  1.00  0.00    -0.398 C  
HETATM    2  O   UNL     1     -13.552  12.411  72.263  1.00  0.00    -0.504 OA 
ENDROOT
BRANCH   2   3
HETATM    3  C   UNL     1     -13.022  13.422  71.505  1.00  0.00    -0.341 A  
HETATM    4  C   UNL     1     -13.109  14.802  71.737  1.00  0.00    -0.336 A  
HETATM    5  C   UNL     1     -12.522  15.684  70.821  1.00  0.00    -0.484 A  
HETATM    6  C   UNL     1     -12.400  12.960  70.336  1.00  0.00    -0.333 A  
HETATM    7  C   UNL     1     -11.856  13.849  69.407  1.00  0.00    -0.384 A  
HETATM    8  C   UNL     1     -11.953  15.218  69.634  1.00  0.00    -0.364 A  
BRANCH   4   9
HETATM    9  O   UNL     1     -13.759  15.271  72.850  1.00  0.00    -0.478 OA 
HETATM   10  C   UNL     1     -12.909  15.835  73.849  1.00  0.00    -0.541 C  
ENDBRANCH   4   9
BRANCH   8  11
HETATM   11  C   UNL     1     -11.457  16.199  68.609  1.00  0.00    -0.340 C  
BRANCH  11  12
HETATM   12  C   UNL     1     -11.185  15.556  67.261  1.00  0.00    -0.226 C  
BRANCH  12  13
HETATM   13  O   UNL     1      -9.779  15.461  67.033  1.00  0.00    -0.219 OA 
BRANCH  13  14
HETATM   14  C   UNL     1      -9.129  14.299  67.587  1.00  0.00    -0.192 C  
HETATM   15  C   UNL     1      -7.865  14.703  68.362  1.00  0.00    -0.131 C  
HETATM   16  C   UNL     1      -7.000  13.515  68.757  1.00  0.00    -0.102 C  
HETATM   17  C   UNL     1      -6.681  12.671  67.533  1.00  0.00    -0.156 C  
HETATM   18  C   UNL     1      -7.968  12.072  66.972  1.00  0.00    -0.150 C  
HETATM   19  C   UNL     1      -8.940  13.170  66.516  1.00  0.00    -0.059 C  
BRANCH  19  20
HETATM   20  N   UNL     1     -10.264  12.747  66.001  1.00  0.00    -0.273 NA 
HETATM   21  C   UNL     1     -10.595  11.326  66.134  1.00  0.00    -0.258 C  
HETATM   22  C   UNL     1     -10.158  10.677  64.831  1.00  0.00    -0.402 C  
HETATM   23  C   UNL     1     -10.278  11.789  63.796  1.00  0.00    -0.399 C  
HETATM   24  C   UNL     1     -10.517  13.073  64.596  1.00  0.00    -0.380 C  
HETATM   25  O   UNL     1     -11.362  11.515  62.914  1.00  0.00    -0.776 OA 
HETATM   26  H   UNL     1     -11.437  12.209  62.269  1.00  0.00     0.000 HD 
ENDBRANCH  19  20
ENDBRANCH  13  14
ENDBRANCH  12  13
ENDBRANCH  11  12
ENDBRANCH   8  11
ENDBRANCH   2   3
TORSDOF 7
ENDMDL
MODEL       49
REMARK 921   NORMALIZED FREE ENERGY PREDICTED BY IDOCK:   -5.58 KCAL/MOL
REMARK 922        TOTAL FREE ENERGY PREDICTED BY IDOCK:   -8.79 KCAL/MOL
REMARK 923 INTER-LIGAND FREE ENERGY PREDICTED BY IDOCK:   -8.43 KCAL/MOL
REMARK 924 INTRA-LIGAND FREE ENERGY PREDICTED BY IDOCK:   -0.36 KCAL/MOL
REMARK 927      BINDING AFFINITY PREDICTED BY RF-SCORE:    0.00 PKD
ROOT
HETATM    1  C   UNL     1      -9.245   7.763  72.975  1.00  0.00    -0.226 C  
HETATM    2  O   UNL     1     -10.649   7.854  72.785  1.00  0.00    -0.299 OA 
ENDROOT
BRANCH   2   3
HETATM    3  C   UNL     1     -11.099   8.831  71.937  1.00  0.00    -0.364 A  
HETATM    4  C   UNL     1     -12.390   9.374  71.863  1.00  0.00    -0.375 A  
HETATM    5  C   UNL     1     -12.663  10.351  70.897  1.00  0.00    -0.477 A  
HETATM    6  C   UNL     1     -10.129   9.238  71.009  1.00  0.00    -0.373 A  
HETATM    7  C   UNL     1     -10.422  10.181  70.023  1.00  0.00    -0.325 A  
HETATM    8  C   UNL     1     -11.707  10.711  69.944  1.00  0.00    -0.395 A  
BRANCH   4   9
HETATM    9  O   UNL     1     -13.364   8.949  72.730  1.00  0.00    -0.405 OA 
HETATM   10  C   UNL     1     -14.355   8.102  72.150  1.00  0.00    -0.372 C  
ENDBRANCH   4   9
BRANCH   8  11
HETATM   11  C   UNL     1     -12.076  11.659  68.838  1.00  0.00    -0.253 C  
BRANCH  11  12
HETATM   12  C   UNL     1     -11.236  12.923  68.839  1.00  0.00    -0.279 C  
BRANCH  12  13
HETATM   13  O   UNL     1     -12.059  14.065  68.599  1.00  0.00    -0.351 OA 
BRANCH  13  14
HETATM   14  C   UNL     1     -11.880  14.712  67.323  1.00  0.00    -0.351 C  
HETATM   15  C   UNL     1     -12.559  13.905  66.205  1.00  0.00    -0.376 C  
HETATM   16  C   UNL     1     -12.199  14.393  64.810  1.00  0.00    -0.458 C  
HETATM   17  C   UNL     1     -10.687  14.444  64.649  1.00  0.00    -0.357 C  
HETATM   18  C   UNL     1     -10.101  15.477  65.608  1.00  0.00    -0.406 C  
HETATM   19  C   UNL     1     -10.382  15.099  67.070  1.00  0.00    -0.271 C  
BRANCH  19  20
HETATM   20  N   UNL     1      -9.927  16.038  68.123  1.00  0.00    -0.225 NA 
HETATM   21  C   UNL     1     -10.881  17.067  68.540  1.00  0.00    -0.310 C  
HETATM   22  C   UNL     1     -10.583  18.282  67.677  1.00  0.00    -0.427 C  
HETATM   23  C   UNL     1      -9.099  18.160  67.353  1.00  0.00    -0.253 C  
HETATM   24  C   UNL     1      -8.689  16.759  67.818  1.00  0.00    -0.210 C  
HETATM   25  O   UNL     1      -8.369  19.171  68.040  1.00  0.00    -0.286 OA 
HETATM   26  H   UNL     1      -7.444  19.095  67.838  1.00  0.00     0.000 HD 
ENDBRANCH  19  20
ENDBRANCH  13  14
ENDBRANCH  12  13
ENDBRANCH  11  12
ENDBRANCH   8  11
ENDBRANCH   2   3
TORSDOF 7
ENDMDL
MODEL       50
REMARK 921   NORMALIZED FREE ENERGY PREDICTED BY IDOCK:   -5.56 KCAL/MOL
REMARK 922        TOTAL FREE ENERGY PREDICTED BY IDOCK:   -8.76 KCAL/MOL
REMARK 923 INTER-LIGAND FREE ENERGY PREDICTED BY IDOCK:   -7.92 KCAL/MOL
REMARK 924 INTRA-LIGAND FREE ENERGY PREDICTED BY IDOCK:   -0.84 KCAL/MOL
REMARK 927      BINDING AFFINITY PREDICTED BY RF-SCORE:    0.00 PKD
ROOT
HETATM    1  C   UNL     1     -12.037  15.558  64.208  1.00  0.00    -0.116 C  
HETATM    2  O   UNL     1     -12.832  14.458  64.625  1.00  0.00    -0.643 OA 
ENDROOT
BRANCH   2   3
HETATM    3  C   UNL     1     -12.168  13.320  65.002  1.00  0.00    -0.432 A  
HETATM    4  C   UNL     1     -11.855  12.902  66.303  1.00  0.00    -0.416 A  
HETATM    5  C   UNL     1     -11.135  11.714  66.481  1.00  0.00    -0.357 A  
HETATM    6  C   UNL     1     -11.707  12.570  63.910  1.00  0.00    -0.530 A  
HETATM    7  C   UNL     1     -10.953  11.410  64.097  1.00  0.00    -0.411 A  
HETATM    8  C   UNL     1     -10.635  11.002  65.389  1.00  0.00    -0.270 A  
BRANCH   4   9
HETATM    9  O   UNL     1     -12.254  13.653  67.379  1.00  0.00    -0.350 OA 
HETATM   10  C   UNL     1     -11.639  13.299  68.618  1.00  0.00    -0.327 C  
ENDBRANCH   4   9
BRANCH   8  11
HETATM   11  C   UNL     1      -9.750   9.810  65.617  1.00  0.00    -0.357 C  
BRANCH  11  12
HETATM   12  C   UNL     1     -10.231   8.927  66.755  1.00  0.00    -0.278 C  
BRANCH  12  13
HETATM   13  O   UNL     1      -9.356   9.045  67.877  1.00  0.00    -0.140 OA 
BRANCH  13  14
HETATM   14  C   UNL     1      -9.287   7.896  68.745  1.00  0.00    -0.146 C  
HETATM   15  C   UNL     1      -8.992   6.623  67.937  1.00  0.00    -0.112 C  
HETATM   16  C   UNL     1      -9.153   5.347  68.749  1.00  0.00    -0.135 C  
HETATM   17  C   UNL     1     -10.528   5.312  69.399  1.00  0.00    -0.284 C  
HETATM   18  C   UNL     1     -10.651   6.455  70.403  1.00  0.00    -0.294 C  
HETATM   19  C   UNL     1     -10.519   7.819  69.711  1.00  0.00    -0.233 C  
BRANCH  19  20
HETATM   20  N   UNL     1     -10.557   9.030  70.565  1.00  0.00    -0.213 NA 
HETATM   21  C   UNL     1     -10.786   8.817  71.995  1.00  0.00    -0.358 C  
HETATM   22  C   UNL     1     -12.289   8.932  72.195  1.00  0.00    -0.449 C  
HETATM   23  C   UNL     1     -12.745   9.878  71.091  1.00  0.00    -0.366 C  
HETATM   24  C   UNL     1     -11.537  10.042  70.163  1.00  0.00    -0.252 C  
HETATM   25  O   UNL     1     -13.143  11.123  71.655  1.00  0.00    -0.449 OA 
HETATM   26  H   UNL     1     -13.427  11.713  70.966  1.00  0.00     0.000 HD 
ENDBRANCH  19  20
ENDBRANCH  13  14
ENDBRANCH  12  13
ENDBRANCH  11  12
ENDBRANCH   8  11
ENDBRANCH   2   3
TORSDOF 7
ENDMDL
MODEL       51
REMARK 921   NORMALIZED FREE ENERGY PREDICTED BY IDOCK:   -5.55 KCAL/MOL
REMARK 922        TOTAL FREE ENERGY PREDICTED BY IDOCK:   -8.74 KCAL/MOL
REMARK 923 INTER-LIGAND FREE ENERGY PREDICTED BY IDOCK:   -8.24 KCAL/MOL
REMARK 924 INTRA-LIGAND FREE ENERGY PREDICTED BY IDOCK:   -0.50 KCAL/MOL
REMARK 927      BINDING AFFINITY PREDICTED BY RF-SCORE:    0.00 PKD
ROOT
HETATM    1  C   UNL     1      -8.454  17.571  66.148  1.00  0.00    -0.142 C  
HETATM    2  O   UNL     1      -9.057  16.359  65.718  1.00  0.00    -0.465 OA 
ENDROOT
BRANCH   2   3
HETATM    3  C   UNL     1      -9.931  15.759  66.586  1.00  0.00    -0.257 A  
HETATM    4  C   UNL     1     -11.064  14.996  66.270  1.00  0.00    -0.334 A  
HETATM    5  C   UNL     1     -11.856  14.490  67.310  1.00  0.00    -0.419 A  
HETATM    6  C   UNL     1      -9.647  16.042  67.930  1.00  0.00    -0.219 A  
HETATM    7  C   UNL     1     -10.465  15.570  68.958  1.00  0.00    -0.231 A  
HETATM    8  C   UNL     1     -11.596  14.822  68.641  1.00  0.00    -0.345 A  
BRANCH   4   9
HETATM    9  O   UNL     1     -11.385  14.753  64.959  1.00  0.00    -0.358 OA 
HETATM   10  C   UNL     1     -11.237  13.395  64.547  1.00  0.00    -0.372 C  
ENDBRANCH   4   9
BRANCH   8  11
HETATM   11  C   UNL     1     -12.543  14.377  69.719  1.00  0.00    -0.159 C  
BRANCH  11  12
HETATM   12  C   UNL     1     -12.063  13.138  70.452  1.00  0.00    -0.317 C  
BRANCH  12  13
HETATM   13  O   UNL     1     -12.327  11.969  69.675  1.00  0.00    -0.159 OA 
BRANCH  13  14
HETATM   14  C   UNL     1     -11.180  11.162  69.342  1.00  0.00    -0.270 C  
HETATM   15  C   UNL     1     -10.802  11.339  67.863  1.00  0.00    -0.278 C  
HETATM   16  C   UNL     1      -9.764  10.334  67.386  1.00  0.00    -0.189 C  
HETATM   17  C   UNL     1     -10.225   8.919  67.699  1.00  0.00    -0.296 C  
HETATM   18  C   UNL     1     -10.314   8.729  69.211  1.00  0.00    -0.221 C  
HETATM   19  C   UNL     1     -11.347   9.683  69.831  1.00  0.00    -0.159 C  
BRANCH  19  20
HETATM   20  N   UNL     1     -11.506   9.660  71.304  1.00  0.00    -0.369 NA 
HETATM   21  C   UNL     1     -11.209   8.393  71.976  1.00  0.00    -0.334 C  
HETATM   22  C   UNL     1     -12.535   7.656  72.072  1.00  0.00    -0.301 C  
HETATM   23  C   UNL     1     -13.580   8.763  72.126  1.00  0.00    -0.435 C  
HETATM   24  C   UNL     1     -12.828  10.056  71.792  1.00  0.00    -0.446 C  
HETATM   25  O   UNL     1     -14.161   8.819  73.425  1.00  0.00    -1.167 OA 
HETATM   26  H   UNL     1     -14.812   9.510  73.458  1.00  0.00     0.000 HD 
ENDBRANCH  19  20
ENDBRANCH  13  14
ENDBRANCH  12  13
ENDBRANCH  11  12
ENDBRANCH   8  11
ENDBRANCH   2   3
TORSDOF 7
ENDMDL
MODEL       52
REMARK 921   NORMALIZED FREE ENERGY PREDICTED BY IDOCK:   -5.55 KCAL/MOL
REMARK 922        TOTAL FREE ENERGY PREDICTED BY IDOCK:   -8.74 KCAL/MOL
REMARK 923 INTER-LIGAND FREE ENERGY PREDICTED BY IDOCK:   -7.84 KCAL/MOL
REMARK 924 INTRA-LIGAND FREE ENERGY PREDICTED BY IDOCK:   -0.90 KCAL/MOL
REMARK 927      BINDING AFFINITY PREDICTED BY RF-SCORE:    0.00 PKD
ROOT
HETATM    1  C   UNL     1     -12.217  14.939  64.336  1.00  0.00    -0.381 C  
HETATM    2  O   UNL     1     -12.346  13.557  64.034  1.00  0.00    -0.604 OA 
ENDROOT
BRANCH   2   3
HETATM    3  C   UNL     1     -11.673  12.680  64.843  1.00  0.00    -0.353 A  
HETATM    4  C   UNL     1     -10.873  11.597  64.454  1.00  0.00    -0.339 A  
HETATM    5  C   UNL     1     -10.291  10.790  65.441  1.00  0.00    -0.315 A  
HETATM    6  C   UNL     1     -11.916  12.898  66.207  1.00  0.00    -0.472 A  
HETATM    7  C   UNL     1     -11.368  12.063  67.183  1.00  0.00    -0.396 A  
HETATM    8  C   UNL     1     -10.582  10.982  66.793  1.00  0.00    -0.317 A  
BRANCH   4   9
HETATM    9  O   UNL     1     -10.667  11.339  63.122  1.00  0.00    -0.285 OA 
HETATM   10  C   UNL     1      -9.309  11.086  62.763  1.00  0.00    -0.346 C  
ENDBRANCH   4   9
BRANCH   8  11
HETATM   11  C   UNL     1     -10.054  10.015  67.815  1.00  0.00    -0.222 C  
BRANCH  11  12
HETATM   12  C   UNL     1      -9.342  10.704  68.966  1.00  0.00    -0.180 C  
BRANCH  12  13
HETATM   13  O   UNL     1      -9.697  10.090  70.205  1.00  0.00    -0.212 OA 
BRANCH  13  14
HETATM   14  C   UNL     1     -11.056   9.619  70.308  1.00  0.00    -0.276 C  
HETATM   15  C   UNL     1     -11.944  10.669  70.994  1.00  0.00    -0.442 C  
HETATM   16  C   UNL     1     -13.324  10.141  71.357  1.00  0.00    -0.413 C  
HETATM   17  C   UNL     1     -13.196   8.868  72.179  1.00  0.00    -0.478 C  
HETATM   18  C   UNL     1     -12.548   7.773  71.335  1.00  0.00    -0.339 C  
HETATM   19  C   UNL     1     -11.128   8.171  70.904  1.00  0.00    -0.258 C  
BRANCH  19  20
HETATM   20  N   UNL     1     -10.389   7.234  70.025  1.00  0.00    -0.208 NA 
HETATM   21  C   UNL     1     -10.998   5.921  69.806  1.00  0.00    -0.382 C  
HETATM   22  C   UNL     1     -10.403   5.007  70.864  1.00  0.00    -0.260 C  
HETATM   23  C   UNL     1      -9.026   5.598  71.142  1.00  0.00    -0.138 C  
HETATM   24  C   UNL     1      -9.010   6.957  70.435  1.00  0.00    -0.152 C  
HETATM   25  O   UNL     1      -8.016   4.733  70.633  1.00  0.00    -0.071 OA 
HETATM   26  H   UNL     1      -7.158   5.102  70.806  1.00  0.00     0.000 HD 
ENDBRANCH  19  20
ENDBRANCH  13  14
ENDBRANCH  12  13
ENDBRANCH  11  12
ENDBRANCH   8  11
ENDBRANCH   2   3
TORSDOF 7
ENDMDL
MODEL       53
REMARK 921   NORMALIZED FREE ENERGY PREDICTED BY IDOCK:   -5.52 KCAL/MOL
REMARK 922        TOTAL FREE ENERGY PREDICTED BY IDOCK:   -8.71 KCAL/MOL
REMARK 923 INTER-LIGAND FREE ENERGY PREDICTED BY IDOCK:   -7.72 KCAL/MOL
REMARK 924 INTRA-LIGAND FREE ENERGY PREDICTED BY IDOCK:   -0.99 KCAL/MOL
REMARK 927      BINDING AFFINITY PREDICTED BY RF-SCORE:    0.00 PKD
ROOT
HETATM    1  C   UNL     1     -11.531  14.357  67.528  1.00  0.00    -0.349 C  
HETATM    2  O   UNL     1     -11.533  14.530  68.937  1.00  0.00    -0.267 OA 
ENDROOT
BRANCH   2   3
HETATM    3  C   UNL     1     -11.979  13.477  69.691  1.00  0.00    -0.337 A  
HETATM    4  C   UNL     1     -12.577  13.523  70.958  1.00  0.00    -0.359 A  
HETATM    5  C   UNL     1     -12.938  12.323  71.585  1.00  0.00    -0.416 A  
HETATM    6  C   UNL     1     -11.707  12.231  69.106  1.00  0.00    -0.377 A  
HETATM    7  C   UNL     1     -12.031  11.040  69.756  1.00  0.00    -0.428 A  
HETATM    8  C   UNL     1     -12.614  11.088  71.019  1.00  0.00    -0.512 A  
BRANCH   4   9
HETATM    9  O   UNL     1     -12.803  14.731  71.567  1.00  0.00    -0.298 OA 
HETATM   10  C   UNL     1     -14.032  14.819  72.287  1.00  0.00    -0.496 C  
ENDBRANCH   4   9
BRANCH   8  11
HETATM   11  C   UNL     1     -12.891   9.823  71.781  1.00  0.00    -0.530 C  
BRANCH  11  12
HETATM   12  C   UNL     1     -11.628   9.053  72.124  1.00  0.00    -0.278 C  
BRANCH  12  13
HETATM   13  O   UNL     1     -11.428   7.990  71.191  1.00  0.00    -0.268 OA 
BRANCH  13  14
HETATM   14  C   UNL     1     -10.142   7.959  70.540  1.00  0.00    -0.192 C  
HETATM   15  C   UNL     1      -9.238   9.082  71.070  1.00  0.00    -0.331 C  
HETATM   16  C   UNL     1      -7.966   9.262  70.255  1.00  0.00    -0.155 C  
HETATM   17  C   UNL     1      -8.310   9.444  68.785  1.00  0.00    -0.117 C  
HETATM   18  C   UNL     1      -8.963   8.174  68.248  1.00  0.00    -0.136 C  
HETATM   19  C   UNL     1     -10.279   7.874  68.981  1.00  0.00    -0.209 C  
BRANCH  19  20
HETATM   20  N   UNL     1     -11.004   6.635  68.612  1.00  0.00    -0.263 NA 
HETATM   21  C   UNL     1     -10.398   5.370  69.034  1.00  0.00    -0.212 C  
HETATM   22  C   UNL     1      -9.536   4.916  67.867  1.00  0.00    -0.172 C  
HETATM   23  C   UNL     1     -10.221   5.504  66.640  1.00  0.00    -0.235 C  
HETATM   24  C   UNL     1     -11.275   6.476  67.182  1.00  0.00    -0.235 C  
HETATM   25  O   UNL     1     -10.818   4.463  65.873  1.00  0.00    -0.547 OA 
HETATM   26  H   UNL     1     -11.245   4.830  65.108  1.00  0.00     0.000 HD 
ENDBRANCH  19  20
ENDBRANCH  13  14
ENDBRANCH  12  13
ENDBRANCH  11  12
ENDBRANCH   8  11
ENDBRANCH   2   3
TORSDOF 7
ENDMDL
MODEL       54
REMARK 921   NORMALIZED FREE ENERGY PREDICTED BY IDOCK:   -5.51 KCAL/MOL
REMARK 922        TOTAL FREE ENERGY PREDICTED BY IDOCK:   -8.68 KCAL/MOL
REMARK 923 INTER-LIGAND FREE ENERGY PREDICTED BY IDOCK:   -7.81 KCAL/MOL
REMARK 924 INTRA-LIGAND FREE ENERGY PREDICTED BY IDOCK:   -0.88 KCAL/MOL
REMARK 927      BINDING AFFINITY PREDICTED BY RF-SCORE:    0.00 PKD
ROOT
HETATM    1  C   UNL     1     -12.828  11.870  63.348  1.00  0.00    -0.256 C  
HETATM    2  O   UNL     1     -13.042  12.356  64.665  1.00  0.00    -0.825 OA 
ENDROOT
BRANCH   2   3
HETATM    3  C   UNL     1     -11.930  12.716  65.381  1.00  0.00    -0.446 A  
HETATM    4  C   UNL     1     -11.266  13.950  65.367  1.00  0.00    -0.306 A  
HETATM    5  C   UNL     1     -10.117  14.114  66.153  1.00  0.00    -0.324 A  
HETATM    6  C   UNL     1     -11.401  11.660  66.136  1.00  0.00    -0.275 A  
HETATM    7  C   UNL     1     -10.232  11.819  66.883  1.00  0.00    -0.236 A  
HETATM    8  C   UNL     1      -9.567  13.041  66.859  1.00  0.00    -0.243 A  
BRANCH   4   9
HETATM    9  O   UNL     1     -11.742  14.978  64.593  1.00  0.00    -0.414 OA 
HETATM   10  C   UNL     1     -11.019  16.203  64.713  1.00  0.00    -0.313 C  
ENDBRANCH   4   9
BRANCH   8  11
HETATM   11  C   UNL     1      -8.260  13.214  67.579  1.00  0.00    -0.183 C  
BRANCH  11  12
HETATM   12  C   UNL     1      -7.603  14.553  67.297  1.00  0.00    -0.121 C  
BRANCH  12  13
HETATM   13  O   UNL     1      -7.404  15.273  68.514  1.00  0.00    -0.112 OA 
BRANCH  13  14
HETATM   14  C   UNL     1      -8.484  16.139  68.917  1.00  0.00    -0.241 C  
HETATM   15  C   UNL     1      -9.574  15.343  69.651  1.00  0.00    -0.233 C  
HETATM   16  C   UNL     1     -10.848  16.142  69.881  1.00  0.00    -0.355 C  
HETATM   17  C   UNL     1     -11.344  16.723  68.566  1.00  0.00    -0.064 C  
HETATM   18  C   UNL     1     -10.324  17.723  68.028  1.00  0.00    -0.395 C  
HETATM   19  C   UNL     1      -8.979  17.042  67.736  1.00  0.00    -0.224 C  
BRANCH  19  20
HETATM   20  N   UNL     1      -7.864  17.897  67.262  1.00  0.00    -0.210 NA 
HETATM   21  C   UNL     1      -6.901  18.338  68.273  1.00  0.00    -0.230 C  
HETATM   22  C   UNL     1      -7.401  19.689  68.759  1.00  0.00    -0.371 C  
HETATM   23  C   UNL     1      -8.152  20.265  67.565  1.00  0.00    -0.310 C  
HETATM   24  C   UNL     1      -8.272  19.115  66.559  1.00  0.00    -0.306 C  
HETATM   25  O   UNL     1      -7.426  21.361  67.019  1.00  0.00    -0.813 OA 
HETATM   26  H   UNL     1      -7.894  21.720  66.275  1.00  0.00     0.000 HD 
ENDBRANCH  19  20
ENDBRANCH  13  14
ENDBRANCH  12  13
ENDBRANCH  11  12
ENDBRANCH   8  11
ENDBRANCH   2   3
TORSDOF 7
ENDMDL
MODEL       55
REMARK 921   NORMALIZED FREE ENERGY PREDICTED BY IDOCK:   -5.49 KCAL/MOL
REMARK 922        TOTAL FREE ENERGY PREDICTED BY IDOCK:   -8.66 KCAL/MOL
REMARK 923 INTER-LIGAND FREE ENERGY PREDICTED BY IDOCK:   -8.00 KCAL/MOL
REMARK 924 INTRA-LIGAND FREE ENERGY PREDICTED BY IDOCK:   -0.66 KCAL/MOL
REMARK 927      BINDING AFFINITY PREDICTED BY RF-SCORE:    0.00 PKD
ROOT
HETATM    1  C   UNL     1     -13.336  15.768  72.983  1.00  0.00    -0.583 C  
HETATM    2  O   UNL     1     -13.489  15.357  71.633  1.00  0.00    -0.437 OA 
ENDROOT
BRANCH   2   3
HETATM    3  C   UNL     1     -13.041  14.102  71.312  1.00  0.00    -0.350 A  
HETATM    4  C   UNL     1     -12.263  13.728  70.207  1.00  0.00    -0.359 A  
HETATM    5  C   UNL     1     -11.932  12.377  70.035  1.00  0.00    -0.372 A  
HETATM    6  C   UNL     1     -13.515  13.113  72.185  1.00  0.00    -0.653 A  
HETATM    7  C   UNL     1     -13.216  11.765  71.982  1.00  0.00    -0.460 A  
HETATM    8  C   UNL     1     -12.452  11.393  70.879  1.00  0.00    -0.478 A  
BRANCH   4   9
HETATM    9  O   UNL     1     -11.835  14.677  69.315  1.00  0.00    -0.294 OA 
HETATM   10  C   UNL     1     -11.381  14.163  68.064  1.00  0.00    -0.299 C  
ENDBRANCH   4   9
BRANCH   8  11
HETATM   11  C   UNL     1     -12.191   9.943  70.584  1.00  0.00    -0.325 C  
BRANCH  11  12
HETATM   12  C   UNL     1     -11.351   9.266  71.652  1.00  0.00    -0.397 C  
BRANCH  12  13
HETATM   13  O   UNL     1     -10.323   8.480  71.048  1.00  0.00    -0.195 OA 
BRANCH  13  14
HETATM   14  C   UNL     1     -10.599   7.070  70.927  1.00  0.00    -0.217 C  
HETATM   15  C   UNL     1     -10.246   6.335  72.229  1.00  0.00    -0.209 C  
HETATM   16  C   UNL     1     -10.276   4.820  72.089  1.00  0.00    -0.258 C  
HETATM   17  C   UNL     1      -9.397   4.387  70.926  1.00  0.00    -0.218 C  
HETATM   18  C   UNL     1      -9.968   4.930  69.619  1.00  0.00    -0.302 C  
HETATM   19  C   UNL     1      -9.987   6.466  69.617  1.00  0.00    -0.164 C  
BRANCH  19  20
HETATM   20  N   UNL     1     -10.571   7.145  68.436  1.00  0.00    -0.201 NA 
HETATM   21  C   UNL     1     -10.990   6.286  67.326  1.00  0.00    -0.366 C  
HETATM   22  C   UNL     1      -9.799   6.216  66.385  1.00  0.00    -0.141 C  
HETATM   23  C   UNL     1      -9.071   7.537  66.598  1.00  0.00    -0.158 C  
HETATM   24  C   UNL     1      -9.724   8.174  67.829  1.00  0.00    -0.157 C  
HETATM   25  O   UNL     1      -9.217   8.361  65.446  1.00  0.00    -0.406 OA 
HETATM   26  H   UNL     1      -8.763   9.186  65.579  1.00  0.00     0.000 HD 
ENDBRANCH  19  20
ENDBRANCH  13  14
ENDBRANCH  12  13
ENDBRANCH  11  12
ENDBRANCH   8  11
ENDBRANCH   2   3
TORSDOF 7
ENDMDL
MODEL       56
REMARK 921   NORMALIZED FREE ENERGY PREDICTED BY IDOCK:   -5.47 KCAL/MOL
REMARK 922        TOTAL FREE ENERGY PREDICTED BY IDOCK:   -8.63 KCAL/MOL
REMARK 923 INTER-LIGAND FREE ENERGY PREDICTED BY IDOCK:   -7.78 KCAL/MOL
REMARK 924 INTRA-LIGAND FREE ENERGY PREDICTED BY IDOCK:   -0.86 KCAL/MOL
REMARK 927      BINDING AFFINITY PREDICTED BY RF-SCORE:    0.00 PKD
ROOT
HETATM    1  C   UNL     1      -9.482  18.601  66.355  1.00  0.00    -0.311 C  
HETATM    2  O   UNL     1     -10.140  17.674  65.505  1.00  0.00    -0.566 OA 
ENDROOT
BRANCH   2   3
HETATM    3  C   UNL     1      -9.949  16.343  65.771  1.00  0.00    -0.302 A  
HETATM    4  C   UNL     1     -10.713  15.260  65.314  1.00  0.00    -0.415 A  
HETATM    5  C   UNL     1     -10.374  13.965  65.728  1.00  0.00    -0.326 A  
HETATM    6  C   UNL     1      -8.900  16.111  66.672  1.00  0.00    -0.298 A  
HETATM    7  C   UNL     1      -8.596  14.822  67.113  1.00  0.00    -0.248 A  
HETATM    8  C   UNL     1      -9.362  13.749  66.666  1.00  0.00    -0.277 A  
BRANCH   4   9
HETATM    9  O   UNL     1     -11.775  15.475  64.473  1.00  0.00    -0.382 OA 
HETATM   10  C   UNL     1     -12.589  14.328  64.229  1.00  0.00    -0.118 C  
ENDBRANCH   4   9
BRANCH   8  11
HETATM   11  C   UNL     1      -9.116  12.364  67.193  1.00  0.00    -0.199 C  
BRANCH  11  12
HETATM   12  C   UNL     1      -9.500  12.211  68.653  1.00  0.00    -0.045 C  
BRANCH  12  13
HETATM   13  O   UNL     1     -10.718  11.473  68.770  1.00  0.00    -0.196 OA 
BRANCH  13  14
HETATM   14  C   UNL     1     -11.817  12.167  69.394  1.00  0.00    -0.309 C  
HETATM   15  C   UNL     1     -11.582  13.686  69.372  1.00  0.00    -0.368 C  
HETATM   16  C   UNL     1     -12.573  14.458  70.229  1.00  0.00    -0.380 C  
HETATM   17  C   UNL     1     -12.588  13.897  71.643  1.00  0.00    -0.387 C  
HETATM   18  C   UNL     1     -13.099  12.459  71.621  1.00  0.00    -0.408 C  
HETATM   19  C   UNL     1     -12.176  11.555  70.791  1.00  0.00    -0.363 C  
BRANCH  19  20
HETATM   20  N   UNL     1     -12.572  10.136  70.625  1.00  0.00    -0.294 NA 
HETATM   21  C   UNL     1     -13.755   9.694  71.367  1.00  0.00    -0.204 C  
HETATM   22  C   UNL     1     -13.234   9.135  72.681  1.00  0.00    -0.362 C  
HETATM   23  C   UNL     1     -11.836   8.628  72.348  1.00  0.00    -0.331 C  
HETATM   24  C   UNL     1     -11.529   9.159  70.943  1.00  0.00    -0.296 C  
HETATM   25  O   UNL     1     -11.816   7.205  72.384  1.00  0.00    -0.389 OA 
HETATM   26  H   UNL     1     -10.944   6.890  72.176  1.00  0.00     0.000 HD 
ENDBRANCH  19  20
ENDBRANCH  13  14
ENDBRANCH  12  13
ENDBRANCH  11  12
ENDBRANCH   8  11
ENDBRANCH   2   3
TORSDOF 7
ENDMDL
MODEL       57
REMARK 921   NORMALIZED FREE ENERGY PREDICTED BY IDOCK:   -5.47 KCAL/MOL
REMARK 922        TOTAL FREE ENERGY PREDICTED BY IDOCK:   -8.63 KCAL/MOL
REMARK 923 INTER-LIGAND FREE ENERGY PREDICTED BY IDOCK:   -8.01 KCAL/MOL
REMARK 924 INTRA-LIGAND FREE ENERGY PREDICTED BY IDOCK:   -0.62 KCAL/MOL
REMARK 927      BINDING AFFINITY PREDICTED BY RF-SCORE:    0.00 PKD
ROOT
HETATM    1  C   UNL     1     -11.426  15.915  69.265  1.00  0.00    -0.374 C  
HETATM    2  O   UNL     1     -12.443  15.752  70.241  1.00  0.00    -0.389 OA 
ENDROOT
BRANCH   2   3
HETATM    3  C   UNL     1     -12.657  14.483  70.710  1.00  0.00    -0.351 A  
HETATM    4  C   UNL     1     -13.278  14.105  71.909  1.00  0.00    -0.387 A  
HETATM    5  C   UNL     1     -13.372  12.744  72.227  1.00  0.00    -0.563 A  
HETATM    6  C   UNL     1     -12.097  13.495  69.886  1.00  0.00    -0.408 A  
HETATM    7  C   UNL     1     -12.157  12.144  70.233  1.00  0.00    -0.385 A  
HETATM    8  C   UNL     1     -12.765  11.773  71.429  1.00  0.00    -0.413 A  
BRANCH   4   9
HETATM    9  O   UNL     1     -13.785  15.063  72.750  1.00  0.00    -0.456 OA 
HETATM   10  C   UNL     1     -12.880  15.519  73.754  1.00  0.00    -0.540 C  
ENDBRANCH   4   9
BRANCH   8  11
HETATM   11  C   UNL     1     -12.765  10.337  71.871  1.00  0.00    -0.478 C  
BRANCH  11  12
HETATM   12  C   UNL     1     -12.309   9.383  70.781  1.00  0.00    -0.120 C  
BRANCH  12  13
HETATM   13  O   UNL     1     -10.885   9.277  70.781  1.00  0.00    -0.238 OA 
BRANCH  13  14
HETATM   14  C   UNL     1     -10.317   8.444  69.751  1.00  0.00    -0.216 C  
HETATM   15  C   UNL     1     -10.766   8.919  68.360  1.00  0.00    -0.126 C  
HETATM   16  C   UNL     1     -10.409   7.942  67.250  1.00  0.00    -0.377 C  
HETATM   17  C   UNL     1     -10.937   6.556  67.584  1.00  0.00    -0.426 C  
HETATM   18  C   UNL     1     -10.239   6.027  68.835  1.00  0.00    -0.246 C  
HETATM   19  C   UNL     1     -10.526   6.920  70.051  1.00  0.00    -0.207 C  
BRANCH  19  20
HETATM   20  N   UNL     1      -9.867   6.570  71.331  1.00  0.00    -0.176 NA 
HETATM   21  C   UNL     1      -9.130   5.305  71.365  1.00  0.00    -0.145 C  
HETATM   22  C   UNL     1     -10.115   4.267  71.876  1.00  0.00    -0.237 C  
HETATM   23  C   UNL     1     -11.074   5.057  72.758  1.00  0.00    -0.241 C  
HETATM   24  C   UNL     1     -10.753   6.533  72.496  1.00  0.00    -0.226 C  
HETATM   25  O   UNL     1     -10.870   4.714  74.125  1.00  0.00    -0.286 OA 
HETATM   26  H   UNL     1     -11.467   5.208  74.674  1.00  0.00     0.000 HD 
ENDBRANCH  19  20
ENDBRANCH  13  14
ENDBRANCH  12  13
ENDBRANCH  11  12
ENDBRANCH   8  11
ENDBRANCH   2   3
TORSDOF 7
ENDMDL
MODEL       58
REMARK 921   NORMALIZED FREE ENERGY PREDICTED BY IDOCK:   -5.40 KCAL/MOL
REMARK 922        TOTAL FREE ENERGY PREDICTED BY IDOCK:   -8.53 KCAL/MOL
REMARK 923 INTER-LIGAND FREE ENERGY PREDICTED BY IDOCK:   -7.52 KCAL/MOL
REMARK 924 INTRA-LIGAND FREE ENERGY PREDICTED BY IDOCK:   -1.01 KCAL/MOL
REMARK 927      BINDING AFFINITY PREDICTED BY RF-SCORE:    0.00 PKD
ROOT
HETATM    1  C   UNL     1      -9.792  20.156  68.012  1.00  0.00    -0.363 C  
HETATM    2  O   UNL     1      -8.881  19.125  67.664  1.00  0.00    -0.288 OA 
ENDROOT
BRANCH   2   3
HETATM    3  C   UNL     1      -9.180  17.860  68.098  1.00  0.00    -0.278 A  
HETATM    4  C   UNL     1      -8.316  16.935  68.700  1.00  0.00    -0.261 A  
HETATM    5  C   UNL     1      -8.808  15.669  69.046  1.00  0.00    -0.243 A  
HETATM    6  C   UNL     1     -10.498  17.480  67.807  1.00  0.00    -0.381 A  
HETATM    7  C   UNL     1     -10.967  16.202  68.116  1.00  0.00    -0.341 A  
HETATM    8  C   UNL     1     -10.105  15.281  68.704  1.00  0.00    -0.222 A  
BRANCH   4   9
HETATM    9  O   UNL     1      -7.009  17.273  68.944  1.00  0.00    -0.213 OA 
HETATM   10  C   UNL     1      -6.229  16.249  69.560  1.00  0.00    -0.186 C  
ENDBRANCH   4   9
BRANCH   8  11
HETATM   11  C   UNL     1     -10.556  13.872  68.965  1.00  0.00    -0.187 C  
BRANCH  11  12
HETATM   12  C   UNL     1     -12.024  13.653  68.646  1.00  0.00    -0.360 C  
BRANCH  12  13
HETATM   13  O   UNL     1     -12.169  12.626  67.664  1.00  0.00    -0.367 OA 
BRANCH  13  14
HETATM   14  C   UNL     1     -11.644  12.928  66.356  1.00  0.00    -0.371 C  
HETATM   15  C   UNL     1     -12.659  13.744  65.539  1.00  0.00    -0.551 C  
HETATM   16  C   UNL     1     -12.275  13.881  64.073  1.00  0.00    -0.413 C  
HETATM   17  C   UNL     1     -12.019  12.508  63.470  1.00  0.00    -0.629 C  
HETATM   18  C   UNL     1     -10.813  11.864  64.150  1.00  0.00    -0.412 C  
HETATM   19  C   UNL     1     -11.069  11.653  65.649  1.00  0.00    -0.249 C  
BRANCH  19  20
HETATM   20  N   UNL     1      -9.965  11.090  66.462  1.00  0.00    -0.206 NA 
HETATM   21  C   UNL     1      -8.682  10.896  65.782  1.00  0.00    -0.190 C  
HETATM   22  C   UNL     1      -8.700   9.466  65.267  1.00  0.00    -0.204 C  
HETATM   23  C   UNL     1      -9.600   8.723  66.246  1.00  0.00    -0.259 C  
HETATM   24  C   UNL     1     -10.259   9.807  67.105  1.00  0.00    -0.228 C  
HETATM   25  O   UNL     1      -8.822   7.832  67.039  1.00  0.00    -0.122 OA 
HETATM   26  H   UNL     1      -9.384   7.369  67.649  1.00  0.00     0.000 HD 
ENDBRANCH  19  20
ENDBRANCH  13  14
ENDBRANCH  12  13
ENDBRANCH  11  12
ENDBRANCH   8  11
ENDBRANCH   2   3
TORSDOF 7
ENDMDL
MODEL       59
REMARK 921   NORMALIZED FREE ENERGY PREDICTED BY IDOCK:   -5.37 KCAL/MOL
REMARK 922        TOTAL FREE ENERGY PREDICTED BY IDOCK:   -8.49 KCAL/MOL
REMARK 923 INTER-LIGAND FREE ENERGY PREDICTED BY IDOCK:   -7.74 KCAL/MOL
REMARK 924 INTRA-LIGAND FREE ENERGY PREDICTED BY IDOCK:   -0.75 KCAL/MOL
REMARK 927      BINDING AFFINITY PREDICTED BY RF-SCORE:    0.00 PKD
ROOT
HETATM    1  C   UNL     1     -11.689  15.805  64.269  1.00  0.00    -0.162 C  
HETATM    2  O   UNL     1     -12.456  14.613  64.359  1.00  0.00    -0.624 OA 
ENDROOT
BRANCH   2   3
HETATM    3  C   UNL     1     -12.045  13.679  65.273  1.00  0.00    -0.406 A  
HETATM    4  C   UNL     1     -11.538  12.397  65.018  1.00  0.00    -0.345 A  
HETATM    5  C   UNL     1     -11.201  11.571  66.099  1.00  0.00    -0.265 A  
HETATM    6  C   UNL     1     -12.254  14.083  66.600  1.00  0.00    -0.463 A  
HETATM    7  C   UNL     1     -11.956  13.237  67.669  1.00  0.00    -0.366 A  
HETATM    8  C   UNL     1     -11.463  11.961  67.414  1.00  0.00    -0.393 A  
BRANCH   4   9
HETATM    9  O   UNL     1     -11.377  11.967  63.726  1.00  0.00    -0.387 OA 
HETATM   10  C   UNL     1     -10.236  11.137  63.508  1.00  0.00    -0.390 C  
ENDBRANCH   4   9
BRANCH   8  11
HETATM   11  C   UNL     1     -11.218  10.998  68.541  1.00  0.00    -0.329 C  
BRANCH  11  12
HETATM   12  C   UNL     1      -9.746  10.844  68.877  1.00  0.00    -0.187 C  
BRANCH  12  13
HETATM   13  O   UNL     1      -9.566   9.817  69.853  1.00  0.00    -0.211 OA 
BRANCH  13  14
HETATM   14  C   UNL     1     -10.712   8.981  70.106  1.00  0.00    -0.233 C  
HETATM   15  C   UNL     1     -11.181   9.128  71.562  1.00  0.00    -0.430 C  
HETATM   16  C   UNL     1     -12.223   8.094  71.962  1.00  0.00    -0.385 C  
HETATM   17  C   UNL     1     -11.713   6.694  71.659  1.00  0.00    -0.362 C  
HETATM   18  C   UNL     1     -11.530   6.528  70.153  1.00  0.00    -0.477 C  
HETATM   19  C   UNL     1     -10.484   7.512  69.609  1.00  0.00    -0.234 C  
BRANCH  19  20
HETATM   20  N   UNL     1     -10.237   7.514  68.147  1.00  0.00    -0.183 NA 
HETATM   21  C   UNL     1     -11.069   6.618  67.340  1.00  0.00    -0.320 C  
HETATM   22  C   UNL     1     -10.282   5.323  67.219  1.00  0.00    -0.252 C  
HETATM   23  C   UNL     1      -8.825   5.755  67.315  1.00  0.00    -0.106 C  
HETATM   24  C   UNL     1      -8.858   7.224  67.750  1.00  0.00    -0.124 C  
HETATM   25  O   UNL     1      -8.189   5.601  66.050  1.00  0.00    -0.106 OA 
HETATM   26  H   UNL     1      -7.280   5.871  66.110  1.00  0.00     0.000 HD 
ENDBRANCH  19  20
ENDBRANCH  13  14
ENDBRANCH  12  13
ENDBRANCH  11  12
ENDBRANCH   8  11
ENDBRANCH   2   3
TORSDOF 7
ENDMDL
MODEL       60
REMARK 921   NORMALIZED FREE ENERGY PREDICTED BY IDOCK:   -5.36 KCAL/MOL
REMARK 922        TOTAL FREE ENERGY PREDICTED BY IDOCK:   -8.48 KCAL/MOL
REMARK 923 INTER-LIGAND FREE ENERGY PREDICTED BY IDOCK:   -7.62 KCAL/MOL
REMARK 924 INTRA-LIGAND FREE ENERGY PREDICTED BY IDOCK:   -0.86 KCAL/MOL
REMARK 927      BINDING AFFINITY PREDICTED BY RF-SCORE:    0.00 PKD
ROOT
HETATM    1  C   UNL     1      -9.135   7.901  73.341  1.00  0.00    -0.283 C  
HETATM    2  O   UNL     1     -10.469   8.188  72.948  1.00  0.00    -0.340 OA 
ENDROOT
BRANCH   2   3
HETATM    3  C   UNL     1     -10.636   8.886  71.781  1.00  0.00    -0.362 A  
HETATM    4  C   UNL     1     -11.766   9.606  71.367  1.00  0.00    -0.404 A  
HETATM    5  C   UNL     1     -11.754  10.230  70.113  1.00  0.00    -0.364 A  
HETATM    6  C   UNL     1      -9.544   8.763  70.910  1.00  0.00    -0.275 A  
HETATM    7  C   UNL     1      -9.558   9.353  69.645  1.00  0.00    -0.199 A  
HETATM    8  C   UNL     1     -10.685  10.057  69.232  1.00  0.00    -0.249 A  
BRANCH   4   9
HETATM    9  O   UNL     1     -12.863   9.692  72.187  1.00  0.00    -0.390 OA 
HETATM   10  C   UNL     1     -13.912   8.773  71.885  1.00  0.00    -0.436 C  
ENDBRANCH   4   9
BRANCH   8  11
HETATM   11  C   UNL     1     -10.764  10.625  67.843  1.00  0.00    -0.292 C  
BRANCH  11  12
HETATM   12  C   UNL     1     -10.324  12.076  67.773  1.00  0.00    -0.197 C  
BRANCH  12  13
HETATM   13  O   UNL     1     -11.458  12.941  67.847  1.00  0.00    -0.276 OA 
BRANCH  13  14
HETATM   14  C   UNL     1     -11.169  14.348  67.977  1.00  0.00    -0.280 C  
HETATM   15  C   UNL     1      -9.874  14.707  67.232  1.00  0.00    -0.231 C  
HETATM   16  C   UNL     1      -9.379  16.113  67.533  1.00  0.00    -0.217 C  
HETATM   17  C   UNL     1      -9.254  16.311  69.036  1.00  0.00    -0.253 C  
HETATM   18  C   UNL     1     -10.632  16.214  69.684  1.00  0.00    -0.311 C  
HETATM   19  C   UNL     1     -11.252  14.826  69.467  1.00  0.00    -0.278 C  
BRANCH  19  20
HETATM   20  N   UNL     1     -12.620  14.594  69.988  1.00  0.00    -0.277 NA 
HETATM   21  C   UNL     1     -13.243  15.705  70.711  1.00  0.00    -0.212 C  
HETATM   22  C   UNL     1     -12.915  15.478  72.178  1.00  0.00    -0.506 C  
HETATM   23  C   UNL     1     -12.772  13.967  72.304  1.00  0.00    -0.211 C  
HETATM   24  C   UNL     1     -12.761  13.432  70.868  1.00  0.00    -0.272 C  
HETATM   25  O   UNL     1     -13.865  13.438  73.049  1.00  0.00    -0.506 OA 
HETATM   26  H   UNL     1     -13.775  12.495  73.127  1.00  0.00     0.000 HD 
ENDBRANCH  19  20
ENDBRANCH  13  14
ENDBRANCH  12  13
ENDBRANCH  11  12
ENDBRANCH   8  11
ENDBRANCH   2   3
TORSDOF 7
ENDMDL
MODEL       61
REMARK 921   NORMALIZED FREE ENERGY PREDICTED BY IDOCK:   -5.35 KCAL/MOL
REMARK 922        TOTAL FREE ENERGY PREDICTED BY IDOCK:   -8.46 KCAL/MOL
REMARK 923 INTER-LIGAND FREE ENERGY PREDICTED BY IDOCK:   -7.45 KCAL/MOL
REMARK 924 INTRA-LIGAND FREE ENERGY PREDICTED BY IDOCK:   -1.01 KCAL/MOL
REMARK 927      BINDING AFFINITY PREDICTED BY RF-SCORE:    0.00 PKD
ROOT
HETATM    1  C   UNL     1      -7.390   9.479  66.449  1.00  0.00    -0.093 C  
HETATM    2  O   UNL     1      -8.374   9.110  65.494  1.00  0.00    -0.120 OA 
ENDROOT
BRANCH   2   3
HETATM    3  C   UNL     1      -9.423   9.974  65.317  1.00  0.00    -0.263 A  
HETATM    4  C   UNL     1      -9.951  10.444  64.106  1.00  0.00    -0.267 A  
HETATM    5  C   UNL     1     -11.013  11.356  64.136  1.00  0.00    -0.411 A  
HETATM    6  C   UNL     1      -9.933  10.469  66.526  1.00  0.00    -0.266 A  
HETATM    7  C   UNL     1     -10.963  11.411  66.545  1.00  0.00    -0.328 A  
HETATM    8  C   UNL     1     -11.478  11.884  65.342  1.00  0.00    -0.310 A  
BRANCH   4   9
HETATM    9  O   UNL     1      -9.429  10.008  62.915  1.00  0.00    -0.294 OA 
HETATM   10  C   UNL     1      -8.326  10.773  62.429  1.00  0.00    -0.247 C  
ENDBRANCH   4   9
BRANCH   8  11
HETATM   11  C   UNL     1     -12.524  12.963  65.331  1.00  0.00    -0.511 C  
BRANCH  11  12
HETATM   12  C   UNL     1     -11.944  14.348  65.558  1.00  0.00    -0.358 C  
BRANCH  12  13
HETATM   13  O   UNL     1     -12.030  14.700  66.940  1.00  0.00    -0.373 OA 
BRANCH  13  14
HETATM   14  C   UNL     1     -10.880  15.373  67.489  1.00  0.00    -0.305 C  
HETATM   15  C   UNL     1      -9.649  15.167  66.591  1.00  0.00    -0.272 C  
HETATM   16  C   UNL     1      -8.353  15.636  67.234  1.00  0.00    -0.209 C  
HETATM   17  C   UNL     1      -8.185  14.989  68.601  1.00  0.00    -0.156 C  
HETATM   18  C   UNL     1      -9.298  15.460  69.533  1.00  0.00    -0.252 C  
HETATM   19  C   UNL     1     -10.678  15.039  69.007  1.00  0.00    -0.239 C  
BRANCH  19  20
HETATM   20  N   UNL     1     -11.869  15.476  69.774  1.00  0.00    -0.338 NA 
HETATM   21  C   UNL     1     -11.616  16.243  70.996  1.00  0.00    -0.303 C  
HETATM   22  C   UNL     1     -11.574  15.223  72.123  1.00  0.00    -0.535 C  
HETATM   23  C   UNL     1     -12.481  14.095  71.645  1.00  0.00    -0.311 C  
HETATM   24  C   UNL     1     -12.779  14.401  70.174  1.00  0.00    -0.207 C  
HETATM   25  O   UNL     1     -13.672  14.069  72.424  1.00  0.00    -0.483 OA 
HETATM   26  H   UNL     1     -14.237  13.366  72.126  1.00  0.00     0.000 HD 
ENDBRANCH  19  20
ENDBRANCH  13  14
ENDBRANCH  12  13
ENDBRANCH  11  12
ENDBRANCH   8  11
ENDBRANCH   2   3
TORSDOF 7
ENDMDL
MODEL       62
REMARK 921   NORMALIZED FREE ENERGY PREDICTED BY IDOCK:   -5.31 KCAL/MOL
REMARK 922        TOTAL FREE ENERGY PREDICTED BY IDOCK:   -8.41 KCAL/MOL
REMARK 923 INTER-LIGAND FREE ENERGY PREDICTED BY IDOCK:   -7.74 KCAL/MOL
REMARK 924 INTRA-LIGAND FREE ENERGY PREDICTED BY IDOCK:   -0.67 KCAL/MOL
REMARK 927      BINDING AFFINITY PREDICTED BY RF-SCORE:    0.00 PKD
ROOT
HETATM    1  C   UNL     1     -10.785  19.705  66.006  1.00  0.00    -0.424 C  
HETATM    2  O   UNL     1     -10.416  19.664  67.377  1.00  0.00    -0.424 OA 
ENDROOT
BRANCH   2   3
HETATM    3  C   UNL     1      -9.642  18.608  67.780  1.00  0.00    -0.304 A  
HETATM    4  C   UNL     1      -8.358  18.652  68.341  1.00  0.00    -0.334 A  
HETATM    5  C   UNL     1      -7.713  17.450  68.660  1.00  0.00    -0.273 A  
HETATM    6  C   UNL     1     -10.227  17.364  67.501  1.00  0.00    -0.332 A  
HETATM    7  C   UNL     1      -9.559  16.171  67.782  1.00  0.00    -0.223 A  
HETATM    8  C   UNL     1      -8.280  16.217  68.329  1.00  0.00    -0.173 A  
BRANCH   4   9
HETATM    9  O   UNL     1      -7.751  19.860  68.572  1.00  0.00    -0.308 OA 
HETATM   10  C   UNL     1      -6.983  20.364  67.480  1.00  0.00    -0.302 C  
ENDBRANCH   4   9
BRANCH   8  11
HETATM   11  C   UNL     1      -7.502  14.953  68.559  1.00  0.00    -0.118 C  
BRANCH  11  12
HETATM   12  C   UNL     1      -8.364  13.706  68.473  1.00  0.00    -0.110 C  
BRANCH  12  13
HETATM   13  O   UNL     1      -8.035  12.957  67.302  1.00  0.00    -0.174 OA 
BRANCH  13  14
HETATM   14  C   UNL     1      -8.757  11.722  67.122  1.00  0.00    -0.169 C  
HETATM   15  C   UNL     1      -7.836  10.515  67.362  1.00  0.00    -0.106 C  
HETATM   16  C   UNL     1      -8.462   9.192  66.947  1.00  0.00    -0.124 C  
HETATM   17  C   UNL     1      -8.945   9.272  65.507  1.00  0.00    -0.251 C  
HETATM   18  C   UNL     1     -10.062  10.306  65.396  1.00  0.00    -0.354 C  
HETATM   19  C   UNL     1      -9.562  11.707  65.778  1.00  0.00    -0.232 C  
BRANCH  19  20
HETATM   20  N   UNL     1     -10.549  12.813  65.777  1.00  0.00    -0.269 NA 
HETATM   21  C   UNL     1     -11.950  12.442  65.987  1.00  0.00    -0.350 C  
HETATM   22  C   UNL     1     -12.539  12.249  64.600  1.00  0.00    -0.376 C  
HETATM   23  C   UNL     1     -11.722  13.177  63.710  1.00  0.00    -0.461 C  
HETATM   24  C   UNL     1     -10.547  13.647  64.573  1.00  0.00    -0.411 C  
HETATM   25  O   UNL     1     -12.527  14.272  63.284  1.00  0.00    -1.133 OA 
HETATM   26  H   UNL     1     -12.017  14.850  62.729  1.00  0.00     0.000 HD 
ENDBRANCH  19  20
ENDBRANCH  13  14
ENDBRANCH  12  13
ENDBRANCH  11  12
ENDBRANCH   8  11
ENDBRANCH   2   3
TORSDOF 7
ENDMDL
MODEL       63
REMARK 921   NORMALIZED FREE ENERGY PREDICTED BY IDOCK:   -5.30 KCAL/MOL
REMARK 922        TOTAL FREE ENERGY PREDICTED BY IDOCK:   -8.40 KCAL/MOL
REMARK 923 INTER-LIGAND FREE ENERGY PREDICTED BY IDOCK:   -7.79 KCAL/MOL
REMARK 924 INTRA-LIGAND FREE ENERGY PREDICTED BY IDOCK:   -0.60 KCAL/MOL
REMARK 927      BINDING AFFINITY PREDICTED BY RF-SCORE:    0.00 PKD
ROOT
HETATM    1  C   UNL     1      -7.497   8.272  65.766  1.00  0.00    -0.080 C  
HETATM    2  O   UNL     1      -8.901   8.235  65.558  1.00  0.00    -0.169 OA 
ENDROOT
BRANCH   2   3
HETATM    3  C   UNL     1      -9.584   9.412  65.725  1.00  0.00    -0.271 A  
HETATM    4  C   UNL     1      -9.558  10.542  64.896  1.00  0.00    -0.277 A  
HETATM    5  C   UNL     1     -10.307  11.669  65.257  1.00  0.00    -0.316 A  
HETATM    6  C   UNL     1     -10.315   9.455  66.921  1.00  0.00    -0.308 A  
HETATM    7  C   UNL     1     -11.025  10.597  67.294  1.00  0.00    -0.348 A  
HETATM    8  C   UNL     1     -10.988  11.722  66.476  1.00  0.00    -0.342 A  
BRANCH   4   9
HETATM    9  O   UNL     1      -8.806  10.535  63.748  1.00  0.00    -0.183 OA 
HETATM   10  C   UNL     1      -9.526  10.200  62.562  1.00  0.00    -0.235 C  
ENDBRANCH   4   9
BRANCH   8  11
HETATM   11  C   UNL     1     -11.668  12.995  66.896  1.00  0.00    -0.441 C  
BRANCH  11  12
HETATM   12  C   UNL     1     -10.925  13.722  68.002  1.00  0.00    -0.250 C  
BRANCH  12  13
HETATM   13  O   UNL     1     -11.016  12.990  69.225  1.00  0.00    -0.181 OA 
BRANCH  13  14
HETATM   14  C   UNL     1     -12.243  13.149  69.964  1.00  0.00    -0.253 C  
HETATM   15  C   UNL     1     -12.458  14.622  70.347  1.00  0.00    -0.410 C  
HETATM   16  C   UNL     1     -13.596  14.823  71.336  1.00  0.00    -0.493 C  
HETATM   17  C   UNL     1     -13.394  13.934  72.553  1.00  0.00    -0.656 C  
HETATM   18  C   UNL     1     -13.468  12.467  72.137  1.00  0.00    -0.523 C  
HETATM   19  C   UNL     1     -12.356  12.117  71.137  1.00  0.00    -0.160 C  
BRANCH  19  20
HETATM   20  N   UNL     1     -12.331  10.739  70.591  1.00  0.00    -0.340 NA 
HETATM   21  C   UNL     1     -13.509   9.909  70.853  1.00  0.00    -0.122 C  
HETATM   22  C   UNL     1     -13.200   9.142  72.128  1.00  0.00    -0.524 C  
HETATM   23  C   UNL     1     -11.682   9.008  72.129  1.00  0.00    -0.296 C  
HETATM   24  C   UNL     1     -11.186   9.927  71.007  1.00  0.00    -0.364 C  
HETATM   25  O   UNL     1     -11.315   7.653  71.894  1.00  0.00    -0.250 OA 
HETATM   26  H   UNL     1     -10.368   7.570  71.895  1.00  0.00     0.000 HD 
ENDBRANCH  19  20
ENDBRANCH  13  14
ENDBRANCH  12  13
ENDBRANCH  11  12
ENDBRANCH   8  11
ENDBRANCH   2   3
TORSDOF 7
ENDMDL
MODEL       64
REMARK 921   NORMALIZED FREE ENERGY PREDICTED BY IDOCK:   -5.26 KCAL/MOL
REMARK 922        TOTAL FREE ENERGY PREDICTED BY IDOCK:   -8.34 KCAL/MOL
REMARK 923 INTER-LIGAND FREE ENERGY PREDICTED BY IDOCK:   -7.56 KCAL/MOL
REMARK 924 INTRA-LIGAND FREE ENERGY PREDICTED BY IDOCK:   -0.77 KCAL/MOL
REMARK 927      BINDING AFFINITY PREDICTED BY RF-SCORE:    0.00 PKD
ROOT
HETATM    1  C   UNL     1     -10.833   5.194  73.334  1.00  0.00    -0.302 C  
HETATM    2  O   UNL     1     -10.692   6.524  73.811  1.00  0.00    -0.283 OA 
ENDROOT
BRANCH   2   3
HETATM    3  C   UNL     1     -10.871   7.532  72.900  1.00  0.00    -0.373 A  
HETATM    4  C   UNL     1      -9.884   8.251  72.212  1.00  0.00    -0.294 A  
HETATM    5  C   UNL     1     -10.271   9.275  71.338  1.00  0.00    -0.371 A  
HETATM    6  C   UNL     1     -12.218   7.890  72.740  1.00  0.00    -0.081 A  
HETATM    7  C   UNL     1     -12.592   8.940  71.900  1.00  0.00    -0.439 A  
HETATM    8  C   UNL     1     -11.609   9.660  71.226  1.00  0.00    -0.466 A  
BRANCH   4   9
HETATM    9  O   UNL     1      -8.559   7.947  72.397  1.00  0.00    -0.121 OA 
HETATM   10  C   UNL     1      -7.654   8.682  71.574  1.00  0.00    -0.106 C  
ENDBRANCH   4   9
BRANCH   8  11
HETATM   11  C   UNL     1     -11.975  10.852  70.388  1.00  0.00    -0.453 C  
BRANCH  11  12
HETATM   12  C   UNL     1     -11.742  10.623  68.905  1.00  0.00    -0.211 C  
BRANCH  12  13
HETATM   13  O   UNL     1     -12.260  11.719  68.148  1.00  0.00    -0.507 OA 
BRANCH  13  14
HETATM   14  C   UNL     1     -11.287  12.502  67.429  1.00  0.00    -0.313 C  
HETATM   15  C   UNL     1     -10.240  11.593  66.768  1.00  0.00    -0.248 C  
HETATM   16  C   UNL     1      -9.051  12.358  66.206  1.00  0.00    -0.099 C  
HETATM   17  C   UNL     1      -8.446  13.246  67.283  1.00  0.00    -0.203 C  
HETATM   18  C   UNL     1      -9.458  14.310  67.701  1.00  0.00    -0.211 C  
HETATM   19  C   UNL     1     -10.719  13.672  68.304  1.00  0.00    -0.254 C  
BRANCH  19  20
HETATM   20  N   UNL     1     -11.823  14.576  68.704  1.00  0.00    -0.327 NA 
HETATM   21  C   UNL     1     -11.572  16.013  68.576  1.00  0.00    -0.316 C  
HETATM   22  C   UNL     1     -11.046  16.463  69.930  1.00  0.00    -0.313 C  
HETATM   23  C   UNL     1     -11.680  15.495  70.921  1.00  0.00    -0.375 C  
HETATM   24  C   UNL     1     -12.314  14.389  70.071  1.00  0.00    -0.336 C  
HETATM   25  O   UNL     1     -12.656  16.174  71.705  1.00  0.00    -0.558 OA 
HETATM   26  H   UNL     1     -13.050  15.570  72.323  1.00  0.00     0.000 HD 
ENDBRANCH  19  20
ENDBRANCH  13  14
ENDBRANCH  12  13
ENDBRANCH  11  12
ENDBRANCH   8  11
ENDBRANCH   2   3
TORSDOF 7
ENDMDL
MODEL       65
REMARK 921   NORMALIZED FREE ENERGY PREDICTED BY IDOCK:   -5.25 KCAL/MOL
REMARK 922        TOTAL FREE ENERGY PREDICTED BY IDOCK:   -8.32 KCAL/MOL
REMARK 923 INTER-LIGAND FREE ENERGY PREDICTED BY IDOCK:   -7.75 KCAL/MOL
REMARK 924 INTRA-LIGAND FREE ENERGY PREDICTED BY IDOCK:   -0.58 KCAL/MOL
REMARK 927      BINDING AFFINITY PREDICTED BY RF-SCORE:    0.00 PKD
ROOT
HETATM    1  C   UNL     1     -12.514  12.207  63.472  1.00  0.00    -0.555 C  
HETATM    2  O   UNL     1     -11.509  11.966  64.445  1.00  0.00    -0.340 OA 
ENDROOT
BRANCH   2   3
HETATM    3  C   UNL     1     -11.291  12.954  65.370  1.00  0.00    -0.303 A  
HETATM    4  C   UNL     1     -11.582  12.923  66.741  1.00  0.00    -0.360 A  
HETATM    5  C   UNL     1     -11.312  14.055  67.520  1.00  0.00    -0.343 A  
HETATM    6  C   UNL     1     -10.790  14.134  64.801  1.00  0.00    -0.426 A  
HETATM    7  C   UNL     1     -10.564  15.272  65.577  1.00  0.00    -0.390 A  
HETATM    8  C   UNL     1     -10.864  15.242  66.936  1.00  0.00    -0.317 A  
BRANCH   4   9
HETATM    9  O   UNL     1     -12.121  11.793  67.303  1.00  0.00    -0.595 OA 
HETATM   10  C   UNL     1     -11.166  10.832  67.752  1.00  0.00    -0.316 C  
ENDBRANCH   4   9
BRANCH   8  11
HETATM   11  C   UNL     1     -10.717  16.478  67.777  1.00  0.00    -0.329 C  
BRANCH  11  12
HETATM   12  C   UNL     1      -9.531  16.411  68.723  1.00  0.00    -0.247 C  
BRANCH  12  13
HETATM   13  O   UNL     1      -8.348  16.051  68.008  1.00  0.00    -0.158 OA 
BRANCH  13  14
HETATM   14  C   UNL     1      -7.172  16.831  68.304  1.00  0.00    -0.173 C  
HETATM   15  C   UNL     1      -6.559  16.401  69.646  1.00  0.00    -0.180 C  
HETATM   16  C   UNL     1      -5.470  17.343  70.137  1.00  0.00    -0.246 C  
HETATM   17  C   UNL     1      -5.993  18.771  70.172  1.00  0.00    -0.193 C  
HETATM   18  C   UNL     1      -6.326  19.232  68.755  1.00  0.00    -0.282 C  
HETATM   19  C   UNL     1      -7.433  18.367  68.135  1.00  0.00    -0.267 C  
BRANCH  19  20
HETATM   20  N   UNL     1      -7.826  18.653  66.735  1.00  0.00    -0.237 NA 
HETATM   21  C   UNL     1      -7.025  18.020  65.686  1.00  0.00    -0.141 C  
HETATM   22  C   UNL     1      -5.945  19.028  65.326  1.00  0.00    -0.279 C  
HETATM   23  C   UNL     1      -6.578  20.381  65.623  1.00  0.00    -0.247 C  
HETATM   24  C   UNL     1      -7.873  20.074  66.382  1.00  0.00    -0.300 C  
HETATM   25  O   UNL     1      -6.838  21.072  64.406  1.00  0.00    -0.521 OA 
HETATM   26  H   UNL     1      -7.233  21.916  64.592  1.00  0.00     0.000 HD 
ENDBRANCH  19  20
ENDBRANCH  13  14
ENDBRANCH  12  13
ENDBRANCH  11  12
ENDBRANCH   8  11
ENDBRANCH   2   3
TORSDOF 7
ENDMDL
MODEL       66
REMARK 921   NORMALIZED FREE ENERGY PREDICTED BY IDOCK:   -5.25 KCAL/MOL
REMARK 922        TOTAL FREE ENERGY PREDICTED BY IDOCK:   -8.31 KCAL/MOL
REMARK 923 INTER-LIGAND FREE ENERGY PREDICTED BY IDOCK:   -7.36 KCAL/MOL
REMARK 924 INTRA-LIGAND FREE ENERGY PREDICTED BY IDOCK:   -0.95 KCAL/MOL
REMARK 927      BINDING AFFINITY PREDICTED BY RF-SCORE:    0.00 PKD
ROOT
HETATM    1  C   UNL     1     -10.276   8.256  68.599  1.00  0.00    -0.204 C  
HETATM    2  O   UNL     1      -9.933   8.816  67.340  1.00  0.00    -0.176 OA 
ENDROOT
BRANCH   2   3
HETATM    3  C   UNL     1     -10.469  10.041  67.040  1.00  0.00    -0.238 A  
HETATM    4  C   UNL     1     -10.320  10.772  65.853  1.00  0.00    -0.238 A  
HETATM    5  C   UNL     1     -10.925  12.032  65.749  1.00  0.00    -0.351 A  
HETATM    6  C   UNL     1     -11.171  10.609  68.113  1.00  0.00    -0.366 A  
HETATM    7  C   UNL     1     -11.734  11.882  68.016  1.00  0.00    -0.382 A  
HETATM    8  C   UNL     1     -11.576  12.611  66.841  1.00  0.00    -0.438 A  
BRANCH   4   9
HETATM    9  O   UNL     1      -9.593  10.253  64.813  1.00  0.00    -0.258 OA 
HETATM   10  C   UNL     1      -9.980  10.717  63.519  1.00  0.00    -0.285 C  
ENDBRANCH   4   9
BRANCH   8  11
HETATM   11  C   UNL     1     -12.092  14.019  66.740  1.00  0.00    -0.480 C  
BRANCH  11  12
HETATM   12  C   UNL     1     -11.104  14.964  66.081  1.00  0.00    -0.335 C  
BRANCH  12  13
HETATM   13  O   UNL     1     -10.229  15.526  67.059  1.00  0.00    -0.260 OA 
BRANCH  13  14
HETATM   14  C   UNL     1      -8.819  15.344  66.821  1.00  0.00    -0.269 C  
HETATM   15  C   UNL     1      -8.318  14.054  67.489  1.00  0.00    -0.200 C  
HETATM   16  C   UNL     1      -6.802  13.930  67.490  1.00  0.00    -0.148 C  
HETATM   17  C   UNL     1      -6.177  15.175  68.099  1.00  0.00    -0.140 C  
HETATM   18  C   UNL     1      -6.488  16.388  67.226  1.00  0.00    -0.222 C  
HETATM   19  C   UNL     1      -8.000  16.641  67.145  1.00  0.00    -0.182 C  
BRANCH  19  20
HETATM   20  N   UNL     1      -8.466  17.752  66.282  1.00  0.00    -0.436 NA 
HETATM   21  C   UNL     1      -7.451  18.711  65.842  1.00  0.00    -0.180 C  
HETATM   22  C   UNL     1      -7.469  19.832  66.868  1.00  0.00    -0.266 C  
HETATM   23  C   UNL     1      -8.899  19.840  67.394  1.00  0.00    -0.326 C  
HETATM   24  C   UNL     1      -9.547  18.564  66.845  1.00  0.00    -0.307 C  
HETATM   25  O   UNL     1      -9.576  21.006  66.939  1.00  0.00    -0.671 OA 
HETATM   26  H   UNL     1     -10.468  21.010  67.267  1.00  0.00     0.000 HD 
ENDBRANCH  19  20
ENDBRANCH  13  14
ENDBRANCH  12  13
ENDBRANCH  11  12
ENDBRANCH   8  11
ENDBRANCH   2   3
TORSDOF 7
ENDMDL
MODEL       67
REMARK 921   NORMALIZED FREE ENERGY PREDICTED BY IDOCK:   -5.24 KCAL/MOL
REMARK 922        TOTAL FREE ENERGY PREDICTED BY IDOCK:   -8.30 KCAL/MOL
REMARK 923 INTER-LIGAND FREE ENERGY PREDICTED BY IDOCK:   -7.72 KCAL/MOL
REMARK 924 INTRA-LIGAND FREE ENERGY PREDICTED BY IDOCK:   -0.58 KCAL/MOL
REMARK 927      BINDING AFFINITY PREDICTED BY RF-SCORE:    0.00 PKD
ROOT
HETATM    1  C   UNL     1     -10.535   6.109  73.818  1.00  0.00    -0.283 C  
HETATM    2  O   UNL     1     -10.941   7.419  73.452  1.00  0.00    -0.378 OA 
ENDROOT
BRANCH   2   3
HETATM    3  C   UNL     1     -10.836   7.755  72.128  1.00  0.00    -0.257 A  
HETATM    4  C   UNL     1     -11.517   8.773  71.446  1.00  0.00    -0.297 A  
HETATM    5  C   UNL     1     -11.295   8.938  70.072  1.00  0.00    -0.050 A  
HETATM    6  C   UNL     1      -9.992   6.894  71.412  1.00  0.00    -0.190 A  
HETATM    7  C   UNL     1      -9.810   7.040  70.036  1.00  0.00    -0.181 A  
HETATM    8  C   UNL     1     -10.495   8.044  69.358  1.00  0.00    -0.223 A  
BRANCH   4   9
HETATM    9  O   UNL     1     -12.386   9.591  72.122  1.00  0.00    -0.340 OA 
HETATM   10  C   UNL     1     -13.729   9.112  72.193  1.00  0.00    -0.471 C  
ENDBRANCH   4   9
BRANCH   8  11
HETATM   11  C   UNL     1     -10.388   8.167  67.864  1.00  0.00    -0.280 C  
BRANCH  11  12
HETATM   12  C   UNL     1      -9.121   8.874  67.420  1.00  0.00    -0.132 C  
BRANCH  12  13
HETATM   13  O   UNL     1      -9.438  10.140  66.840  1.00  0.00    -0.162 OA 
BRANCH  13  14
HETATM   14  C   UNL     1      -9.853  10.114  65.459  1.00  0.00    -0.298 C  
HETATM   15  C   UNL     1      -8.746   9.524  64.571  1.00  0.00    -0.232 C  
HETATM   16  C   UNL     1      -9.016   9.696  63.084  1.00  0.00    -0.253 C  
HETATM   17  C   UNL     1      -9.290  11.158  62.769  1.00  0.00    -0.377 C  
HETATM   18  C   UNL     1     -10.570  11.605  63.472  1.00  0.00    -0.496 C  
HETATM   19  C   UNL     1     -10.433  11.494  64.997  1.00  0.00    -0.290 C  
BRANCH  19  20
HETATM   20  N   UNL     1     -11.618  11.836  65.820  1.00  0.00    -0.332 NA 
HETATM   21  C   UNL     1     -12.659  12.635  65.170  1.00  0.00    -0.386 C  
HETATM   22  C   UNL     1     -12.329  14.084  65.491  1.00  0.00    -0.503 C  
HETATM   23  C   UNL     1     -11.604  14.019  66.829  1.00  0.00    -0.386 C  
HETATM   24  C   UNL     1     -11.322  12.533  67.074  1.00  0.00    -0.328 C  
HETATM   25  O   UNL     1     -12.427  14.569  67.853  1.00  0.00    -0.599 OA 
HETATM   26  H   UNL     1     -11.975  14.528  68.687  1.00  0.00     0.000 HD 
ENDBRANCH  19  20
ENDBRANCH  13  14
ENDBRANCH  12  13
ENDBRANCH  11  12
ENDBRANCH   8  11
ENDBRANCH   2   3
TORSDOF 7
ENDMDL
MODEL       68
REMARK 921   NORMALIZED FREE ENERGY PREDICTED BY IDOCK:   -5.23 KCAL/MOL
REMARK 922        TOTAL FREE ENERGY PREDICTED BY IDOCK:   -8.30 KCAL/MOL
REMARK 923 INTER-LIGAND FREE ENERGY PREDICTED BY IDOCK:   -7.55 KCAL/MOL
REMARK 924 INTRA-LIGAND FREE ENERGY PREDICTED BY IDOCK:   -0.74 KCAL/MOL
REMARK 927      BINDING AFFINITY PREDICTED BY RF-SCORE:    0.00 PKD
ROOT
HETATM    1  C   UNL     1     -11.812  15.500  64.258  1.00  0.00    -0.173 C  
HETATM    2  O   UNL     1     -12.483  14.249  64.274  1.00  0.00    -0.657 OA 
ENDROOT
BRANCH   2   3
HETATM    3  C   UNL     1     -12.006  13.299  65.138  1.00  0.00    -0.381 A  
HETATM    4  C   UNL     1     -11.972  13.355  66.539  1.00  0.00    -0.400 A  
HETATM    5  C   UNL     1     -11.409  12.287  67.249  1.00  0.00    -0.392 A  
HETATM    6  C   UNL     1     -11.428  12.204  64.481  1.00  0.00    -0.397 A  
HETATM    7  C   UNL     1     -10.831  11.164  65.196  1.00  0.00    -0.229 A  
HETATM    8  C   UNL     1     -10.789  11.226  66.586  1.00  0.00    -0.325 A  
BRANCH   4   9
HETATM    9  O   UNL     1     -12.487  14.444  67.195  1.00  0.00    -0.234 OA 
HETATM   10  C   UNL     1     -11.689  14.926  68.276  1.00  0.00    -0.315 C  
ENDBRANCH   4   9
BRANCH   8  11
HETATM   11  C   UNL     1     -10.074  10.168  67.376  1.00  0.00    -0.251 C  
BRANCH  11  12
HETATM   12  C   UNL     1      -9.212  10.741  68.486  1.00  0.00    -0.174 C  
BRANCH  12  13
HETATM   13  O   UNL     1      -9.467  10.058  69.715  1.00  0.00    -0.220 OA 
BRANCH  13  14
HETATM   14  C   UNL     1     -10.830   9.644  69.932  1.00  0.00    -0.256 C  
HETATM   15  C   UNL     1     -11.673  10.811  70.472  1.00  0.00    -0.449 C  
HETATM   16  C   UNL     1     -13.049  10.382  70.957  1.00  0.00    -0.450 C  
HETATM   17  C   UNL     1     -12.918   9.250  71.965  1.00  0.00    -0.504 C  
HETATM   18  C   UNL     1     -12.322   8.021  71.285  1.00  0.00    -0.290 C  
HETATM   19  C   UNL     1     -10.911   8.310  70.751  1.00  0.00    -0.243 C  
BRANCH  19  20
HETATM   20  N   UNL     1     -10.222   7.228  70.009  1.00  0.00    -0.197 NA 
HETATM   21  C   UNL     1     -10.911   5.938  69.940  1.00  0.00    -0.369 C  
HETATM   22  C   UNL     1     -10.386   5.127  71.114  1.00  0.00    -0.276 C  
HETATM   23  C   UNL     1      -8.978   5.662  71.344  1.00  0.00    -0.140 C  
HETATM   24  C   UNL     1      -8.868   6.920  70.476  1.00  0.00    -0.155 C  
HETATM   25  O   UNL     1      -8.019   4.681  70.964  1.00  0.00    -0.078 OA 
HETATM   26  H   UNL     1      -7.141   5.015  71.108  1.00  0.00     0.000 HD 
ENDBRANCH  19  20
ENDBRANCH  13  14
ENDBRANCH  12  13
ENDBRANCH  11  12
ENDBRANCH   8  11
ENDBRANCH   2   3
TORSDOF 7
ENDMDL
MODEL       69
REMARK 921   NORMALIZED FREE ENERGY PREDICTED BY IDOCK:   -5.23 KCAL/MOL
REMARK 922        TOTAL FREE ENERGY PREDICTED BY IDOCK:   -8.30 KCAL/MOL
REMARK 923 INTER-LIGAND FREE ENERGY PREDICTED BY IDOCK:   -9.06 KCAL/MOL
REMARK 924 INTRA-LIGAND FREE ENERGY PREDICTED BY IDOCK:    0.77 KCAL/MOL
REMARK 927      BINDING AFFINITY PREDICTED BY RF-SCORE:    0.00 PKD
ROOT
HETATM    1  C   UNL     1      -6.834  20.435  65.527  1.00  0.00    -0.250 C  
HETATM    2  O   UNL     1      -8.191  20.017  65.494  1.00  0.00    -0.258 OA 
ENDROOT
BRANCH   2   3
HETATM    3  C   UNL     1      -8.576  19.087  66.423  1.00  0.00    -0.315 A  
HETATM    4  C   UNL     1      -8.065  17.794  66.603  1.00  0.00    -0.258 A  
HETATM    5  C   UNL     1      -8.620  16.974  67.595  1.00  0.00    -0.213 A  
HETATM    6  C   UNL     1      -9.664  19.509  67.201  1.00  0.00    -0.447 A  
HETATM    7  C   UNL     1     -10.238  18.671  68.158  1.00  0.00    -0.423 A  
HETATM    8  C   UNL     1      -9.736  17.384  68.327  1.00  0.00    -0.299 A  
BRANCH   4   9
HETATM    9  O   UNL     1      -7.036  17.347  65.815  1.00  0.00    -0.246 OA 
HETATM   10  C   UNL     1      -5.812  17.101  66.508  1.00  0.00    -0.180 C  
ENDBRANCH   4   9
BRANCH   8  11
HETATM   11  C   UNL     1     -10.391  16.429  69.285  1.00  0.00    -0.292 C  
BRANCH  11  12
HETATM   12  C   UNL     1     -11.783  16.012  68.844  1.00  0.00    -0.319 C  
BRANCH  12  13
HETATM   13  O   UNL     1     -11.704  14.929  67.916  1.00  0.00    -0.340 OA 
BRANCH  13  14
HETATM   14  C   UNL     1     -12.133  13.644  68.411  1.00  0.00    -0.277 C  
HETATM   15  C   UNL     1     -11.852  13.522  69.917  1.00  0.00    -0.386 C  
HETATM   16  C   UNL     1     -12.047  12.111  70.451  1.00  0.00    -0.395 C  
HETATM   17  C   UNL     1     -11.230  11.125  69.629  1.00  0.00    -0.333 C  
HETATM   18  C   UNL     1     -11.749  11.096  68.194  1.00  0.00    -0.304 C  
HETATM   19  C   UNL     1     -11.600  12.469  67.522  1.00  0.00    -0.361 C  
BRANCH  19  20
HETATM   20  N   UNL     1     -12.117  12.618  66.141  1.00  0.00    -0.579 NA 
HETATM   21  C   UNL     1     -11.185  12.303  65.055  1.00  0.00    -0.321 C  
HETATM   22  C   UNL     1     -10.524  13.621  64.683  1.00  0.00    -0.442 C  
HETATM   23  C   UNL     1     -11.567  14.677  65.027  1.00  0.00    -0.385 C  
HETATM   24  C   UNL     1     -12.654  13.941  65.818  1.00  0.00    -0.494 C  
HETATM   25  O   UNL     1     -12.089  15.249  63.832  1.00  0.00    -0.947 OA 
HETATM   26  H   UNL     1     -12.740  15.908  64.047  1.00  0.00     0.000 HD 
ENDBRANCH  19  20
ENDBRANCH  13  14
ENDBRANCH  12  13
ENDBRANCH  11  12
ENDBRANCH   8  11
ENDBRANCH   2   3
TORSDOF 7
ENDMDL
MODEL       70
REMARK 921   NORMALIZED FREE ENERGY PREDICTED BY IDOCK:   -5.22 KCAL/MOL
REMARK 922        TOTAL FREE ENERGY PREDICTED BY IDOCK:   -8.28 KCAL/MOL
REMARK 923 INTER-LIGAND FREE ENERGY PREDICTED BY IDOCK:   -8.44 KCAL/MOL
REMARK 924 INTRA-LIGAND FREE ENERGY PREDICTED BY IDOCK:    0.17 KCAL/MOL
REMARK 927      BINDING AFFINITY PREDICTED BY RF-SCORE:    0.00 PKD
ROOT
HETATM    1  C   UNL     1     -12.235  12.575  63.331  1.00  0.00    -0.517 C  
HETATM    2  O   UNL     1     -11.087  11.782  63.593  1.00  0.00    -0.389 OA 
ENDROOT
BRANCH   2   3
HETATM    3  C   UNL     1     -10.833  11.470  64.903  1.00  0.00    -0.283 A  
HETATM    4  C   UNL     1      -9.940  10.509  65.398  1.00  0.00    -0.289 A  
HETATM    5  C   UNL     1      -9.847  10.315  66.782  1.00  0.00    -0.246 A  
HETATM    6  C   UNL     1     -11.650  12.174  65.800  1.00  0.00    -0.414 A  
HETATM    7  C   UNL     1     -11.580  11.944  67.175  1.00  0.00    -0.363 A  
HETATM    8  C   UNL     1     -10.701  10.982  67.663  1.00  0.00    -0.281 A  
BRANCH   4   9
HETATM    9  O   UNL     1      -9.172   9.775  64.530  1.00  0.00    -0.243 OA 
HETATM   10  C   UNL     1      -7.840   9.522  64.976  1.00  0.00    -0.117 C  
ENDBRANCH   4   9
BRANCH   8  11
HETATM   11  C   UNL     1     -10.670  10.649  69.128  1.00  0.00    -0.264 C  
BRANCH  11  12
HETATM   12  C   UNL     1     -11.982  10.950  69.830  1.00  0.00    -0.351 C  
BRANCH  12  13
HETATM   13  O   UNL     1     -12.395  12.289  69.554  1.00  0.00    -0.125 OA 
BRANCH  13  14
HETATM   14  C   UNL     1     -12.227  13.233  70.631  1.00  0.00    -0.338 C  
HETATM   15  C   UNL     1     -13.306  13.026  71.706  1.00  0.00    -0.468 C  
HETATM   16  C   UNL     1     -13.341  14.140  72.741  1.00  0.00    -0.618 C  
HETATM   17  C   UNL     1     -13.466  15.490  72.051  1.00  0.00    -0.578 C  
HETATM   18  C   UNL     1     -12.222  15.754  71.207  1.00  0.00    -0.491 C  
HETATM   19  C   UNL     1     -12.066  14.699  70.102  1.00  0.00    -0.327 C  
BRANCH  19  20
HETATM   20  N   UNL     1     -10.868  14.786  69.233  1.00  0.00    -0.258 NA 
HETATM   21  C   UNL     1      -9.785  15.657  69.694  1.00  0.00    -0.276 C  
HETATM   22  C   UNL     1     -10.042  17.010  69.051  1.00  0.00    -0.290 C  
HETATM   23  C   UNL     1     -10.773  16.681  67.756  1.00  0.00    -0.327 C  
HETATM   24  C   UNL     1     -11.131  15.194  67.852  1.00  0.00    -0.321 C  
HETATM   25  O   UNL     1      -9.926  16.942  66.642  1.00  0.00    -0.271 OA 
HETATM   26  H   UNL     1     -10.382  16.736  65.834  1.00  0.00     0.000 HD 
ENDBRANCH  19  20
ENDBRANCH  13  14
ENDBRANCH  12  13
ENDBRANCH  11  12
ENDBRANCH   8  11
ENDBRANCH   2   3
TORSDOF 7
ENDMDL
MODEL       71
REMARK 921   NORMALIZED FREE ENERGY PREDICTED BY IDOCK:   -5.21 KCAL/MOL
REMARK 922        TOTAL FREE ENERGY PREDICTED BY IDOCK:   -8.26 KCAL/MOL
REMARK 923 INTER-LIGAND FREE ENERGY PREDICTED BY IDOCK:   -7.63 KCAL/MOL
REMARK 924 INTRA-LIGAND FREE ENERGY PREDICTED BY IDOCK:   -0.63 KCAL/MOL
REMARK 927      BINDING AFFINITY PREDICTED BY RF-SCORE:    0.00 PKD
ROOT
HETATM    1  C   UNL     1     -10.333  19.085  66.280  1.00  0.00    -0.459 C  
HETATM    2  O   UNL     1      -9.679  17.947  65.739  1.00  0.00    -0.527 OA 
ENDROOT
BRANCH   2   3
HETATM    3  C   UNL     1     -10.171  16.720  66.098  1.00  0.00    -0.351 A  
HETATM    4  C   UNL     1      -9.986  16.044  67.312  1.00  0.00    -0.242 A  
HETATM    5  C   UNL     1     -10.548  14.771  67.476  1.00  0.00    -0.259 A  
HETATM    6  C   UNL     1     -10.868  16.085  65.059  1.00  0.00    -0.421 A  
HETATM    7  C   UNL     1     -11.388  14.800  65.216  1.00  0.00    -0.363 A  
HETATM    8  C   UNL     1     -11.194  14.126  66.418  1.00  0.00    -0.328 A  
BRANCH   4   9
HETATM    9  O   UNL     1      -9.263  16.630  68.320  1.00  0.00    -0.206 OA 
HETATM   10  C   UNL     1      -8.293  15.781  68.934  1.00  0.00    -0.213 C  
ENDBRANCH   4   9
BRANCH   8  11
HETATM   11  C   UNL     1     -11.663  12.709  66.585  1.00  0.00    -0.464 C  
BRANCH  11  12
HETATM   12  C   UNL     1     -11.401  12.159  67.975  1.00  0.00    -0.295 C  
BRANCH  12  13
HETATM   13  O   UNL     1     -12.250  11.040  68.234  1.00  0.00    -0.582 OA 
BRANCH  13  14
HETATM   14  C   UNL     1     -11.693  10.008  69.072  1.00  0.00     0.167 C  
HETATM   15  C   UNL     1     -11.600  10.485  70.530  1.00  0.00    -0.441 C  
HETATM   16  C   UNL     1     -10.796   9.546  71.416  1.00  0.00    -0.382 C  
HETATM   17  C   UNL     1      -9.427   9.293  70.803  1.00  0.00    -0.336 C  
HETATM   18  C   UNL     1      -9.587   8.563  69.472  1.00  0.00    -0.170 C  
HETATM   19  C   UNL     1     -10.378   9.410  68.465  1.00  0.00    -0.209 C  
BRANCH  19  20
HETATM   20  N   UNL     1     -10.669   8.811  67.141  1.00  0.00    -0.221 NA 
HETATM   21  C   UNL     1     -10.668   7.349  67.068  1.00  0.00    -0.319 C  
HETATM   22  C   UNL     1      -9.258   6.956  66.659  1.00  0.00    -0.185 C  
HETATM   23  C   UNL     1      -8.757   8.142  65.845  1.00  0.00    -0.156 C  
HETATM   24  C   UNL     1      -9.792   9.253  66.054  1.00  0.00    -0.293 C  
HETATM   25  O   UNL     1      -8.652   7.779  64.472  1.00  0.00    -0.376 OA 
HETATM   26  H   UNL     1      -8.339   8.519  63.966  1.00  0.00     0.000 HD 
ENDBRANCH  19  20
ENDBRANCH  13  14
ENDBRANCH  12  13
ENDBRANCH  11  12
ENDBRANCH   8  11
ENDBRANCH   2   3
TORSDOF 7
ENDMDL
MODEL       72
REMARK 921   NORMALIZED FREE ENERGY PREDICTED BY IDOCK:   -5.20 KCAL/MOL
REMARK 922        TOTAL FREE ENERGY PREDICTED BY IDOCK:   -8.25 KCAL/MOL
REMARK 923 INTER-LIGAND FREE ENERGY PREDICTED BY IDOCK:   -7.87 KCAL/MOL
REMARK 924 INTRA-LIGAND FREE ENERGY PREDICTED BY IDOCK:   -0.38 KCAL/MOL
REMARK 927      BINDING AFFINITY PREDICTED BY RF-SCORE:    0.00 PKD
ROOT
HETATM    1  C   UNL     1      -9.903   3.972  71.548  1.00  0.00    -0.181 C  
HETATM    2  O   UNL     1      -8.981   4.912  71.018  1.00  0.00    -0.128 OA 
ENDROOT
BRANCH   2   3
HETATM    3  C   UNL     1      -9.482   6.131  70.645  1.00  0.00    -0.168 A  
HETATM    4  C   UNL     1      -8.966   7.013  69.685  1.00  0.00    -0.141 A  
HETATM    5  C   UNL     1      -9.611   8.238  69.469  1.00  0.00    -0.171 A  
HETATM    6  C   UNL     1     -10.597   6.518  71.404  1.00  0.00    -0.266 A  
HETATM    7  C   UNL     1     -11.207   7.759  71.212  1.00  0.00    -0.280 A  
HETATM    8  C   UNL     1     -10.686   8.637  70.266  1.00  0.00    -0.243 A  
BRANCH   4   9
HETATM    9  O   UNL     1      -7.846   6.671  68.971  1.00  0.00    -0.107 OA 
HETATM   10  C   UNL     1      -8.010   6.688  67.553  1.00  0.00    -0.115 C  
ENDBRANCH   4   9
BRANCH   8  11
HETATM   11  C   UNL     1     -11.266  10.013  70.101  1.00  0.00    -0.367 C  
BRANCH  11  12
HETATM   12  C   UNL     1     -11.470  10.398  68.646  1.00  0.00    -0.172 C  
BRANCH  12  13
HETATM   13  O   UNL     1     -12.281  11.570  68.552  1.00  0.00    -0.524 OA 
BRANCH  13  14
HETATM   14  C   UNL     1     -11.640  12.809  68.916  1.00  0.00    -0.316 C  
HETATM   15  C   UNL     1     -12.004  13.205  70.356  1.00  0.00    -0.343 C  
HETATM   16  C   UNL     1     -11.568  14.617  70.717  1.00  0.00    -0.289 C  
HETATM   17  C   UNL     1     -12.105  15.606  69.694  1.00  0.00    -0.329 C  
HETATM   18  C   UNL     1     -11.484  15.322  68.328  1.00  0.00    -0.359 C  
HETATM   19  C   UNL     1     -11.856  13.918  67.830  1.00  0.00    -0.378 C  
BRANCH  19  20
HETATM   20  N   UNL     1     -11.277  13.470  66.541  1.00  0.00    -0.301 NA 
HETATM   21  C   UNL     1     -10.392  14.415  65.857  1.00  0.00    -0.314 C  
HETATM   22  C   UNL     1     -11.280  15.196  64.901  1.00  0.00    -0.424 C  
HETATM   23  C   UNL     1     -12.407  14.230  64.559  1.00  0.00    -0.410 C  
HETATM   24  C   UNL     1     -12.254  13.056  65.532  1.00  0.00    -0.469 C  
HETATM   25  O   UNL     1     -12.287  13.804  63.206  1.00  0.00    -1.069 OA 
HETATM   26  H   UNL     1     -12.990  13.201  62.993  1.00  0.00     0.000 HD 
ENDBRANCH  19  20
ENDBRANCH  13  14
ENDBRANCH  12  13
ENDBRANCH  11  12
ENDBRANCH   8  11
ENDBRANCH   2   3
TORSDOF 7
ENDMDL
MODEL       73
REMARK 921   NORMALIZED FREE ENERGY PREDICTED BY IDOCK:   -5.19 KCAL/MOL
REMARK 922        TOTAL FREE ENERGY PREDICTED BY IDOCK:   -8.23 KCAL/MOL
REMARK 923 INTER-LIGAND FREE ENERGY PREDICTED BY IDOCK:   -7.44 KCAL/MOL
REMARK 924 INTRA-LIGAND FREE ENERGY PREDICTED BY IDOCK:   -0.80 KCAL/MOL
REMARK 927      BINDING AFFINITY PREDICTED BY RF-SCORE:    0.00 PKD
ROOT
HETATM    1  C   UNL     1     -10.665   6.971  73.374  1.00  0.00    -0.345 C  
HETATM    2  O   UNL     1     -11.488   7.058  72.220  1.00  0.00    -0.258 OA 
ENDROOT
BRANCH   2   3
HETATM    3  C   UNL     1     -11.776   8.314  71.756  1.00  0.00    -0.302 A  
HETATM    4  C   UNL     1     -11.016   9.098  70.877  1.00  0.00    -0.282 A  
HETATM    5  C   UNL     1     -11.468  10.382  70.545  1.00  0.00    -0.431 A  
HETATM    6  C   UNL     1     -12.940   8.853  72.324  1.00  0.00    -0.479 A  
HETATM    7  C   UNL     1     -13.360  10.149  72.021  1.00  0.00    -0.492 A  
HETATM    8  C   UNL     1     -12.598  10.929  71.156  1.00  0.00    -0.532 A  
BRANCH   4   9
HETATM    9  O   UNL     1      -9.848   8.605  70.353  1.00  0.00    -0.175 OA 
HETATM   10  C   UNL     1      -8.768   9.537  70.314  1.00  0.00    -0.235 C  
ENDBRANCH   4   9
BRANCH   8  11
HETATM   11  C   UNL     1     -12.976  12.357  70.882  1.00  0.00    -0.061 C  
BRANCH  11  12
HETATM   12  C   UNL     1     -11.828  13.174  70.317  1.00  0.00    -0.224 C  
BRANCH  12  13
HETATM   13  O   UNL     1     -12.190  13.728  69.052  1.00  0.00    -0.343 OA 
BRANCH  13  14
HETATM   14  C   UNL     1     -11.135  14.397  68.332  1.00  0.00    -0.255 C  
HETATM   15  C   UNL     1     -11.469  15.884  68.138  1.00  0.00    -0.281 C  
HETATM   16  C   UNL     1     -10.524  16.590  67.177  1.00  0.00    -0.300 C  
HETATM   17  C   UNL     1     -10.462  15.835  65.858  1.00  0.00    -0.366 C  
HETATM   18  C   UNL     1      -9.858  14.452  66.084  1.00  0.00    -0.340 C  
HETATM   19  C   UNL     1     -10.726  13.616  67.037  1.00  0.00    -0.278 C  
BRANCH  19  20
HETATM   20  N   UNL     1     -10.239  12.265  67.403  1.00  0.00    -0.202 NA 
HETATM   21  C   UNL     1      -8.844  11.959  67.075  1.00  0.00    -0.190 C  
HETATM   22  C   UNL     1      -8.877  11.304  65.704  1.00  0.00    -0.124 C  
HETATM   23  C   UNL     1     -10.242  10.630  65.640  1.00  0.00    -0.253 C  
HETATM   24  C   UNL     1     -11.018  11.154  66.853  1.00  0.00    -0.273 C  
HETATM   25  O   UNL     1     -10.087   9.216  65.690  1.00  0.00    -0.416 OA 
HETATM   26  H   UNL     1     -10.939   8.797  65.650  1.00  0.00     0.000 HD 
ENDBRANCH  19  20
ENDBRANCH  13  14
ENDBRANCH  12  13
ENDBRANCH  11  12
ENDBRANCH   8  11
ENDBRANCH   2   3
TORSDOF 7
ENDMDL
MODEL       74
REMARK 921   NORMALIZED FREE ENERGY PREDICTED BY IDOCK:   -5.18 KCAL/MOL
REMARK 922        TOTAL FREE ENERGY PREDICTED BY IDOCK:   -8.23 KCAL/MOL
REMARK 923 INTER-LIGAND FREE ENERGY PREDICTED BY IDOCK:   -7.84 KCAL/MOL
REMARK 924 INTRA-LIGAND FREE ENERGY PREDICTED BY IDOCK:   -0.39 KCAL/MOL
REMARK 927      BINDING AFFINITY PREDICTED BY RF-SCORE:    0.00 PKD
ROOT
HETATM    1  C   UNL     1      -9.560   5.016  68.873  1.00  0.00    -0.151 C  
HETATM    2  O   UNL     1     -10.766   5.391  69.521  1.00  0.00    -0.295 OA 
ENDROOT
BRANCH   2   3
HETATM    3  C   UNL     1     -10.960   6.729  69.745  1.00  0.00    -0.297 A  
HETATM    4  C   UNL     1     -11.672   7.327  70.794  1.00  0.00    -0.299 A  
HETATM    5  C   UNL     1     -11.785   8.723  70.831  1.00  0.00    -0.299 A  
HETATM    6  C   UNL     1     -10.426   7.535  68.730  1.00  0.00    -0.212 A  
HETATM    7  C   UNL     1     -10.581   8.923  68.752  1.00  0.00    -0.185 A  
HETATM    8  C   UNL     1     -11.297   9.514  69.788  1.00  0.00    -0.117 A  
BRANCH   4   9
HETATM    9  O   UNL     1     -12.245   6.548  71.767  1.00  0.00    -0.344 OA 
HETATM   10  C   UNL     1     -11.323   5.961  72.685  1.00  0.00    -0.292 C  
ENDBRANCH   4   9
BRANCH   8  11
HETATM   11  C   UNL     1     -11.557  10.994  69.790  1.00  0.00    -0.401 C  
BRANCH  11  12
HETATM   12  C   UNL     1     -10.462  11.786  69.097  1.00  0.00    -0.024 C  
BRANCH  12  13
HETATM   13  O   UNL     1     -10.980  13.026  68.612  1.00  0.00    -0.247 OA 
BRANCH  13  14
HETATM   14  C   UNL     1     -10.291  13.596  67.482  1.00  0.00    -0.241 C  
HETATM   15  C   UNL     1      -9.424  14.787  67.920  1.00  0.00    -0.201 C  
HETATM   16  C   UNL     1      -8.869  15.586  66.750  1.00  0.00    -0.297 C  
HETATM   17  C   UNL     1      -9.999  16.005  65.822  1.00  0.00    -0.382 C  
HETATM   18  C   UNL     1     -10.643  14.767  65.203  1.00  0.00    -0.439 C  
HETATM   19  C   UNL     1     -11.262  13.865  66.282  1.00  0.00    -0.309 C  
BRANCH  19  20
HETATM   20  N   UNL     1     -11.875  12.590  65.842  1.00  0.00    -0.460 NA 
HETATM   21  C   UNL     1     -10.954  11.507  65.487  1.00  0.00    -0.229 C  
HETATM   22  C   UNL     1     -10.732  11.629  63.988  1.00  0.00    -0.442 C  
HETATM   23  C   UNL     1     -12.019  12.254  63.465  1.00  0.00    -0.533 C  
HETATM   24  C   UNL     1     -12.796  12.701  64.709  1.00  0.00    -0.265 C  
HETATM   25  O   UNL     1     -12.752  11.296  62.710  1.00  0.00    -0.876 OA 
HETATM   26  H   UNL     1     -13.555  11.686  62.384  1.00  0.00     0.000 HD 
ENDBRANCH  19  20
ENDBRANCH  13  14
ENDBRANCH  12  13
ENDBRANCH  11  12
ENDBRANCH   8  11
ENDBRANCH   2   3
TORSDOF 7
ENDMDL
MODEL       75
REMARK 921   NORMALIZED FREE ENERGY PREDICTED BY IDOCK:   -5.18 KCAL/MOL
REMARK 922        TOTAL FREE ENERGY PREDICTED BY IDOCK:   -8.22 KCAL/MOL
REMARK 923 INTER-LIGAND FREE ENERGY PREDICTED BY IDOCK:   -7.94 KCAL/MOL
REMARK 924 INTRA-LIGAND FREE ENERGY PREDICTED BY IDOCK:   -0.28 KCAL/MOL
REMARK 927      BINDING AFFINITY PREDICTED BY RF-SCORE:    0.00 PKD
ROOT
HETATM    1  C   UNL     1     -12.554  11.782  63.305  1.00  0.00    -0.254 C  
HETATM    2  O   UNL     1     -11.317  12.478  63.324  1.00  0.00    -0.456 OA 
ENDROOT
BRANCH   2   3
HETATM    3  C   UNL     1     -10.952  13.061  64.510  1.00  0.00    -0.358 A  
HETATM    4  C   UNL     1     -11.153  14.389  64.909  1.00  0.00    -0.398 A  
HETATM    5  C   UNL     1     -10.672  14.805  66.158  1.00  0.00    -0.314 A  
HETATM    6  C   UNL     1     -10.228  12.195  65.343  1.00  0.00    -0.299 A  
HETATM    7  C   UNL     1      -9.715  12.630  66.567  1.00  0.00    -0.256 A  
HETATM    8  C   UNL     1      -9.907  13.952  66.957  1.00  0.00    -0.257 A  
BRANCH   4   9
HETATM    9  O   UNL     1     -11.814  15.262  64.083  1.00  0.00    -0.406 OA 
HETATM   10  C   UNL     1     -11.517  16.640  64.306  1.00  0.00     0.443 C  
ENDBRANCH   4   9
BRANCH   8  11
HETATM   11  C   UNL     1      -9.290  14.471  68.225  1.00  0.00    -0.203 C  
BRANCH  11  12
HETATM   12  C   UNL     1     -10.314  14.730  69.316  1.00  0.00    -0.206 C  
BRANCH  12  13
HETATM   13  O   UNL     1     -11.252  13.655  69.380  1.00  0.00    -0.249 OA 
BRANCH  13  14
HETATM   14  C   UNL     1     -12.393  13.866  70.235  1.00  0.00    -0.345 C  
HETATM   15  C   UNL     1     -12.391  15.295  70.800  1.00  0.00    -0.433 C  
HETATM   16  C   UNL     1     -13.421  15.506  71.900  1.00  0.00    -0.576 C  
HETATM   17  C   UNL     1     -13.247  14.456  72.986  1.00  0.00    -0.547 C  
HETATM   18  C   UNL     1     -13.537  13.070  72.414  1.00  0.00    -0.628 C  
HETATM   19  C   UNL     1     -12.552  12.717  71.289  1.00  0.00    -0.250 C  
BRANCH  19  20
HETATM   20  N   UNL     1     -12.743  11.424  70.590  1.00  0.00    -0.239 NA 
HETATM   21  C   UNL     1     -12.981  10.251  71.434  1.00  0.00    -0.440 C  
HETATM   22  C   UNL     1     -11.614   9.633  71.679  1.00  0.00    -0.406 C  
HETATM   23  C   UNL     1     -10.803  10.010  70.446  1.00  0.00    -0.318 C  
HETATM   24  C   UNL     1     -11.653  11.038  69.691  1.00  0.00    -0.318 C  
HETATM   25  O   UNL     1     -10.561   8.852  69.653  1.00  0.00    -0.223 OA 
HETATM   26  H   UNL     1     -10.055   9.087  68.884  1.00  0.00     0.000 HD 
ENDBRANCH  19  20
ENDBRANCH  13  14
ENDBRANCH  12  13
ENDBRANCH  11  12
ENDBRANCH   8  11
ENDBRANCH   2   3
TORSDOF 7
ENDMDL
MODEL       76
REMARK 921   NORMALIZED FREE ENERGY PREDICTED BY IDOCK:   -5.18 KCAL/MOL
REMARK 922        TOTAL FREE ENERGY PREDICTED BY IDOCK:   -8.22 KCAL/MOL
REMARK 923 INTER-LIGAND FREE ENERGY PREDICTED BY IDOCK:   -7.35 KCAL/MOL
REMARK 924 INTRA-LIGAND FREE ENERGY PREDICTED BY IDOCK:   -0.87 KCAL/MOL
REMARK 927      BINDING AFFINITY PREDICTED BY RF-SCORE:    0.00 PKD
ROOT
HETATM    1  C   UNL     1      -8.392   8.556  67.511  1.00  0.00    -0.128 C  
HETATM    2  O   UNL     1      -9.792   8.634  67.736  1.00  0.00    -0.159 OA 
ENDROOT
BRANCH   2   3
HETATM    3  C   UNL     1     -10.398   9.833  67.465  1.00  0.00    -0.237 A  
HETATM    4  C   UNL     1     -11.333  10.518  68.255  1.00  0.00    -0.264 A  
HETATM    5  C   UNL     1     -11.866  11.725  67.784  1.00  0.00    -0.266 A  
HETATM    6  C   UNL     1     -10.062  10.342  66.202  1.00  0.00    -0.307 A  
HETATM    7  C   UNL     1     -10.631  11.523  65.724  1.00  0.00    -0.315 A  
HETATM    8  C   UNL     1     -11.566  12.196  66.504  1.00  0.00    -0.425 A  
BRANCH   4   9
HETATM    9  O   UNL     1     -11.711  10.006  69.470  1.00  0.00    -0.131 OA 
HETATM   10  C   UNL     1     -10.840  10.327  70.553  1.00  0.00    -0.211 C  
ENDBRANCH   4   9
BRANCH   8  11
HETATM   11  C   UNL     1     -12.261  13.420  65.978  1.00  0.00    -0.491 C  
BRANCH  11  12
HETATM   12  C   UNL     1     -11.322  14.596  65.787  1.00  0.00    -0.340 C  
BRANCH  12  13
HETATM   13  O   UNL     1     -11.053  15.224  67.041  1.00  0.00    -0.327 OA 
BRANCH  13  14
HETATM   14  C   UNL     1      -9.689  15.634  67.260  1.00  0.00    -0.219 C  
HETATM   15  C   UNL     1      -8.790  14.413  67.515  1.00  0.00    -0.197 C  
HETATM   16  C   UNL     1      -7.397  14.786  67.998  1.00  0.00    -0.140 C  
HETATM   17  C   UNL     1      -7.492  15.695  69.214  1.00  0.00    -0.216 C  
HETATM   18  C   UNL     1      -8.154  17.013  68.819  1.00  0.00    -0.250 C  
HETATM   19  C   UNL     1      -9.588  16.786  68.318  1.00  0.00    -0.244 C  
BRANCH  19  20
HETATM   20  N   UNL     1     -10.344  17.967  67.840  1.00  0.00    -0.375 NA 
HETATM   21  C   UNL     1     -10.255  18.268  66.409  1.00  0.00    -0.403 C  
HETATM   22  C   UNL     1      -9.108  19.255  66.265  1.00  0.00    -0.354 C  
HETATM   23  C   UNL     1      -9.080  19.998  67.595  1.00  0.00    -0.342 C  
HETATM   24  C   UNL     1     -10.026  19.225  68.520  1.00  0.00    -0.433 C  
HETATM   25  O   UNL     1      -9.516  21.341  67.409  1.00  0.00    -0.569 OA 
HETATM   26  H   UNL     1      -9.498  21.804  68.239  1.00  0.00     0.000 HD 
ENDBRANCH  19  20
ENDBRANCH  13  14
ENDBRANCH  12  13
ENDBRANCH  11  12
ENDBRANCH   8  11
ENDBRANCH   2   3
TORSDOF 7
ENDMDL
MODEL       77
REMARK 921   NORMALIZED FREE ENERGY PREDICTED BY IDOCK:   -5.17 KCAL/MOL
REMARK 922        TOTAL FREE ENERGY PREDICTED BY IDOCK:   -8.21 KCAL/MOL
REMARK 923 INTER-LIGAND FREE ENERGY PREDICTED BY IDOCK:   -7.25 KCAL/MOL
REMARK 924 INTRA-LIGAND FREE ENERGY PREDICTED BY IDOCK:   -0.96 KCAL/MOL
REMARK 927      BINDING AFFINITY PREDICTED BY RF-SCORE:    0.00 PKD
ROOT
HETATM    1  C   UNL     1      -9.116  10.428  62.373  1.00  0.00    -0.286 C  
HETATM    2  O   UNL     1      -9.765  11.587  62.877  1.00  0.00    -0.372 OA 
ENDROOT
BRANCH   2   3
HETATM    3  C   UNL     1     -10.247  11.520  64.158  1.00  0.00    -0.325 A  
HETATM    4  C   UNL     1     -10.843  12.548  64.903  1.00  0.00    -0.293 A  
HETATM    5  C   UNL     1     -11.246  12.288  66.220  1.00  0.00    -0.367 A  
HETATM    6  C   UNL     1     -10.019  10.277  64.764  1.00  0.00    -0.392 A  
HETATM    7  C   UNL     1     -10.384  10.040  66.090  1.00  0.00    -0.225 A  
HETATM    8  C   UNL     1     -10.965  11.064  66.832  1.00  0.00    -0.311 A  
BRANCH   4   9
HETATM    9  O   UNL     1     -11.027  13.785  64.341  1.00  0.00    -0.390 OA 
HETATM   10  C   UNL     1     -12.293  14.385  64.613  1.00  0.00    -0.418 C  
ENDBRANCH   4   9
BRANCH   8  11
HETATM   11  C   UNL     1     -11.286  10.867  68.286  1.00  0.00    -0.347 C  
BRANCH  11  12
HETATM   12  C   UNL     1     -10.087  11.091  69.190  1.00  0.00    -0.146 C  
BRANCH  12  13
HETATM   13  O   UNL     1      -9.909   9.974  70.062  1.00  0.00    -0.241 OA 
BRANCH  13  14
HETATM   14  C   UNL     1     -11.078   9.163  70.292  1.00  0.00    -0.239 C  
HETATM   15  C   UNL     1     -11.711   9.496  71.653  1.00  0.00    -0.460 C  
HETATM   16  C   UNL     1     -12.794   8.511  72.067  1.00  0.00    -0.414 C  
HETATM   17  C   UNL     1     -12.254   7.089  72.013  1.00  0.00    -0.317 C  
HETATM   18  C   UNL     1     -11.900   6.727  70.574  1.00  0.00    -0.418 C  
HETATM   19  C   UNL     1     -10.797   7.645  70.025  1.00  0.00    -0.243 C  
BRANCH  19  20
HETATM   20  N   UNL     1     -10.385   7.456  68.614  1.00  0.00    -0.195 NA 
HETATM   21  C   UNL     1     -11.009   6.346  67.891  1.00  0.00    -0.325 C  
HETATM   22  C   UNL     1     -10.072   5.162  68.063  1.00  0.00    -0.189 C  
HETATM   23  C   UNL     1      -8.694   5.791  68.225  1.00  0.00    -0.111 C  
HETATM   24  C   UNL     1      -8.945   7.292  68.405  1.00  0.00    -0.126 C  
HETATM   25  O   UNL     1      -7.903   5.530  67.070  1.00  0.00    -0.099 OA 
HETATM   26  H   UNL     1      -7.044   5.922  67.172  1.00  0.00     0.000 HD 
ENDBRANCH  19  20
ENDBRANCH  13  14
ENDBRANCH  12  13
ENDBRANCH  11  12
ENDBRANCH   8  11
ENDBRANCH   2   3
TORSDOF 7
ENDMDL
MODEL       78
REMARK 921   NORMALIZED FREE ENERGY PREDICTED BY IDOCK:   -5.17 KCAL/MOL
REMARK 922        TOTAL FREE ENERGY PREDICTED BY IDOCK:   -8.20 KCAL/MOL
REMARK 923 INTER-LIGAND FREE ENERGY PREDICTED BY IDOCK:   -7.68 KCAL/MOL
REMARK 924 INTRA-LIGAND FREE ENERGY PREDICTED BY IDOCK:   -0.52 KCAL/MOL
REMARK 927      BINDING AFFINITY PREDICTED BY RF-SCORE:    0.00 PKD
ROOT
HETATM    1  C   UNL     1     -10.753   6.113  73.326  1.00  0.00    -0.260 C  
HETATM    2  O   UNL     1     -11.775   6.223  72.347  1.00  0.00    -0.295 OA 
ENDROOT
BRANCH   2   3
HETATM    3  C   UNL     1     -11.921   7.440  71.736  1.00  0.00    -0.305 A  
HETATM    4  C   UNL     1     -11.139   7.981  70.707  1.00  0.00    -0.259 A  
HETATM    5  C   UNL     1     -11.430   9.267  70.234  1.00  0.00    -0.198 A  
HETATM    6  C   UNL     1     -12.940   8.218  72.305  1.00  0.00    -0.289 A  
HETATM    7  C   UNL     1     -13.196   9.515  71.857  1.00  0.00    -0.524 A  
HETATM    8  C   UNL     1     -12.411  10.055  70.842  1.00  0.00    -0.431 A  
BRANCH   4   9
HETATM    9  O   UNL     1     -10.105   7.253  70.175  1.00  0.00    -0.187 OA 
HETATM   10  C   UNL     1      -9.490   7.835  69.026  1.00  0.00    -0.150 C  
ENDBRANCH   4   9
BRANCH   8  11
HETATM   11  C   UNL     1     -12.604  11.478  70.401  1.00  0.00    -0.238 C  
BRANCH  11  12
HETATM   12  C   UNL     1     -11.951  11.776  69.064  1.00  0.00    -0.280 C  
BRANCH  12  13
HETATM   13  O   UNL     1     -11.157  12.960  69.154  1.00  0.00    -0.243 OA 
BRANCH  13  14
HETATM   14  C   UNL     1     -10.060  13.053  68.223  1.00  0.00    -0.239 C  
HETATM   15  C   UNL     1      -8.814  12.346  68.780  1.00  0.00     0.152 C  
HETATM   16  C   UNL     1      -7.557  12.619  67.968  1.00  0.00    -0.132 C  
HETATM   17  C   UNL     1      -7.349  14.118  67.816  1.00  0.00    -0.177 C  
HETATM   18  C   UNL     1      -8.497  14.717  67.008  1.00  0.00    -0.250 C  
HETATM   19  C   UNL     1      -9.842  14.523  67.724  1.00  0.00    -0.220 C  
BRANCH  19  20
HETATM   20  N   UNL     1     -11.064  15.000  67.034  1.00  0.00    -0.330 NA 
HETATM   21  C   UNL     1     -11.777  14.020  66.212  1.00  0.00    -0.387 C  
HETATM   22  C   UNL     1     -11.222  14.177  64.805  1.00  0.00    -0.379 C  
HETATM   23  C   UNL     1     -10.791  15.637  64.731  1.00  0.00    -0.355 C  
HETATM   24  C   UNL     1     -10.872  16.165  66.167  1.00  0.00    -0.138 C  
HETATM   25  O   UNL     1     -11.661  16.355  63.862  1.00  0.00    -1.564 OA 
HETATM   26  H   UNL     1     -11.391  17.265  63.816  1.00  0.00     0.000 HD 
ENDBRANCH  19  20
ENDBRANCH  13  14
ENDBRANCH  12  13
ENDBRANCH  11  12
ENDBRANCH   8  11
ENDBRANCH   2   3
TORSDOF 7
ENDMDL
MODEL       79
REMARK 921   NORMALIZED FREE ENERGY PREDICTED BY IDOCK:   -5.16 KCAL/MOL
REMARK 922        TOTAL FREE ENERGY PREDICTED BY IDOCK:   -8.20 KCAL/MOL
REMARK 923 INTER-LIGAND FREE ENERGY PREDICTED BY IDOCK:   -7.35 KCAL/MOL
REMARK 924 INTRA-LIGAND FREE ENERGY PREDICTED BY IDOCK:   -0.85 KCAL/MOL
REMARK 927      BINDING AFFINITY PREDICTED BY RF-SCORE:    0.00 PKD
ROOT
HETATM    1  C   UNL     1      -8.890   5.639  68.387  1.00  0.00    -0.108 C  
HETATM    2  O   UNL     1     -10.076   6.352  68.704  1.00  0.00    -0.144 OA 
ENDROOT
BRANCH   2   3
HETATM    3  C   UNL     1     -10.169   7.638  68.240  1.00  0.00    -0.195 A  
HETATM    4  C   UNL     1     -10.674   8.758  68.916  1.00  0.00    -0.087 A  
HETATM    5  C   UNL     1     -10.715   9.992  68.253  1.00  0.00    -0.280 A  
HETATM    6  C   UNL     1      -9.768   7.767  66.902  1.00  0.00    -0.282 A  
HETATM    7  C   UNL     1      -9.852   8.991  66.237  1.00  0.00    -0.361 A  
HETATM    8  C   UNL     1     -10.365  10.099  66.906  1.00  0.00    -0.298 A  
BRANCH   4   9
HETATM    9  O   UNL     1     -11.119   8.637  70.208  1.00  0.00    -0.247 OA 
HETATM   10  C   UNL     1     -11.148   9.857  70.948  1.00  0.00    -0.348 C  
ENDBRANCH   4   9
BRANCH   8  11
HETATM   11  C   UNL     1     -10.551  11.405  66.188  1.00  0.00    -0.316 C  
BRANCH  11  12
HETATM   12  C   UNL     1      -9.961  12.583  66.942  1.00  0.00    -0.224 C  
BRANCH  12  13
HETATM   13  O   UNL     1     -10.982  13.527  67.264  1.00  0.00    -0.273 OA 
BRANCH  13  14
HETATM   14  C   UNL     1     -11.016  13.977  68.633  1.00  0.00    -0.263 C  
HETATM   15  C   UNL     1     -12.020  13.150  69.451  1.00  0.00    -0.347 C  
HETATM   16  C   UNL     1     -12.288  13.728  70.832  1.00  0.00    -0.456 C  
HETATM   17  C   UNL     1     -12.702  15.187  70.715  1.00  0.00    -0.463 C  
HETATM   18  C   UNL     1     -11.546  16.006  70.146  1.00  0.00    -0.324 C  
HETATM   19  C   UNL     1     -11.174  15.532  68.733  1.00  0.00    -0.315 C  
BRANCH  19  20
HETATM   20  N   UNL     1     -10.025  16.192  68.068  1.00  0.00    -0.235 NA 
HETATM   21  C   UNL     1      -9.405  17.308  68.785  1.00  0.00    -0.239 C  
HETATM   22  C   UNL     1     -10.099  18.562  68.278  1.00  0.00    -0.424 C  
HETATM   23  C   UNL     1     -10.526  18.210  66.859  1.00  0.00    -0.357 C  
HETATM   24  C   UNL     1     -10.297  16.701  66.721  1.00  0.00    -0.295 C  
HETATM   25  O   UNL     1      -9.746  18.944  65.922  1.00  0.00    -0.474 OA 
HETATM   26  H   UNL     1     -10.013  18.724  65.037  1.00  0.00     0.000 HD 
ENDBRANCH  19  20
ENDBRANCH  13  14
ENDBRANCH  12  13
ENDBRANCH  11  12
ENDBRANCH   8  11
ENDBRANCH   2   3
TORSDOF 7
ENDMDL
MODEL       80
REMARK 921   NORMALIZED FREE ENERGY PREDICTED BY IDOCK:   -5.15 KCAL/MOL
REMARK 922        TOTAL FREE ENERGY PREDICTED BY IDOCK:   -8.18 KCAL/MOL
REMARK 923 INTER-LIGAND FREE ENERGY PREDICTED BY IDOCK:   -7.77 KCAL/MOL
REMARK 924 INTRA-LIGAND FREE ENERGY PREDICTED BY IDOCK:   -0.41 KCAL/MOL
REMARK 927      BINDING AFFINITY PREDICTED BY RF-SCORE:    0.00 PKD
ROOT
HETATM    1  C   UNL     1     -10.809   6.637  73.370  1.00  0.00    -0.236 C  
HETATM    2  O   UNL     1     -11.556   6.675  72.163  1.00  0.00    -0.274 OA 
ENDROOT
BRANCH   2   3
HETATM    3  C   UNL     1     -11.694   7.895  71.556  1.00  0.00    -0.283 A  
HETATM    4  C   UNL     1     -10.992   8.383  70.444  1.00  0.00    -0.239 A  
HETATM    5  C   UNL     1     -11.256   9.681  69.989  1.00  0.00    -0.271 A  
HETATM    6  C   UNL     1     -12.601   8.736  72.218  1.00  0.00    -0.460 A  
HETATM    7  C   UNL     1     -12.825  10.043  71.783  1.00  0.00    -0.546 A  
HETATM    8  C   UNL     1     -12.120  10.529  70.685  1.00  0.00    -0.452 A  
BRANCH   4   9
HETATM    9  O   UNL     1     -10.064   7.591  69.817  1.00  0.00    -0.187 OA 
HETATM   10  C   UNL     1     -10.529   6.946  68.632  1.00  0.00    -0.195 C  
ENDBRANCH   4   9
BRANCH   8  11
HETATM   11  C   UNL     1     -12.274  11.959  70.251  1.00  0.00    -0.353 C  
BRANCH  11  12
HETATM   12  C   UNL     1     -11.427  12.301  69.038  1.00  0.00    -0.297 C  
BRANCH  12  13
HETATM   13  O   UNL     1     -12.105  11.925  67.839  1.00  0.00    -0.558 OA 
BRANCH  13  14
HETATM   14  C   UNL     1     -11.500  12.370  66.608  1.00  0.00    -0.370 C  
HETATM   15  C   UNL     1     -12.428  13.348  65.870  1.00  0.00    -0.468 C  
HETATM   16  C   UNL     1     -11.965  13.660  64.455  1.00  0.00    -0.476 C  
HETATM   17  C   UNL     1     -11.752  12.370  63.679  1.00  0.00    -0.596 C  
HETATM   18  C   UNL     1     -10.618  11.569  64.313  1.00  0.00    -0.405 C  
HETATM   19  C   UNL     1     -10.959  11.171  65.757  1.00  0.00    -0.091 C  
BRANCH  19  20
HETATM   20  N   UNL     1      -9.928  10.438  66.530  1.00  0.00    -0.209 NA 
HETATM   21  C   UNL     1      -8.608  11.065  66.621  1.00  0.00    -0.157 C  
HETATM   22  C   UNL     1      -7.797  10.489  65.470  1.00  0.00    -0.138 C  
HETATM   23  C   UNL     1      -8.395   9.107  65.241  1.00  0.00    -0.146 C  
HETATM   24  C   UNL     1      -9.676   9.067  66.082  1.00  0.00    -0.283 C  
HETATM   25  O   UNL     1      -7.470   8.105  65.652  1.00  0.00    -0.077 OA 
HETATM   26  H   UNL     1      -7.844   7.243  65.509  1.00  0.00     0.000 HD 
ENDBRANCH  19  20
ENDBRANCH  13  14
ENDBRANCH  12  13
ENDBRANCH  11  12
ENDBRANCH   8  11
ENDBRANCH   2   3
TORSDOF 7
ENDMDL
MODEL       81
REMARK 921   NORMALIZED FREE ENERGY PREDICTED BY IDOCK:   -5.13 KCAL/MOL
REMARK 922        TOTAL FREE ENERGY PREDICTED BY IDOCK:   -8.16 KCAL/MOL
REMARK 923 INTER-LIGAND FREE ENERGY PREDICTED BY IDOCK:   -7.50 KCAL/MOL
REMARK 924 INTRA-LIGAND FREE ENERGY PREDICTED BY IDOCK:   -0.65 KCAL/MOL
REMARK 927      BINDING AFFINITY PREDICTED BY RF-SCORE:    0.00 PKD
ROOT
HETATM    1  C   UNL     1     -10.929   7.227  73.201  1.00  0.00    -0.340 C  
HETATM    2  O   UNL     1     -11.820   7.383  72.106  1.00  0.00    -0.283 OA 
ENDROOT
BRANCH   2   3
HETATM    3  C   UNL     1     -11.964   8.648  71.598  1.00  0.00    -0.326 A  
HETATM    4  C   UNL     1     -11.158   9.284  70.643  1.00  0.00    -0.276 A  
HETATM    5  C   UNL     1     -11.453  10.603  70.275  1.00  0.00    -0.422 A  
HETATM    6  C   UNL     1     -13.009   9.363  72.201  1.00  0.00    -0.503 A  
HETATM    7  C   UNL     1     -13.269  10.691  71.858  1.00  0.00    -0.528 A  
HETATM    8  C   UNL     1     -12.461  11.324  70.918  1.00  0.00    -0.493 A  
BRANCH   4   9
HETATM    9  O   UNL     1     -10.100   8.615  70.083  1.00  0.00    -0.179 OA 
HETATM   10  C   UNL     1      -8.814   9.118  70.443  1.00  0.00    -0.220 C  
ENDBRANCH   4   9
BRANCH   8  11
HETATM   11  C   UNL     1     -12.660  12.778  70.596  1.00  0.00    -0.248 C  
BRANCH  11  12
HETATM   12  C   UNL     1     -11.482  13.385  69.854  1.00  0.00    -0.111 C  
BRANCH  12  13
HETATM   13  O   UNL     1     -11.679  13.280  68.444  1.00  0.00    -0.313 OA 
BRANCH  13  14
HETATM   14  C   UNL     1     -10.486  13.331  67.636  1.00  0.00    -0.229 C  
HETATM   15  C   UNL     1      -9.612  12.090  67.881  1.00  0.00    -0.196 C  
HETATM   16  C   UNL     1      -8.230  12.198  67.255  1.00  0.00    -0.180 C  
HETATM   17  C   UNL     1      -7.550  13.481  67.709  1.00  0.00    -0.163 C  
HETATM   18  C   UNL     1      -8.330  14.688  67.192  1.00  0.00    -0.236 C  
HETATM   19  C   UNL     1      -9.756  14.712  67.760  1.00  0.00    -0.215 C  
BRANCH  19  20
HETATM   20  N   UNL     1     -10.660  15.794  67.301  1.00  0.00    -0.310 NA 
HETATM   21  C   UNL     1     -10.306  16.456  66.044  1.00  0.00    -0.352 C  
HETATM   22  C   UNL     1      -9.467  17.662  66.434  1.00  0.00    -0.274 C  
HETATM   23  C   UNL     1      -9.967  18.037  67.823  1.00  0.00    -0.326 C  
HETATM   24  C   UNL     1     -10.868  16.878  68.264  1.00  0.00    -0.357 C  
HETATM   25  O   UNL     1     -10.687  19.264  67.764  1.00  0.00    -0.426 OA 
HETATM   26  H   UNL     1     -10.998  19.497  68.631  1.00  0.00     0.000 HD 
ENDBRANCH  19  20
ENDBRANCH  13  14
ENDBRANCH  12  13
ENDBRANCH  11  12
ENDBRANCH   8  11
ENDBRANCH   2   3
TORSDOF 7
ENDMDL
MODEL       82
REMARK 921   NORMALIZED FREE ENERGY PREDICTED BY IDOCK:   -5.13 KCAL/MOL
REMARK 922        TOTAL FREE ENERGY PREDICTED BY IDOCK:   -8.15 KCAL/MOL
REMARK 923 INTER-LIGAND FREE ENERGY PREDICTED BY IDOCK:   -7.47 KCAL/MOL
REMARK 924 INTRA-LIGAND FREE ENERGY PREDICTED BY IDOCK:   -0.68 KCAL/MOL
REMARK 927      BINDING AFFINITY PREDICTED BY RF-SCORE:    0.00 PKD
ROOT
HETATM    1  C   UNL     1     -10.509  20.209  65.853  1.00  0.00    -0.321 C  
HETATM    2  O   UNL     1      -9.292  19.624  66.293  1.00  0.00    -0.361 OA 
ENDROOT
BRANCH   2   3
HETATM    3  C   UNL     1      -9.372  18.385  66.871  1.00  0.00    -0.290 A  
HETATM    4  C   UNL     1      -8.809  17.968  68.085  1.00  0.00    -0.273 A  
HETATM    5  C   UNL     1      -8.978  16.638  68.493  1.00  0.00    -0.235 A  
HETATM    6  C   UNL     1     -10.042  17.450  66.068  1.00  0.00    -0.273 A  
HETATM    7  C   UNL     1     -10.169  16.117  66.462  1.00  0.00    -0.304 A  
HETATM    8  C   UNL     1      -9.600  15.702  67.662  1.00  0.00    -0.220 A  
BRANCH   4   9
HETATM    9  O   UNL     1      -8.107  18.857  68.857  1.00  0.00    -0.321 OA 
HETATM   10  C   UNL     1      -6.689  18.789  68.711  1.00  0.00    -0.270 C  
ENDBRANCH   4   9
BRANCH   8  11
HETATM   11  C   UNL     1      -9.641  14.256  68.068  1.00  0.00    -0.223 C  
BRANCH  11  12
HETATM   12  C   UNL     1     -10.454  14.020  69.329  1.00  0.00    -0.017 C  
BRANCH  12  13
HETATM   13  O   UNL     1     -11.765  13.564  68.994  1.00  0.00    -0.282 OA 
BRANCH  13  14
HETATM   14  C   UNL     1     -12.763  13.708  70.024  1.00  0.00     0.014 C  
HETATM   15  C   UNL     1     -12.795  15.152  70.550  1.00  0.00    -0.395 C  
HETATM   16  C   UNL     1     -13.643  15.315  71.802  1.00  0.00    -0.581 C  
HETATM   17  C   UNL     1     -13.200  14.322  72.866  1.00  0.00    -0.593 C  
HETATM   18  C   UNL     1     -13.456  12.898  72.380  1.00  0.00    -0.573 C  
HETATM   19  C   UNL     1     -12.644  12.589  71.114  1.00  0.00    -0.253 C  
BRANCH  19  20
HETATM   20  N   UNL     1     -12.832  11.260  70.484  1.00  0.00    -0.149 NA 
HETATM   21  C   UNL     1     -13.525  10.248  71.284  1.00  0.00    -0.188 C  
HETATM   22  C   UNL     1     -12.434   9.474  72.007  1.00  0.00    -0.427 C  
HETATM   23  C   UNL     1     -11.225   9.574  71.084  1.00  0.00    -0.376 C  
HETATM   24  C   UNL     1     -11.602  10.613  70.022  1.00  0.00    -0.325 C  
HETATM   25  O   UNL     1     -10.956   8.305  70.499  1.00  0.00    -0.238 OA 
HETATM   26  H   UNL     1     -10.202   8.368  69.924  1.00  0.00     0.000 HD 
ENDBRANCH  19  20
ENDBRANCH  13  14
ENDBRANCH  12  13
ENDBRANCH  11  12
ENDBRANCH   8  11
ENDBRANCH   2   3
TORSDOF 7
ENDMDL
MODEL       83
REMARK 921   NORMALIZED FREE ENERGY PREDICTED BY IDOCK:   -5.10 KCAL/MOL
REMARK 922        TOTAL FREE ENERGY PREDICTED BY IDOCK:   -8.10 KCAL/MOL
REMARK 923 INTER-LIGAND FREE ENERGY PREDICTED BY IDOCK:   -7.36 KCAL/MOL
REMARK 924 INTRA-LIGAND FREE ENERGY PREDICTED BY IDOCK:   -0.74 KCAL/MOL
REMARK 927      BINDING AFFINITY PREDICTED BY RF-SCORE:    0.00 PKD
ROOT
HETATM    1  C   UNL     1     -12.643  11.956  63.236  1.00  0.00    -0.344 C  
HETATM    2  O   UNL     1     -11.460  12.666  63.570  1.00  0.00    -0.461 OA 
ENDROOT
BRANCH   2   3
HETATM    3  C   UNL     1     -11.255  12.942  64.896  1.00  0.00    -0.300 A  
HETATM    4  C   UNL     1     -10.283  12.395  65.745  1.00  0.00    -0.260 A  
HETATM    5  C   UNL     1     -10.256  12.784  67.090  1.00  0.00    -0.235 A  
HETATM    6  C   UNL     1     -12.211  13.822  65.425  1.00  0.00    -0.465 A  
HETATM    7  C   UNL     1     -12.203  14.172  66.777  1.00  0.00    -0.429 A  
HETATM    8  C   UNL     1     -11.243  13.619  67.619  1.00  0.00    -0.303 A  
BRANCH   4   9
HETATM    9  O   UNL     1      -9.373  11.493  65.254  1.00  0.00    -0.212 OA 
HETATM   10  C   UNL     1      -9.780  10.127  65.334  1.00  0.00    -0.291 C  
ENDBRANCH   4   9
BRANCH   8  11
HETATM   11  C   UNL     1     -11.265  13.906  69.094  1.00  0.00    -0.311 C  
BRANCH  11  12
HETATM   12  C   UNL     1     -11.990  12.837  69.892  1.00  0.00    -0.298 C  
BRANCH  12  13
HETATM   13  O   UNL     1     -11.304  11.589  69.786  1.00  0.00    -0.266 OA 
BRANCH  13  14
HETATM   14  C   UNL     1     -12.035  10.429  70.233  1.00  0.00    -0.302 C  
HETATM   15  C   UNL     1     -12.947  10.786  71.417  1.00  0.00    -0.535 C  
HETATM   16  C   UNL     1     -13.554   9.566  72.094  1.00  0.00    -0.500 C  
HETATM   17  C   UNL     1     -12.458   8.586  72.484  1.00  0.00    -0.358 C  
HETATM   18  C   UNL     1     -11.770   8.057  71.228  1.00  0.00    -0.311 C  
HETATM   19  C   UNL     1     -11.096   9.193  70.444  1.00  0.00    -0.253 C  
BRANCH  19  20
HETATM   20  N   UNL     1     -10.434   8.846  69.164  1.00  0.00    -0.227 NA 
HETATM   21  C   UNL     1     -10.492   7.441  68.755  1.00  0.00    -0.199 C  
HETATM   22  C   UNL     1      -9.224   6.801  69.296  1.00  0.00    -0.141 C  
HETATM   23  C   UNL     1      -8.214   7.940  69.338  1.00  0.00    -0.130 C  
HETATM   24  C   UNL     1      -9.020   9.216  69.076  1.00  0.00    -0.143 C  
HETATM   25  O   UNL     1      -7.217   7.739  68.341  1.00  0.00    -0.087 OA 
HETATM   26  H   UNL     1      -6.587   8.450  68.367  1.00  0.00     0.000 HD 
ENDBRANCH  19  20
ENDBRANCH  13  14
ENDBRANCH  12  13
ENDBRANCH  11  12
ENDBRANCH   8  11
ENDBRANCH   2   3
TORSDOF 7
ENDMDL
MODEL       84
REMARK 921   NORMALIZED FREE ENERGY PREDICTED BY IDOCK:   -5.10 KCAL/MOL
REMARK 922        TOTAL FREE ENERGY PREDICTED BY IDOCK:   -8.10 KCAL/MOL
REMARK 923 INTER-LIGAND FREE ENERGY PREDICTED BY IDOCK:   -7.27 KCAL/MOL
REMARK 924 INTRA-LIGAND FREE ENERGY PREDICTED BY IDOCK:   -0.83 KCAL/MOL
REMARK 927      BINDING AFFINITY PREDICTED BY RF-SCORE:    0.00 PKD
ROOT
HETATM    1  C   UNL     1      -7.789   7.263  68.406  1.00  0.00    -0.122 C  
HETATM    2  O   UNL     1      -9.176   7.438  68.156  1.00  0.00    -0.134 OA 
ENDROOT
BRANCH   2   3
HETATM    3  C   UNL     1      -9.765   8.556  68.684  1.00  0.00    -0.164 A  
HETATM    4  C   UNL     1     -10.357   8.697  69.948  1.00  0.00    -0.209 A  
HETATM    5  C   UNL     1     -10.941   9.922  70.294  1.00  0.00    -0.366 A  
HETATM    6  C   UNL     1      -9.821   9.625  67.778  1.00  0.00    -0.192 A  
HETATM    7  C   UNL     1     -10.443  10.828  68.116  1.00  0.00    -0.214 A  
HETATM    8  C   UNL     1     -11.038  10.962  69.366  1.00  0.00    -0.317 A  
BRANCH   4   9
HETATM    9  O   UNL     1     -10.357   7.644  70.827  1.00  0.00    -0.202 OA 
HETATM   10  C   UNL     1     -11.590   6.931  70.909  1.00  0.00    -0.337 C  
ENDBRANCH   4   9
BRANCH   8  11
HETATM   11  C   UNL     1     -11.793  12.212  69.723  1.00  0.00    -0.397 C  
BRANCH  11  12
HETATM   12  C   UNL     1     -11.143  13.470  69.175  1.00  0.00    -0.225 C  
BRANCH  12  13
HETATM   13  O   UNL     1     -12.132  14.330  68.608  1.00  0.00    -0.325 OA 
BRANCH  13  14
HETATM   14  C   UNL     1     -12.030  14.556  67.188  1.00  0.00    -0.345 C  
HETATM   15  C   UNL     1     -12.276  13.252  66.413  1.00  0.00    -0.419 C  
HETATM   16  C   UNL     1     -11.939  13.362  64.934  1.00  0.00    -0.414 C  
HETATM   17  C   UNL     1     -10.519  13.878  64.758  1.00  0.00    -0.451 C  
HETATM   18  C   UNL     1     -10.417  15.298  65.308  1.00  0.00    -0.436 C  
HETATM   19  C   UNL     1     -10.723  15.335  66.813  1.00  0.00    -0.313 C  
BRANCH  19  20
HETATM   20  N   UNL     1     -10.723  16.657  67.483  1.00  0.00    -0.310 NA 
HETATM   21  C   UNL     1     -10.521  17.827  66.625  1.00  0.00    -0.300 C  
HETATM   22  C   UNL     1      -9.026  18.097  66.640  1.00  0.00    -0.292 C  
HETATM   23  C   UNL     1      -8.562  17.578  67.995  1.00  0.00    -0.250 C  
HETATM   24  C   UNL     1      -9.752  16.803  68.569  1.00  0.00    -0.248 C  
HETATM   25  O   UNL     1      -8.197  18.669  68.833  1.00  0.00    -0.290 OA 
HETATM   26  H   UNL     1      -7.908  18.345  69.678  1.00  0.00     0.000 HD 
ENDBRANCH  19  20
ENDBRANCH  13  14
ENDBRANCH  12  13
ENDBRANCH  11  12
ENDBRANCH   8  11
ENDBRANCH   2   3
TORSDOF 7
ENDMDL
MODEL       85
REMARK 921   NORMALIZED FREE ENERGY PREDICTED BY IDOCK:   -5.08 KCAL/MOL
REMARK 922        TOTAL FREE ENERGY PREDICTED BY IDOCK:   -8.08 KCAL/MOL
REMARK 923 INTER-LIGAND FREE ENERGY PREDICTED BY IDOCK:   -7.26 KCAL/MOL
REMARK 924 INTRA-LIGAND FREE ENERGY PREDICTED BY IDOCK:   -0.83 KCAL/MOL
REMARK 927      BINDING AFFINITY PREDICTED BY RF-SCORE:    0.00 PKD
ROOT
HETATM    1  C   UNL     1     -10.732  20.175  65.361  1.00  0.00     0.017 C  
HETATM    2  O   UNL     1      -9.945  20.453  66.510  1.00  0.00    -0.427 OA 
ENDROOT
BRANCH   2   3
HETATM    3  C   UNL     1      -9.506  19.377  67.237  1.00  0.00    -0.318 A  
HETATM    4  C   UNL     1      -8.181  18.976  67.459  1.00  0.00    -0.276 A  
HETATM    5  C   UNL     1      -7.936  17.819  68.209  1.00  0.00    -0.282 A  
HETATM    6  C   UNL     1     -10.554  18.582  67.724  1.00  0.00    -0.422 A  
HETATM    7  C   UNL     1     -10.301  17.407  68.434  1.00  0.00    -0.379 A  
HETATM    8  C   UNL     1      -8.985  17.005  68.643  1.00  0.00    -0.267 A  
BRANCH   4   9
HETATM    9  O   UNL     1      -7.146  19.715  66.945  1.00  0.00    -0.208 OA 
HETATM   10  C   UNL     1      -6.590  20.675  67.844  1.00  0.00    -0.318 C  
ENDBRANCH   4   9
BRANCH   8  11
HETATM   11  C   UNL     1      -8.685  15.701  69.325  1.00  0.00    -0.267 C  
BRANCH  11  12
HETATM   12  C   UNL     1      -9.378  14.519  68.670  1.00  0.00    -0.199 C  
BRANCH  12  13
HETATM   13  O   UNL     1      -8.763  14.217  67.417  1.00  0.00    -0.185 OA 
BRANCH  13  14
HETATM   14  C   UNL     1      -9.655  13.812  66.360  1.00  0.00    -0.272 C  
HETATM   15  C   UNL     1     -10.398  15.026  65.781  1.00  0.00    -0.354 C  
HETATM   16  C   UNL     1     -11.530  14.643  64.840  1.00  0.00    -0.401 C  
HETATM   17  C   UNL     1     -12.471  13.665  65.527  1.00  0.00    -0.544 C  
HETATM   18  C   UNL     1     -11.731  12.364  65.828  1.00  0.00    -0.470 C  
HETATM   19  C   UNL     1     -10.555  12.603  66.788  1.00  0.00    -0.237 C  
BRANCH  19  20
HETATM   20  N   UNL     1      -9.700  11.442  67.129  1.00  0.00    -0.181 NA 
HETATM   21  C   UNL     1      -8.457  11.297  66.369  1.00  0.00    -0.169 C  
HETATM   22  C   UNL     1      -8.792  10.389  65.197  1.00  0.00    -0.207 C  
HETATM   23  C   UNL     1      -9.928   9.513  65.711  1.00  0.00    -0.245 C  
HETATM   24  C   UNL     1     -10.360  10.137  67.042  1.00  0.00    -0.244 C  
HETATM   25  O   UNL     1      -9.468   8.177  65.887  1.00  0.00    -0.399 OA 
HETATM   26  H   UNL     1     -10.177   7.631  66.208  1.00  0.00     0.000 HD 
ENDBRANCH  19  20
ENDBRANCH  13  14
ENDBRANCH  12  13
ENDBRANCH  11  12
ENDBRANCH   8  11
ENDBRANCH   2   3
TORSDOF 7
ENDMDL
MODEL       86
REMARK 921   NORMALIZED FREE ENERGY PREDICTED BY IDOCK:   -5.08 KCAL/MOL
REMARK 922        TOTAL FREE ENERGY PREDICTED BY IDOCK:   -8.08 KCAL/MOL
REMARK 923 INTER-LIGAND FREE ENERGY PREDICTED BY IDOCK:   -7.36 KCAL/MOL
REMARK 924 INTRA-LIGAND FREE ENERGY PREDICTED BY IDOCK:   -0.72 KCAL/MOL
REMARK 927      BINDING AFFINITY PREDICTED BY RF-SCORE:    0.00 PKD
ROOT
HETATM    1  C   UNL     1     -10.708  16.163  65.055  1.00  0.00    -0.337 C  
HETATM    2  O   UNL     1     -11.474  15.048  64.624  1.00  0.00    -0.404 OA 
ENDROOT
BRANCH   2   3
HETATM    3  C   UNL     1     -11.253  13.858  65.266  1.00  0.00    -0.313 A  
HETATM    4  C   UNL     1     -10.632  12.710  64.753  1.00  0.00    -0.317 A  
HETATM    5  C   UNL     1     -10.530  11.572  65.563  1.00  0.00    -0.327 A  
HETATM    6  C   UNL     1     -11.805  13.822  66.555  1.00  0.00    -0.438 A  
HETATM    7  C   UNL     1     -11.736  12.669  67.339  1.00  0.00    -0.432 A  
HETATM    8  C   UNL     1     -11.128  11.527  66.824  1.00  0.00    -0.361 A  
BRANCH   4   9
HETATM    9  O   UNL     1     -10.134  12.713  63.475  1.00  0.00    -0.392 OA 
HETATM   10  C   UNL     1      -9.807  11.424  62.956  1.00  0.00    -0.347 C  
ENDBRANCH   4   9
BRANCH   8  11
HETATM   11  C   UNL     1     -11.120  10.247  67.609  1.00  0.00    -0.319 C  
BRANCH  11  12
HETATM   12  C   UNL     1     -10.445   9.105  66.869  1.00  0.00    -0.217 C  
BRANCH  12  13
HETATM   13  O   UNL     1      -9.590   8.379  67.753  1.00  0.00    -0.149 OA 
BRANCH  13  14
HETATM   14  C   UNL     1      -9.190   9.072  68.952  1.00  0.00    -0.140 C  
HETATM   15  C   UNL     1      -7.786   9.674  68.788  1.00  0.00    -0.081 C  
HETATM   16  C   UNL     1      -7.204  10.200  70.092  1.00  0.00    -0.162 C  
HETATM   17  C   UNL     1      -7.246   9.115  71.157  1.00  0.00    -0.091 C  
HETATM   18  C   UNL     1      -8.697   8.758  71.471  1.00  0.00    -0.274 C  
HETATM   19  C   UNL     1      -9.411   8.196  70.233  1.00  0.00    -0.155 C  
BRANCH  19  20
HETATM   20  N   UNL     1     -10.848   7.858  70.362  1.00  0.00    -0.242 NA 
HETATM   21  C   UNL     1     -11.649   8.721  71.233  1.00  0.00    -0.292 C  
HETATM   22  C   UNL     1     -11.626   8.063  72.603  1.00  0.00    -0.448 C  
HETATM   23  C   UNL     1     -11.457   6.578  72.305  1.00  0.00    -0.289 C  
HETATM   24  C   UNL     1     -11.126   6.492  70.812  1.00  0.00    -0.300 C  
HETATM   25  O   UNL     1     -12.660   5.882  72.613  1.00  0.00    -0.530 OA 
HETATM   26  H   UNL     1     -12.554   4.956  72.428  1.00  0.00     0.000 HD 
ENDBRANCH  19  20
ENDBRANCH  13  14
ENDBRANCH  12  13
ENDBRANCH  11  12
ENDBRANCH   8  11
ENDBRANCH   2   3
TORSDOF 7
ENDMDL
MODEL       87
REMARK 921   NORMALIZED FREE ENERGY PREDICTED BY IDOCK:   -5.08 KCAL/MOL
REMARK 922        TOTAL FREE ENERGY PREDICTED BY IDOCK:   -8.08 KCAL/MOL
REMARK 923 INTER-LIGAND FREE ENERGY PREDICTED BY IDOCK:   -7.28 KCAL/MOL
REMARK 924 INTRA-LIGAND FREE ENERGY PREDICTED BY IDOCK:   -0.80 KCAL/MOL
REMARK 927      BINDING AFFINITY PREDICTED BY RF-SCORE:    0.00 PKD
ROOT
HETATM    1  C   UNL     1     -11.627  11.894  63.455  1.00  0.00    -0.441 C  
HETATM    2  O   UNL     1     -11.013  11.439  64.652  1.00  0.00    -0.310 OA 
ENDROOT
BRANCH   2   3
HETATM    3  C   UNL     1     -11.119  12.250  65.751  1.00  0.00    -0.323 A  
HETATM    4  C   UNL     1     -10.435  12.135  66.970  1.00  0.00    -0.220 A  
HETATM    5  C   UNL     1     -10.709  13.052  67.993  1.00  0.00    -0.248 A  
HETATM    6  C   UNL     1     -12.098  13.243  65.605  1.00  0.00    -0.488 A  
HETATM    7  C   UNL     1     -12.395  14.126  66.645  1.00  0.00    -0.375 A  
HETATM    8  C   UNL     1     -11.722  14.004  67.857  1.00  0.00    -0.397 A  
BRANCH   4   9
HETATM    9  O   UNL     1      -9.512  11.136  67.147  1.00  0.00    -0.170 OA 
HETATM   10  C   UNL     1      -9.910  10.104  68.049  1.00  0.00    -0.148 C  
ENDBRANCH   4   9
BRANCH   8  11
HETATM   11  C   UNL     1     -12.083  14.880  69.023  1.00  0.00    -0.248 C  
BRANCH  11  12
HETATM   12  C   UNL     1     -11.010  15.904  69.347  1.00  0.00    -0.309 C  
BRANCH  12  13
HETATM   13  O   UNL     1     -10.506  16.490  68.145  1.00  0.00    -0.285 OA 
BRANCH  13  14
HETATM   14  C   UNL     1      -9.921  17.800  68.282  1.00  0.00    -0.355 C  
HETATM   15  C   UNL     1     -10.782  18.856  67.571  1.00  0.00    -0.509 C  
HETATM   16  C   UNL     1     -10.099  20.211  67.462  1.00  0.00    -0.549 C  
HETATM   17  C   UNL     1      -8.729  20.055  66.819  1.00  0.00    -0.408 C  
HETATM   18  C   UNL     1      -7.830  19.214  67.721  1.00  0.00    -0.295 C  
HETATM   19  C   UNL     1      -8.398  17.800  67.911  1.00  0.00    -0.241 C  
BRANCH  19  20
HETATM   20  N   UNL     1      -7.666  16.880  68.813  1.00  0.00    -0.239 NA 
HETATM   21  C   UNL     1      -6.395  17.366  69.354  1.00  0.00    -0.246 C  
HETATM   22  C   UNL     1      -5.323  16.877  68.394  1.00  0.00    -0.122 C  
HETATM   23  C   UNL     1      -5.901  15.597  67.803  1.00  0.00    -0.143 C  
HETATM   24  C   UNL     1      -7.367  15.563  68.247  1.00  0.00    -0.115 C  
HETATM   25  O   UNL     1      -5.182  14.470  68.291  1.00  0.00    -0.100 OA 
HETATM   26  H   UNL     1      -5.542  13.672  67.922  1.00  0.00     0.000 HD 
ENDBRANCH  19  20
ENDBRANCH  13  14
ENDBRANCH  12  13
ENDBRANCH  11  12
ENDBRANCH   8  11
ENDBRANCH   2   3
TORSDOF 7
ENDMDL
MODEL       88
REMARK 921   NORMALIZED FREE ENERGY PREDICTED BY IDOCK:   -5.05 KCAL/MOL
REMARK 922        TOTAL FREE ENERGY PREDICTED BY IDOCK:   -8.04 KCAL/MOL
REMARK 923 INTER-LIGAND FREE ENERGY PREDICTED BY IDOCK:   -7.23 KCAL/MOL
REMARK 924 INTRA-LIGAND FREE ENERGY PREDICTED BY IDOCK:   -0.80 KCAL/MOL
REMARK 927      BINDING AFFINITY PREDICTED BY RF-SCORE:    0.00 PKD
ROOT
HETATM    1  C   UNL     1     -10.805   5.283  71.600  1.00  0.00    -0.111 C  
HETATM    2  O   UNL     1     -11.373   6.254  72.466  1.00  0.00    -0.265 OA 
ENDROOT
BRANCH   2   3
HETATM    3  C   UNL     1     -11.540   7.516  71.958  1.00  0.00    -0.287 A  
HETATM    4  C   UNL     1     -10.544   8.438  71.611  1.00  0.00    -0.258 A  
HETATM    5  C   UNL     1     -10.921   9.701  71.134  1.00  0.00    -0.430 A  
HETATM    6  C   UNL     1     -12.887   7.896  71.874  1.00  0.00    -0.331 A  
HETATM    7  C   UNL     1     -13.253   9.171  71.439  1.00  0.00    -0.359 A  
HETATM    8  C   UNL     1     -12.262  10.089  71.105  1.00  0.00    -0.477 A  
BRANCH   4   9
HETATM    9  O   UNL     1      -9.220   8.100  71.737  1.00  0.00    -0.145 OA 
HETATM   10  C   UNL     1      -8.697   8.207  73.060  1.00  0.00    -0.243 C  
ENDBRANCH   4   9
BRANCH   8  11
HETATM   11  C   UNL     1     -12.622  11.497  70.721  1.00  0.00    -0.390 C  
BRANCH  11  12
HETATM   12  C   UNL     1     -11.737  12.053  69.621  1.00  0.00    -0.335 C  
BRANCH  12  13
HETATM   13  O   UNL     1     -12.139  11.535  68.352  1.00  0.00    -0.556 OA 
BRANCH  13  14
HETATM   14  C   UNL     1     -11.351  11.960  67.221  1.00  0.00    -0.329 C  
HETATM   15  C   UNL     1     -12.097  13.033  66.413  1.00  0.00    -0.428 C  
HETATM   16  C   UNL     1     -11.439  13.342  65.077  1.00  0.00    -0.329 C  
HETATM   17  C   UNL     1     -11.238  12.059  64.285  1.00  0.00    -0.421 C  
HETATM   18  C   UNL     1     -10.260  11.147  65.022  1.00  0.00    -0.354 C  
HETATM   19  C   UNL     1     -10.809  10.741  66.398  1.00  0.00    -0.104 C  
BRANCH  19  20
HETATM   20  N   UNL     1      -9.946   9.902  67.262  1.00  0.00    -0.186 NA 
HETATM   21  C   UNL     1      -8.613   9.582  66.745  1.00  0.00    -0.127 C  
HETATM   22  C   UNL     1      -8.759   8.252  66.023  1.00  0.00    -0.181 C  
HETATM   23  C   UNL     1      -9.904   7.554  66.746  1.00  0.00    -0.225 C  
HETATM   24  C   UNL     1     -10.525   8.617  67.658  1.00  0.00    -0.244 C  
HETATM   25  O   UNL     1      -9.404   6.452  67.496  1.00  0.00    -0.119 OA 
HETATM   26  H   UNL     1     -10.119   6.017  67.946  1.00  0.00     0.000 HD 
ENDBRANCH  19  20
ENDBRANCH  13  14
ENDBRANCH  12  13
ENDBRANCH  11  12
ENDBRANCH   8  11
ENDBRANCH   2   3
TORSDOF 7
ENDMDL
MODEL       89
REMARK 921   NORMALIZED FREE ENERGY PREDICTED BY IDOCK:   -5.04 KCAL/MOL
REMARK 922        TOTAL FREE ENERGY PREDICTED BY IDOCK:   -8.02 KCAL/MOL
REMARK 923 INTER-LIGAND FREE ENERGY PREDICTED BY IDOCK:   -7.21 KCAL/MOL
REMARK 924 INTRA-LIGAND FREE ENERGY PREDICTED BY IDOCK:   -0.81 KCAL/MOL
REMARK 927      BINDING AFFINITY PREDICTED BY RF-SCORE:    0.00 PKD
ROOT
HETATM    1  C   UNL     1      -6.970  18.316  66.522  1.00  0.00    -0.216 C  
HETATM    2  O   UNL     1      -8.247  18.243  65.906  1.00  0.00    -0.506 OA 
ENDROOT
BRANCH   2   3
HETATM    3  C   UNL     1      -9.119  17.306  66.394  1.00  0.00    -0.253 A  
HETATM    4  C   UNL     1     -10.198  17.511  67.265  1.00  0.00    -0.335 A  
HETATM    5  C   UNL     1     -10.959  16.409  67.678  1.00  0.00    -0.225 A  
HETATM    6  C   UNL     1      -8.794  15.999  66.000  1.00  0.00    -0.314 A  
HETATM    7  C   UNL     1      -9.531  14.903  66.451  1.00  0.00    -0.327 A  
HETATM    8  C   UNL     1     -10.595  15.108  67.324  1.00  0.00    -0.286 A  
BRANCH   4   9
HETATM    9  O   UNL     1     -10.498  18.777  67.700  1.00  0.00    -0.398 OA 
HETATM   10  C   UNL     1      -9.862  19.158  68.920  1.00  0.00    -0.424 C  
ENDBRANCH   4   9
BRANCH   8  11
HETATM   11  C   UNL     1     -11.349  13.941  67.896  1.00  0.00    -0.320 C  
BRANCH  11  12
HETATM   12  C   UNL     1     -12.154  13.189  66.852  1.00  0.00    -0.316 C  
BRANCH  12  13
HETATM   13  O   UNL     1     -11.981  11.781  67.013  1.00  0.00    -0.610 OA 
BRANCH  13  14
HETATM   14  C   UNL     1     -10.679  11.264  66.674  1.00  0.00    -0.272 C  
HETATM   15  C   UNL     1     -10.340  11.569  65.206  1.00  0.00    -0.322 C  
HETATM   16  C   UNL     1      -9.099  10.840  64.714  1.00  0.00    -0.222 C  
HETATM   17  C   UNL     1      -9.231   9.347  64.978  1.00  0.00    -0.280 C  
HETATM   18  C   UNL     1      -9.286   9.094  66.482  1.00  0.00    -0.221 C  
HETATM   19  C   UNL     1     -10.511   9.770  67.115  1.00  0.00    -0.250 C  
BRANCH  19  20
HETATM   20  N   UNL     1     -10.671   9.665  68.585  1.00  0.00    -0.218 NA 
HETATM   21  C   UNL     1      -9.792  10.504  69.402  1.00  0.00    -0.182 C  
HETATM   22  C   UNL     1      -8.581   9.643  69.723  1.00  0.00    -0.211 C  
HETATM   23  C   UNL     1      -9.117   8.217  69.713  1.00  0.00    -0.147 C  
HETATM   24  C   UNL     1     -10.531   8.312  69.130  1.00  0.00    -0.206 C  
HETATM   25  O   UNL     1      -9.134   7.696  71.038  1.00  0.00    -0.146 OA 
HETATM   26  H   UNL     1      -9.468   6.807  71.031  1.00  0.00     0.000 HD 
ENDBRANCH  19  20
ENDBRANCH  13  14
ENDBRANCH  12  13
ENDBRANCH  11  12
ENDBRANCH   8  11
ENDBRANCH   2   3
TORSDOF 7
ENDMDL
MODEL       90
REMARK 921   NORMALIZED FREE ENERGY PREDICTED BY IDOCK:   -5.03 KCAL/MOL
REMARK 922        TOTAL FREE ENERGY PREDICTED BY IDOCK:   -8.02 KCAL/MOL
REMARK 923 INTER-LIGAND FREE ENERGY PREDICTED BY IDOCK:   -7.50 KCAL/MOL
REMARK 924 INTRA-LIGAND FREE ENERGY PREDICTED BY IDOCK:   -0.52 KCAL/MOL
REMARK 927      BINDING AFFINITY PREDICTED BY RF-SCORE:    0.00 PKD
ROOT
HETATM    1  C   UNL     1     -10.117  20.551  66.886  1.00  0.00    -0.250 C  
HETATM    2  O   UNL     1      -8.741  20.554  67.239  1.00  0.00    -0.348 OA 
ENDROOT
BRANCH   2   3
HETATM    3  C   UNL     1      -8.100  19.344  67.248  1.00  0.00    -0.269 A  
HETATM    4  C   UNL     1      -7.289  18.797  66.243  1.00  0.00    -0.256 A  
HETATM    5  C   UNL     1      -6.744  17.519  66.428  1.00  0.00    -0.297 A  
HETATM    6  C   UNL     1      -8.391  18.579  68.387  1.00  0.00    -0.355 A  
HETATM    7  C   UNL     1      -7.879  17.290  68.544  1.00  0.00    -0.266 A  
HETATM    8  C   UNL     1      -7.083  16.745  67.540  1.00  0.00    -0.171 A  
BRANCH   4   9
HETATM    9  O   UNL     1      -7.037  19.511  65.100  1.00  0.00    -0.407 OA 
HETATM   10  C   UNL     1      -5.691  19.964  64.960  1.00  0.00    -0.191 C  
ENDBRANCH   4   9
BRANCH   8  11
HETATM   11  C   UNL     1      -6.593  15.328  67.640  1.00  0.00    -0.196 C  
BRANCH  11  12
HETATM   12  C   UNL     1      -7.676  14.307  67.345  1.00  0.00    -0.173 C  
BRANCH  12  13
HETATM   13  O   UNL     1      -8.768  14.926  66.663  1.00  0.00    -0.261 OA 
BRANCH  13  14
HETATM   14  C   UNL     1      -9.884  14.068  66.353  1.00  0.00    -0.296 C  
HETATM   15  C   UNL     1     -10.228  14.146  64.857  1.00  0.00    -0.371 C  
HETATM   16  C   UNL     1     -11.543  13.464  64.509  1.00  0.00    -0.405 C  
HETATM   17  C   UNL     1     -12.661  14.006  65.387  1.00  0.00    -0.529 C  
HETATM   18  C   UNL     1     -12.388  13.649  66.846  1.00  0.00    -0.309 C  
HETATM   19  C   UNL     1     -11.082  14.289  67.339  1.00  0.00    -0.304 C  
BRANCH  19  20
HETATM   20  N   UNL     1     -10.648  13.985  68.724  1.00  0.00    -0.251 NA 
HETATM   21  C   UNL     1     -11.498  13.073  69.492  1.00  0.00    -0.222 C  
HETATM   22  C   UNL     1     -12.469  13.959  70.257  1.00  0.00    -0.380 C  
HETATM   23  C   UNL     1     -11.707  15.262  70.464  1.00  0.00    -0.318 C  
HETATM   24  C   UNL     1     -10.456  15.153  69.585  1.00  0.00    -0.250 C  
HETATM   25  O   UNL     1     -11.367  15.412  71.838  1.00  0.00    -0.419 OA 
HETATM   26  H   UNL     1     -10.892  16.225  71.967  1.00  0.00     0.000 HD 
ENDBRANCH  19  20
ENDBRANCH  13  14
ENDBRANCH  12  13
ENDBRANCH  11  12
ENDBRANCH   8  11
ENDBRANCH   2   3
TORSDOF 7
ENDMDL
MODEL       91
REMARK 921   NORMALIZED FREE ENERGY PREDICTED BY IDOCK:   -5.03 KCAL/MOL
REMARK 922        TOTAL FREE ENERGY PREDICTED BY IDOCK:   -8.01 KCAL/MOL
REMARK 923 INTER-LIGAND FREE ENERGY PREDICTED BY IDOCK:   -7.28 KCAL/MOL
REMARK 924 INTRA-LIGAND FREE ENERGY PREDICTED BY IDOCK:   -0.72 KCAL/MOL
REMARK 927      BINDING AFFINITY PREDICTED BY RF-SCORE:    0.00 PKD
ROOT
HETATM    1  C   UNL     1      -8.297   5.892  68.563  1.00  0.00    -0.109 C  
HETATM    2  O   UNL     1      -8.908   6.056  69.835  1.00  0.00    -0.135 OA 
ENDROOT
BRANCH   2   3
HETATM    3  C   UNL     1      -9.595   7.221  70.048  1.00  0.00    -0.167 A  
HETATM    4  C   UNL     1     -10.107   7.705  71.260  1.00  0.00    -0.186 A  
HETATM    5  C   UNL     1     -10.816   8.913  71.266  1.00  0.00    -0.360 A  
HETATM    6  C   UNL     1      -9.851   7.929  68.864  1.00  0.00    -0.174 A  
HETATM    7  C   UNL     1     -10.595   9.110  68.873  1.00  0.00    -0.214 A  
HETATM    8  C   UNL     1     -11.111   9.583  70.076  1.00  0.00    -0.268 A  
BRANCH   4   9
HETATM    9  O   UNL     1      -9.910   6.998  72.419  1.00  0.00    -0.154 OA 
HETATM   10  C   UNL     1     -10.879   7.237  73.439  1.00  0.00    -0.324 C  
ENDBRANCH   4   9
BRANCH   8  11
HETATM   11  C   UNL     1     -11.991  10.801  70.104  1.00  0.00    -0.432 C  
BRANCH  11  12
HETATM   12  C   UNL     1     -11.984  11.563  68.791  1.00  0.00    -0.271 C  
BRANCH  12  13
HETATM   13  O   UNL     1     -11.232  12.771  68.924  1.00  0.00    -0.256 OA 
BRANCH  13  14
HETATM   14  C   UNL     1     -10.134  12.933  68.004  1.00  0.00    -0.235 C  
HETATM   15  C   UNL     1      -8.901  12.154  68.488  1.00  0.00    -0.079 C  
HETATM   16  C   UNL     1      -7.640  12.481  67.703  1.00  0.00    -0.145 C  
HETATM   17  C   UNL     1      -7.406  13.984  67.694  1.00  0.00    -0.188 C  
HETATM   18  C   UNL     1      -8.544  14.677  66.949  1.00  0.00    -0.233 C  
HETATM   19  C   UNL     1      -9.891  14.439  67.646  1.00  0.00    -0.224 C  
BRANCH  19  20
HETATM   20  N   UNL     1     -11.105  15.000  67.007  1.00  0.00    -0.330 NA 
HETATM   21  C   UNL     1     -11.869  14.097  66.144  1.00  0.00    -0.407 C  
HETATM   22  C   UNL     1     -11.332  14.314  64.739  1.00  0.00    -0.382 C  
HETATM   23  C   UNL     1     -10.846  15.758  64.739  1.00  0.00    -0.344 C  
HETATM   24  C   UNL     1     -10.883  16.205  66.204  1.00  0.00    -0.138 C  
HETATM   25  O   UNL     1     -11.701  16.557  63.929  1.00  0.00    -1.527 OA 
HETATM   26  H   UNL     1     -11.398  17.457  63.929  1.00  0.00     0.000 HD 
ENDBRANCH  19  20
ENDBRANCH  13  14
ENDBRANCH  12  13
ENDBRANCH  11  12
ENDBRANCH   8  11
ENDBRANCH   2   3
TORSDOF 7
ENDMDL
MODEL       92
REMARK 921   NORMALIZED FREE ENERGY PREDICTED BY IDOCK:   -5.01 KCAL/MOL
REMARK 922        TOTAL FREE ENERGY PREDICTED BY IDOCK:   -7.98 KCAL/MOL
REMARK 923 INTER-LIGAND FREE ENERGY PREDICTED BY IDOCK:   -7.41 KCAL/MOL
REMARK 924 INTRA-LIGAND FREE ENERGY PREDICTED BY IDOCK:   -0.58 KCAL/MOL
REMARK 927      BINDING AFFINITY PREDICTED BY RF-SCORE:    0.00 PKD
ROOT
HETATM    1  C   UNL     1      -6.614   9.299  68.486  1.00  0.00    -0.054 C  
HETATM    2  O   UNL     1      -7.656   8.422  68.885  1.00  0.00    -0.092 OA 
ENDROOT
BRANCH   2   3
HETATM    3  C   UNL     1      -8.796   8.998  69.381  1.00  0.00    -0.144 A  
HETATM    4  C   UNL     1      -9.623   8.516  70.406  1.00  0.00    -0.172 A  
HETATM    5  C   UNL     1     -10.772   9.239  70.750  1.00  0.00    -0.350 A  
HETATM    6  C   UNL     1      -9.167  10.160  68.689  1.00  0.00    -0.157 A  
HETATM    7  C   UNL     1     -10.337  10.851  69.010  1.00  0.00    -0.230 A  
HETATM    8  C   UNL     1     -11.162  10.365  70.021  1.00  0.00    -0.385 A  
BRANCH   4   9
HETATM    9  O   UNL     1      -9.301   7.353  71.058  1.00  0.00    -0.157 OA 
HETATM   10  C   UNL     1     -10.166   6.252  70.782  1.00  0.00    -0.193 C  
ENDBRANCH   4   9
BRANCH   8  11
HETATM   11  C   UNL     1     -12.470  11.036  70.327  1.00  0.00    -0.365 C  
BRANCH  11  12
HETATM   12  C   UNL     1     -12.317  12.514  70.637  1.00  0.00    -0.282 C  
BRANCH  12  13
HETATM   13  O   UNL     1     -12.569  13.294  69.468  1.00  0.00    -0.029 OA 
BRANCH  13  14
HETATM   14  C   UNL     1     -11.495  14.157  69.043  1.00  0.00    -0.285 C  
HETATM   15  C   UNL     1     -11.135  15.161  70.149  1.00  0.00    -0.298 C  
HETATM   16  C   UNL     1     -10.188  16.255  69.680  1.00  0.00    -0.216 C  
HETATM   17  C   UNL     1     -10.751  16.937  68.442  1.00  0.00    -0.368 C  
HETATM   18  C   UNL     1     -10.823  15.937  67.292  1.00  0.00    -0.279 C  
HETATM   19  C   UNL     1     -11.765  14.771  67.627  1.00  0.00    -0.341 C  
BRANCH  19  20
HETATM   20  N   UNL     1     -11.895  13.683  66.629  1.00  0.00    -0.385 NA 
HETATM   21  C   UNL     1     -10.664  13.259  65.958  1.00  0.00    -0.277 C  
HETATM   22  C   UNL     1     -10.585  14.081  64.682  1.00  0.00    -0.416 C  
HETATM   23  C   UNL     1     -12.038  14.374  64.330  1.00  0.00    -0.470 C  
HETATM   24  C   UNL     1     -12.854  13.939  65.552  1.00  0.00    -0.431 C  
HETATM   25  O   UNL     1     -12.412  13.643  63.167  1.00  0.00    -1.033 OA 
HETATM   26  H   UNL     1     -13.318  13.825  62.948  1.00  0.00     0.000 HD 
ENDBRANCH  19  20
ENDBRANCH  13  14
ENDBRANCH  12  13
ENDBRANCH  11  12
ENDBRANCH   8  11
ENDBRANCH   2   3
TORSDOF 7
ENDMDL
MODEL       93
REMARK 921   NORMALIZED FREE ENERGY PREDICTED BY IDOCK:   -5.00 KCAL/MOL
REMARK 922        TOTAL FREE ENERGY PREDICTED BY IDOCK:   -7.97 KCAL/MOL
REMARK 923 INTER-LIGAND FREE ENERGY PREDICTED BY IDOCK:   -6.81 KCAL/MOL
REMARK 924 INTRA-LIGAND FREE ENERGY PREDICTED BY IDOCK:   -1.16 KCAL/MOL
REMARK 927      BINDING AFFINITY PREDICTED BY RF-SCORE:    0.00 PKD
ROOT
HETATM    1  C   UNL     1     -14.127  15.213  71.637  1.00  0.00    -0.549 C  
HETATM    2  O   UNL     1     -12.830  14.638  71.572  1.00  0.00    -0.300 OA 
ENDROOT
BRANCH   2   3
HETATM    3  C   UNL     1     -12.531  13.906  70.454  1.00  0.00    -0.334 A  
HETATM    4  C   UNL     1     -12.390  12.514  70.353  1.00  0.00    -0.232 A  
HETATM    5  C   UNL     1     -12.046  11.952  69.117  1.00  0.00    -0.261 A  
HETATM    6  C   UNL     1     -12.271  14.705  69.331  1.00  0.00    -0.270 A  
HETATM    7  C   UNL     1     -11.887  14.139  68.114  1.00  0.00    -0.387 A  
HETATM    8  C   UNL     1     -11.737  12.758  68.019  1.00  0.00    -0.405 A  
BRANCH   4   9
HETATM    9  O   UNL     1     -12.591  11.723  71.456  1.00  0.00    -0.304 OA 
HETATM   10  C   UNL     1     -12.231  10.353  71.283  1.00  0.00    -0.389 C  
ENDBRANCH   4   9
BRANCH   8  11
HETATM   11  C   UNL     1     -11.238  12.129  66.749  1.00  0.00    -0.375 C  
BRANCH  11  12
HETATM   12  C   UNL     1      -9.753  11.819  66.788  1.00  0.00    -0.197 C  
BRANCH  12  13
HETATM   13  O   UNL     1      -9.015  12.848  66.126  1.00  0.00    -0.017 OA 
BRANCH  13  14
HETATM   14  C   UNL     1      -8.154  13.644  66.965  1.00  0.00     0.017 C  
HETATM   15  C   UNL     1      -7.793  12.882  68.250  1.00  0.00    -0.142 C  
HETATM   16  C   UNL     1      -7.097  13.752  69.286  1.00  0.00    -0.004 C  
HETATM   17  C   UNL     1      -7.928  14.994  69.567  1.00  0.00    -0.135 C  
HETATM   18  C   UNL     1      -8.016  15.851  68.306  1.00  0.00    -0.139 C  
HETATM   19  C   UNL     1      -8.715  15.093  67.168  1.00  0.00    -0.216 C  
BRANCH  19  20
HETATM   20  N   UNL     1      -8.823  15.773  65.855  1.00  0.00    -0.231 NA 
HETATM   21  C   UNL     1      -9.003  17.226  65.882  1.00  0.00     0.045 C  
HETATM   22  C   UNL     1     -10.505  17.457  65.845  1.00  0.00    -0.256 C  
HETATM   23  C   UNL     1     -11.055  16.249  65.097  1.00  0.00    -0.212 C  
HETATM   24  C   UNL     1      -9.883  15.268  64.980  1.00  0.00     0.000 C  
HETATM   25  O   UNL     1     -11.530  16.648  63.816  1.00  0.00    -1.518 OA 
HETATM   26  H   UNL     1     -11.873  15.895  63.349  1.00  0.00     0.000 HD 
ENDBRANCH  19  20
ENDBRANCH  13  14
ENDBRANCH  12  13
ENDBRANCH  11  12
ENDBRANCH   8  11
ENDBRANCH   2   3
TORSDOF 7
ENDMDL
MODEL       94
REMARK 921   NORMALIZED FREE ENERGY PREDICTED BY IDOCK:   -4.99 KCAL/MOL
REMARK 922        TOTAL FREE ENERGY PREDICTED BY IDOCK:   -7.96 KCAL/MOL
REMARK 923 INTER-LIGAND FREE ENERGY PREDICTED BY IDOCK:   -7.22 KCAL/MOL
REMARK 924 INTRA-LIGAND FREE ENERGY PREDICTED BY IDOCK:   -0.74 KCAL/MOL
REMARK 927      BINDING AFFINITY PREDICTED BY RF-SCORE:    0.00 PKD
ROOT
HETATM    1  C   UNL     1      -9.170   4.607  70.722  1.00  0.00    -0.140 C  
HETATM    2  O   UNL     1     -10.224   4.602  69.770  1.00  0.00    -0.234 OA 
ENDROOT
BRANCH   2   3
HETATM    3  C   UNL     1     -10.368   5.726  68.998  1.00  0.00    -0.245 A  
HETATM    4  C   UNL     1     -10.116   5.861  67.626  1.00  0.00    -0.163 A  
HETATM    5  C   UNL     1     -10.295   7.112  67.021  1.00  0.00    -0.368 A  
HETATM    6  C   UNL     1     -10.740   6.855  69.743  1.00  0.00    -0.276 A  
HETATM    7  C   UNL     1     -10.874   8.107  69.139  1.00  0.00    -0.033 A  
HETATM    8  C   UNL     1     -10.612   8.241  67.779  1.00  0.00    -0.236 A  
BRANCH   4   9
HETATM    9  O   UNL     1      -9.702   4.777  66.894  1.00  0.00    -0.157 OA 
HETATM   10  C   UNL     1     -10.400   4.581  65.665  1.00  0.00    -0.247 C  
ENDBRANCH   4   9
BRANCH   8  11
HETATM   11  C   UNL     1     -10.661   9.591  67.122  1.00  0.00    -0.295 C  
BRANCH  11  12
HETATM   12  C   UNL     1      -9.428   9.885  66.286  1.00  0.00    -0.193 C  
BRANCH  12  13
HETATM   13  O   UNL     1      -9.503  11.202  65.739  1.00  0.00    -0.205 OA 
BRANCH  13  14
HETATM   14  C   UNL     1     -10.827  11.680  65.428  1.00  0.00    -0.280 C  
HETATM   15  C   UNL     1     -11.118  11.534  63.926  1.00  0.00    -0.458 C  
HETATM   16  C   UNL     1     -12.391  12.244  63.491  1.00  0.00    -0.670 C  
HETATM   17  C   UNL     1     -12.355  13.699  63.933  1.00  0.00    -0.375 C  
HETATM   18  C   UNL     1     -12.346  13.773  65.458  1.00  0.00    -0.507 C  
HETATM   19  C   UNL     1     -11.095  13.098  66.039  1.00  0.00    -0.280 C  
BRANCH  19  20
HETATM   20  N   UNL     1     -10.970  13.035  67.515  1.00  0.00    -0.253 NA 
HETATM   21  C   UNL     1     -11.990  13.746  68.290  1.00  0.00    -0.357 C  
HETATM   22  C   UNL     1     -11.421  15.131  68.550  1.00  0.00    -0.335 C  
HETATM   23  C   UNL     1      -9.911  14.922  68.564  1.00  0.00    -0.223 C  
HETATM   24  C   UNL     1      -9.687  13.496  68.050  1.00  0.00    -0.228 C  
HETATM   25  O   UNL     1      -9.412  15.084  69.887  1.00  0.00    -0.461 OA 
HETATM   26  H   UNL     1      -8.471  14.954  69.895  1.00  0.00     0.000 HD 
ENDBRANCH  19  20
ENDBRANCH  13  14
ENDBRANCH  12  13
ENDBRANCH  11  12
ENDBRANCH   8  11
ENDBRANCH   2   3
TORSDOF 7
ENDMDL
MODEL       95
REMARK 921   NORMALIZED FREE ENERGY PREDICTED BY IDOCK:   -4.97 KCAL/MOL
REMARK 922        TOTAL FREE ENERGY PREDICTED BY IDOCK:   -7.92 KCAL/MOL
REMARK 923 INTER-LIGAND FREE ENERGY PREDICTED BY IDOCK:   -7.18 KCAL/MOL
REMARK 924 INTRA-LIGAND FREE ENERGY PREDICTED BY IDOCK:   -0.74 KCAL/MOL
REMARK 927      BINDING AFFINITY PREDICTED BY RF-SCORE:    0.00 PKD
ROOT
HETATM    1  C   UNL     1      -8.924  18.405  66.511  1.00  0.00    -0.286 C  
HETATM    2  O   UNL     1      -9.722  17.557  65.697  1.00  0.00    -0.532 OA 
ENDROOT
BRANCH   2   3
HETATM    3  C   UNL     1      -9.587  16.207  65.888  1.00  0.00    -0.324 A  
HETATM    4  C   UNL     1     -10.421  15.187  65.409  1.00  0.00    -0.393 A  
HETATM    5  C   UNL     1     -10.131  13.858  65.743  1.00  0.00    -0.336 A  
HETATM    6  C   UNL     1      -8.517  15.879  66.733  1.00  0.00    -0.297 A  
HETATM    7  C   UNL     1      -8.262  14.555  67.096  1.00  0.00    -0.214 A  
HETATM    8  C   UNL     1      -9.097  13.545  66.628  1.00  0.00    -0.182 A  
BRANCH   4   9
HETATM    9  O   UNL     1     -11.502  15.496  64.624  1.00  0.00    -0.410 OA 
HETATM   10  C   UNL     1     -12.331  14.386  64.279  1.00  0.00    -0.373 C  
ENDBRANCH   4   9
BRANCH   8  11
HETATM   11  C   UNL     1      -8.900  12.124  67.074  1.00  0.00    -0.203 C  
BRANCH  11  12
HETATM   12  C   UNL     1      -9.711  11.776  68.310  1.00  0.00    -0.199 C  
BRANCH  12  13
HETATM   13  O   UNL     1     -10.879  11.040  67.945  1.00  0.00    -0.201 OA 
BRANCH  13  14
HETATM   14  C   UNL     1     -11.277   9.998  68.857  1.00  0.00    -0.131 C  
HETATM   15  C   UNL     1     -11.313  10.524  70.300  1.00  0.00    -0.407 C  
HETATM   16  C   UNL     1     -11.480   9.423  71.336  1.00  0.00    -0.449 C  
HETATM   17  C   UNL     1     -10.415   8.354  71.138  1.00  0.00    -0.263 C  
HETATM   18  C   UNL     1     -10.612   7.677  69.784  1.00  0.00    -0.245 C  
HETATM   19  C   UNL     1     -10.457   8.682  68.633  1.00  0.00    -0.177 C  
BRANCH  19  20
HETATM   20  N   UNL     1     -10.679   8.186  67.254  1.00  0.00    -0.264 NA 
HETATM   21  C   UNL     1     -10.930   6.751  67.105  1.00  0.00    -0.388 C  
HETATM   22  C   UNL     1      -9.572   6.119  66.846  1.00  0.00    -0.164 C  
HETATM   23  C   UNL     1      -8.768   7.217  66.162  1.00  0.00    -0.155 C  
HETATM   24  C   UNL     1      -9.607   8.492  66.304  1.00  0.00    -0.236 C  
HETATM   25  O   UNL     1      -8.557   6.882  64.794  1.00  0.00    -0.351 OA 
HETATM   26  H   UNL     1      -8.055   7.568  64.368  1.00  0.00     0.000 HD 
ENDBRANCH  19  20
ENDBRANCH  13  14
ENDBRANCH  12  13
ENDBRANCH  11  12
ENDBRANCH   8  11
ENDBRANCH   2   3
TORSDOF 7
ENDMDL
MODEL       96
REMARK 921   NORMALIZED FREE ENERGY PREDICTED BY IDOCK:   -4.95 KCAL/MOL
REMARK 922        TOTAL FREE ENERGY PREDICTED BY IDOCK:   -7.90 KCAL/MOL
REMARK 923 INTER-LIGAND FREE ENERGY PREDICTED BY IDOCK:   -6.92 KCAL/MOL
REMARK 924 INTRA-LIGAND FREE ENERGY PREDICTED BY IDOCK:   -0.99 KCAL/MOL
REMARK 927      BINDING AFFINITY PREDICTED BY RF-SCORE:    0.00 PKD
ROOT
HETATM    1  C   UNL     1      -8.552   8.779  62.550  1.00  0.00    -0.170 C  
HETATM    2  O   UNL     1      -8.515   9.107  63.931  1.00  0.00    -0.178 OA 
ENDROOT
BRANCH   2   3
HETATM    3  C   UNL     1      -9.387  10.071  64.363  1.00  0.00    -0.290 A  
HETATM    4  C   UNL     1      -9.721  10.393  65.686  1.00  0.00    -0.236 A  
HETATM    5  C   UNL     1     -10.667  11.398  65.924  1.00  0.00    -0.311 A  
HETATM    6  C   UNL     1     -10.046  10.723  63.311  1.00  0.00    -0.314 A  
HETATM    7  C   UNL     1     -11.019  11.693  63.557  1.00  0.00    -0.485 A  
HETATM    8  C   UNL     1     -11.357  12.003  64.871  1.00  0.00    -0.366 A  
BRANCH   4   9
HETATM    9  O   UNL     1      -9.122   9.728  66.726  1.00  0.00    -0.143 OA 
HETATM   10  C   UNL     1      -8.010  10.406  67.310  1.00  0.00    -0.110 C  
ENDBRANCH   4   9
BRANCH   8  11
HETATM   11  C   UNL     1     -12.463  12.976  65.166  1.00  0.00    -0.552 C  
BRANCH  11  12
HETATM   12  C   UNL     1     -12.379  13.559  66.565  1.00  0.00    -0.327 C  
BRANCH  12  13
HETATM   13  O   UNL     1     -11.992  14.933  66.507  1.00  0.00    -0.237 OA 
BRANCH  13  14
HETATM   14  C   UNL     1     -10.775  15.273  67.199  1.00  0.00    -0.316 C  
HETATM   15  C   UNL     1      -9.548  14.941  66.335  1.00  0.00    -0.317 C  
HETATM   16  C   UNL     1      -8.235  15.040  67.097  1.00  0.00    -0.251 C  
HETATM   17  C   UNL     1      -8.298  14.194  68.359  1.00  0.00    -0.161 C  
HETATM   18  C   UNL     1      -9.360  14.754  69.301  1.00  0.00    -0.050 C  
HETATM   19  C   UNL     1     -10.754  14.703  68.659  1.00  0.00    -0.250 C  
BRANCH  19  20
HETATM   20  N   UNL     1     -11.887  15.268  69.429  1.00  0.00    -0.333 NA 
HETATM   21  C   UNL     1     -11.545  16.151  70.546  1.00  0.00    -0.301 C  
HETATM   22  C   UNL     1     -11.480  15.258  71.775  1.00  0.00    -0.494 C  
HETATM   23  C   UNL     1     -12.450  14.123  71.468  1.00  0.00    -0.341 C  
HETATM   24  C   UNL     1     -12.813  14.280  69.987  1.00  0.00     0.011 C  
HETATM   25  O   UNL     1     -13.599  14.230  72.301  1.00  0.00    -0.393 OA 
HETATM   26  H   UNL     1     -14.204  13.522  72.109  1.00  0.00     0.000 HD 
ENDBRANCH  19  20
ENDBRANCH  13  14
ENDBRANCH  12  13
ENDBRANCH  11  12
ENDBRANCH   8  11
ENDBRANCH   2   3
TORSDOF 7
ENDMDL
MODEL       97
REMARK 921   NORMALIZED FREE ENERGY PREDICTED BY IDOCK:   -4.92 KCAL/MOL
REMARK 922        TOTAL FREE ENERGY PREDICTED BY IDOCK:   -7.86 KCAL/MOL
REMARK 923 INTER-LIGAND FREE ENERGY PREDICTED BY IDOCK:   -6.97 KCAL/MOL
REMARK 924 INTRA-LIGAND FREE ENERGY PREDICTED BY IDOCK:   -0.89 KCAL/MOL
REMARK 927      BINDING AFFINITY PREDICTED BY RF-SCORE:    0.00 PKD
ROOT
HETATM    1  C   UNL     1     -12.006  16.139  69.447  1.00  0.00    -0.068 C  
HETATM    2  O   UNL     1     -11.132  16.995  68.727  1.00  0.00    -0.245 OA 
ENDROOT
BRANCH   2   3
HETATM    3  C   UNL     1      -9.932  16.465  68.330  1.00  0.00    -0.238 A  
HETATM    4  C   UNL     1      -9.276  16.651  67.105  1.00  0.00    -0.222 A  
HETATM    5  C   UNL     1      -8.062  15.991  66.876  1.00  0.00    -0.282 A  
HETATM    6  C   UNL     1      -9.387  15.581  69.273  1.00  0.00    -0.266 A  
HETATM    7  C   UNL     1      -8.199  14.894  69.018  1.00  0.00    -0.168 A  
HETATM    8  C   UNL     1      -7.554  15.073  67.797  1.00  0.00    -0.175 A  
BRANCH   4   9
HETATM    9  O   UNL     1      -9.822  17.473  66.152  1.00  0.00    -0.396 OA 
HETATM   10  C   UNL     1      -9.564  18.864  66.339  1.00  0.00    -0.351 C  
ENDBRANCH   4   9
BRANCH   8  11
HETATM   11  C   UNL     1      -6.324  14.279  67.460  1.00  0.00    -0.028 C  
BRANCH  11  12
HETATM   12  C   UNL     1      -6.526  12.783  67.616  1.00  0.00    -0.152 C  
BRANCH  12  13
HETATM   13  O   UNL     1      -7.631  12.347  66.822  1.00  0.00    -0.017 OA 
BRANCH  13  14
HETATM   14  C   UNL     1      -8.804  11.932  67.551  1.00  0.00    -0.169 C  
HETATM   15  C   UNL     1      -8.493  10.708  68.427  1.00  0.00    -0.132 C  
HETATM   16  C   UNL     1      -9.737  10.069  69.026  1.00  0.00    -0.204 C  
HETATM   17  C   UNL     1     -10.742   9.754  67.928  1.00  0.00    -0.312 C  
HETATM   18  C   UNL     1     -11.220  11.050  67.279  1.00  0.00    -0.330 C  
HETATM   19  C   UNL     1     -10.055  11.802  66.617  1.00  0.00    -0.204 C  
BRANCH  19  20
HETATM   20  N   UNL     1     -10.349  13.114  65.994  1.00  0.00    -0.282 NA 
HETATM   21  C   UNL     1     -11.511  13.840  66.511  1.00  0.00    -0.348 C  
HETATM   22  C   UNL     1     -12.679  13.437  65.625  1.00  0.00    -0.432 C  
HETATM   23  C   UNL     1     -12.038  13.111  64.281  1.00  0.00    -0.414 C  
HETATM   24  C   UNL     1     -10.528  13.085  64.540  1.00  0.00    -0.392 C  
HETATM   25  O   UNL     1     -12.385  14.107  63.325  1.00  0.00    -1.140 OA 
HETATM   26  H   UNL     1     -11.985  13.903  62.487  1.00  0.00     0.000 HD 
ENDBRANCH  19  20
ENDBRANCH  13  14
ENDBRANCH  12  13
ENDBRANCH  11  12
ENDBRANCH   8  11
ENDBRANCH   2   3
TORSDOF 7
ENDMDL
MODEL       98
REMARK 921   NORMALIZED FREE ENERGY PREDICTED BY IDOCK:   -4.92 KCAL/MOL
REMARK 922        TOTAL FREE ENERGY PREDICTED BY IDOCK:   -7.85 KCAL/MOL
REMARK 923 INTER-LIGAND FREE ENERGY PREDICTED BY IDOCK:   -7.38 KCAL/MOL
REMARK 924 INTRA-LIGAND FREE ENERGY PREDICTED BY IDOCK:   -0.47 KCAL/MOL
REMARK 927      BINDING AFFINITY PREDICTED BY RF-SCORE:    0.00 PKD
ROOT
HETATM    1  C   UNL     1     -10.839   6.160  73.431  1.00  0.00    -0.221 C  
HETATM    2  O   UNL     1     -11.773   6.328  72.375  1.00  0.00    -0.295 OA 
ENDROOT
BRANCH   2   3
HETATM    3  C   UNL     1     -11.478   7.276  71.430  1.00  0.00    -0.266 A  
HETATM    4  C   UNL     1     -11.158   7.070  70.081  1.00  0.00    -0.285 A  
HETATM    5  C   UNL     1     -10.852   8.176  69.277  1.00  0.00    -0.064 A  
HETATM    6  C   UNL     1     -11.432   8.576  71.955  1.00  0.00    -0.431 A  
HETATM    7  C   UNL     1     -11.084   9.667  71.157  1.00  0.00    -0.444 A  
HETATM    8  C   UNL     1     -10.756   9.458  69.821  1.00  0.00    -0.250 A  
BRANCH   4   9
HETATM    9  O   UNL     1     -11.148   5.799  69.564  1.00  0.00    -0.366 OA 
HETATM   10  C   UNL     1      -9.890   5.130  69.641  1.00  0.00    -0.216 C  
ENDBRANCH   4   9
BRANCH   8  11
HETATM   11  C   UNL     1     -10.291  10.600  68.962  1.00  0.00    -0.237 C  
BRANCH  11  12
HETATM   12  C   UNL     1     -11.437  11.439  68.425  1.00  0.00    -0.299 C  
BRANCH  12  13
HETATM   13  O   UNL     1     -11.209  12.822  68.701  1.00  0.00    -0.247 OA 
BRANCH  13  14
HETATM   14  C   UNL     1     -11.330  13.716  67.577  1.00  0.00    -0.308 C  
HETATM   15  C   UNL     1     -12.130  13.057  66.443  1.00  0.00    -0.428 C  
HETATM   16  C   UNL     1     -12.082  13.843  65.141  1.00  0.00    -0.415 C  
HETATM   17  C   UNL     1     -10.638  14.112  64.747  1.00  0.00    -0.439 C  
HETATM   18  C   UNL     1      -9.978  15.009  65.791  1.00  0.00    -0.376 C  
HETATM   19  C   UNL     1      -9.946  14.328  67.168  1.00  0.00    -0.255 C  
BRANCH  19  20
HETATM   20  N   UNL     1      -9.388  15.100  68.303  1.00  0.00    -0.189 NA 
HETATM   21  C   UNL     1     -10.352  15.792  69.163  1.00  0.00    -0.240 C  
HETATM   22  C   UNL     1     -10.479  17.196  68.594  1.00  0.00    -0.366 C  
HETATM   23  C   UNL     1      -9.128  17.464  67.943  1.00  0.00    -0.255 C  
HETATM   24  C   UNL     1      -8.399  16.116  67.937  1.00  0.00    -0.161 C  
HETATM   25  O   UNL     1      -8.413  18.439  68.694  1.00  0.00    -0.326 OA 
HETATM   26  H   UNL     1      -7.570  18.606  68.287  1.00  0.00     0.000 HD 
ENDBRANCH  19  20
ENDBRANCH  13  14
ENDBRANCH  12  13
ENDBRANCH  11  12
ENDBRANCH   8  11
ENDBRANCH   2   3
TORSDOF 7
ENDMDL
MODEL       99
REMARK 921   NORMALIZED FREE ENERGY PREDICTED BY IDOCK:   -4.91 KCAL/MOL
REMARK 922        TOTAL FREE ENERGY PREDICTED BY IDOCK:   -7.85 KCAL/MOL
REMARK 923 INTER-LIGAND FREE ENERGY PREDICTED BY IDOCK:   -7.14 KCAL/MOL
REMARK 924 INTRA-LIGAND FREE ENERGY PREDICTED BY IDOCK:   -0.71 KCAL/MOL
REMARK 927      BINDING AFFINITY PREDICTED BY RF-SCORE:    0.00 PKD
ROOT
HETATM    1  C   UNL     1     -10.506   5.242  67.015  1.00  0.00    -0.229 C  
HETATM    2  O   UNL     1     -10.792   5.743  68.312  1.00  0.00    -0.241 OA 
ENDROOT
BRANCH   2   3
HETATM    3  C   UNL     1     -10.637   7.090  68.506  1.00  0.00    -0.202 A  
HETATM    4  C   UNL     1     -10.747   7.801  69.710  1.00  0.00    -0.236 A  
HETATM    5  C   UNL     1     -10.584   9.192  69.696  1.00  0.00    -0.237 A  
HETATM    6  C   UNL     1     -10.420   7.793  67.312  1.00  0.00    -0.392 A  
HETATM    7  C   UNL     1     -10.301   9.183  67.302  1.00  0.00    -0.338 A  
HETATM    8  C   UNL     1     -10.422   9.888  68.496  1.00  0.00    -0.232 A  
BRANCH   4   9
HETATM    9  O   UNL     1     -11.011   7.134  70.879  1.00  0.00    -0.239 OA 
HETATM   10  C   UNL     1     -12.390   7.082  71.242  1.00  0.00    -0.383 C  
ENDBRANCH   4   9
BRANCH   8  11
HETATM   11  C   UNL     1     -10.389  11.390  68.503  1.00  0.00    -0.219 C  
BRANCH  11  12
HETATM   12  C   UNL     1      -9.097  11.954  67.938  1.00  0.00    -0.183 C  
BRANCH  12  13
HETATM   13  O   UNL     1      -9.263  12.285  66.558  1.00  0.00    -0.221 OA 
BRANCH  13  14
HETATM   14  C   UNL     1     -10.545  12.833  66.193  1.00  0.00    -0.266 C  
HETATM   15  C   UNL     1     -11.274  11.902  65.211  1.00  0.00    -0.351 C  
HETATM   16  C   UNL     1     -12.513  12.533  64.594  1.00  0.00    -0.539 C  
HETATM   17  C   UNL     1     -12.158  13.871  63.964  1.00  0.00    -0.437 C  
HETATM   18  C   UNL     1     -11.699  14.844  65.047  1.00  0.00    -0.329 C  
HETATM   19  C   UNL     1     -10.435  14.333  65.753  1.00  0.00    -0.316 C  
BRANCH  19  20
HETATM   20  N   UNL     1      -9.899  15.141  66.874  1.00  0.00    -0.232 NA 
HETATM   21  C   UNL     1     -10.754  16.222  67.371  1.00  0.00    -0.287 C  
HETATM   22  C   UNL     1     -10.336  17.465  66.603  1.00  0.00    -0.306 C  
HETATM   23  C   UNL     1      -8.869  17.228  66.269  1.00  0.00    -0.215 C  
HETATM   24  C   UNL     1      -8.596  15.763  66.625  1.00  0.00    -0.287 C  
HETATM   25  O   UNL     1      -8.050  18.110  67.031  1.00  0.00    -0.217 OA 
HETATM   26  H   UNL     1      -7.135  17.962  66.823  1.00  0.00     0.000 HD 
ENDBRANCH  19  20
ENDBRANCH  13  14
ENDBRANCH  12  13
ENDBRANCH  11  12
ENDBRANCH   8  11
ENDBRANCH   2   3
TORSDOF 7
ENDMDL
MODEL      100
REMARK 921   NORMALIZED FREE ENERGY PREDICTED BY IDOCK:   -4.91 KCAL/MOL
REMARK 922        TOTAL FREE ENERGY PREDICTED BY IDOCK:   -7.84 KCAL/MOL
REMARK 923 INTER-LIGAND FREE ENERGY PREDICTED BY IDOCK:   -7.18 KCAL/MOL
REMARK 924 INTRA-LIGAND FREE ENERGY PREDICTED BY IDOCK:   -0.66 KCAL/MOL
REMARK 927      BINDING AFFINITY PREDICTED BY RF-SCORE:    0.00 PKD
ROOT
HETATM    1  C   UNL     1      -9.899  10.676  63.819  1.00  0.00    -0.335 C  
HETATM    2  O   UNL     1     -10.134  11.836  64.604  1.00  0.00    -0.257 OA 
ENDROOT
BRANCH   2   3
HETATM    3  C   UNL     1     -10.690  11.646  65.842  1.00  0.00    -0.278 A  
HETATM    4  C   UNL     1     -11.359  12.589  66.634  1.00  0.00    -0.334 A  
HETATM    5  C   UNL     1     -11.832  12.205  67.896  1.00  0.00    -0.338 A  
HETATM    6  C   UNL     1     -10.461  10.359  66.352  1.00  0.00    -0.246 A  
HETATM    7  C   UNL     1     -10.898   9.999  67.628  1.00  0.00    -0.336 A  
HETATM    8  C   UNL     1     -11.553  10.940  68.417  1.00  0.00    -0.346 A  
BRANCH   4   9
HETATM    9  O   UNL     1     -11.545  13.866  66.170  1.00  0.00    -0.335 OA 
HETATM   10  C   UNL     1     -12.777  14.081  65.481  1.00  0.00    -0.486 C  
ENDBRANCH   4   9
BRANCH   8  11
HETATM   11  C   UNL     1     -11.954  10.608  69.826  1.00  0.00    -0.363 C  
BRANCH  11  12
HETATM   12  C   UNL     1     -10.916   9.772  70.553  1.00  0.00    -0.321 C  
BRANCH  12  13
HETATM   13  O   UNL     1     -11.403   8.444  70.753  1.00  0.00    -0.266 OA 
BRANCH  13  14
HETATM   14  C   UNL     1     -10.534   7.560  71.489  1.00  0.00    -0.204 C  
HETATM   15  C   UNL     1      -9.755   8.334  72.563  1.00  0.00    -0.368 C  
HETATM   16  C   UNL     1      -8.644   7.516  73.204  1.00  0.00    -0.195 C  
HETATM   17  C   UNL     1      -7.732   6.943  72.130  1.00  0.00    -0.093 C  
HETATM   18  C   UNL     1      -8.514   5.961  71.261  1.00  0.00    -0.128 C  
HETATM   19  C   UNL     1      -9.672   6.662  70.536  1.00  0.00    -0.176 C  
BRANCH  19  20
HETATM   20  N   UNL     1     -10.564   5.827  69.697  1.00  0.00    -0.297 NA 
HETATM   21  C   UNL     1     -10.013   4.560  69.214  1.00  0.00    -0.122 C  
HETATM   22  C   UNL     1      -9.422   4.861  67.846  1.00  0.00    -0.172 C  
HETATM   23  C   UNL     1     -10.260   6.020  67.320  1.00  0.00    -0.195 C  
HETATM   24  C   UNL     1     -11.102   6.493  68.509  1.00  0.00    -0.265 C  
HETATM   25  O   UNL     1     -11.079   5.576  66.244  1.00  0.00    -0.727 OA 
HETATM   26  H   UNL     1     -11.602   6.299  65.916  1.00  0.00     0.000 HD 
ENDBRANCH  19  20
ENDBRANCH  13  14
ENDBRANCH  12  13
ENDBRANCH  11  12
ENDBRANCH   8  11
ENDBRANCH   2   3
TORSDOF 7
ENDMDL
MODEL      101
REMARK 921   NORMALIZED FREE ENERGY PREDICTED BY IDOCK:   -4.91 KCAL/MOL
REMARK 922        TOTAL FREE ENERGY PREDICTED BY IDOCK:   -7.84 KCAL/MOL
REMARK 923 INTER-LIGAND FREE ENERGY PREDICTED BY IDOCK:   -7.53 KCAL/MOL
REMARK 924 INTRA-LIGAND FREE ENERGY PREDICTED BY IDOCK:   -0.31 KCAL/MOL
REMARK 927      BINDING AFFINITY PREDICTED BY RF-SCORE:    0.00 PKD
ROOT
HETATM    1  C   UNL     1     -10.443   9.809  67.206  1.00  0.00    -0.261 C  
HETATM    2  O   UNL     1     -11.631  10.262  67.837  1.00  0.00    -0.338 OA 
ENDROOT
BRANCH   2   3
HETATM    3  C   UNL     1     -11.765  11.614  68.011  1.00  0.00    -0.281 A  
HETATM    4  C   UNL     1     -11.969  12.589  67.025  1.00  0.00    -0.225 A  
HETATM    5  C   UNL     1     -12.047  13.936  67.405  1.00  0.00    -0.380 A  
HETATM    6  C   UNL     1     -11.589  12.013  69.345  1.00  0.00    -0.393 A  
HETATM    7  C   UNL     1     -11.626  13.360  69.708  1.00  0.00    -0.305 A  
HETATM    8  C   UNL     1     -11.818  14.327  68.726  1.00  0.00    -0.377 A  
BRANCH   4   9
HETATM    9  O   UNL     1     -12.091  12.220  65.710  1.00  0.00    -0.587 OA 
HETATM   10  C   UNL     1     -12.246  13.304  64.794  1.00  0.00    -0.417 C  
ENDBRANCH   4   9
BRANCH   8  11
HETATM   11  C   UNL     1     -11.772  15.788  69.073  1.00  0.00    -0.405 C  
BRANCH  11  12
HETATM   12  C   UNL     1     -10.363  16.353  69.063  1.00  0.00    -0.278 C  
BRANCH  12  13
HETATM   13  O   UNL     1      -9.522  15.570  68.215  1.00  0.00    -0.196 OA 
BRANCH  13  14
HETATM   14  C   UNL     1      -8.112  15.858  68.288  1.00  0.00    -0.144 C  
HETATM   15  C   UNL     1      -7.506  15.278  69.576  1.00  0.00    -0.214 C  
HETATM   16  C   UNL     1      -6.086  15.756  69.838  1.00  0.00    -0.166 C  
HETATM   17  C   UNL     1      -6.033  17.276  69.810  1.00  0.00    -0.243 C  
HETATM   18  C   UNL     1      -6.382  17.777  68.411  1.00  0.00    -0.196 C  
HETATM   19  C   UNL     1      -7.810  17.371  68.016  1.00  0.00    -0.207 C  
BRANCH  19  20
HETATM   20  N   UNL     1      -8.277  17.734  66.657  1.00  0.00    -0.246 NA 
HETATM   21  C   UNL     1      -7.374  18.560  65.852  1.00  0.00    -0.207 C  
HETATM   22  C   UNL     1      -7.791  19.999  66.109  1.00  0.00    -0.316 C  
HETATM   23  C   UNL     1      -9.277  19.910  66.433  1.00  0.00    -0.380 C  
HETATM   24  C   UNL     1      -9.572  18.416  66.606  1.00  0.00    -0.320 C  
HETATM   25  O   UNL     1     -10.039  20.471  65.369  1.00  0.00    -0.447 OA 
HETATM   26  H   UNL     1     -10.966  20.415  65.572  1.00  0.00     0.000 HD 
ENDBRANCH  19  20
ENDBRANCH  13  14
ENDBRANCH  12  13
ENDBRANCH  11  12
ENDBRANCH   8  11
ENDBRANCH   2   3
TORSDOF 7
ENDMDL
MODEL      102
REMARK 921   NORMALIZED FREE ENERGY PREDICTED BY IDOCK:   -4.91 KCAL/MOL
REMARK 922        TOTAL FREE ENERGY PREDICTED BY IDOCK:   -7.84 KCAL/MOL
REMARK 923 INTER-LIGAND FREE ENERGY PREDICTED BY IDOCK:   -7.07 KCAL/MOL
REMARK 924 INTRA-LIGAND FREE ENERGY PREDICTED BY IDOCK:   -0.77 KCAL/MOL
REMARK 927      BINDING AFFINITY PREDICTED BY RF-SCORE:    0.00 PKD
ROOT
HETATM    1  C   UNL     1      -6.468  19.166  65.295  1.00  0.00    -0.270 C  
HETATM    2  O   UNL     1      -7.641  19.637  65.941  1.00  0.00    -0.310 OA 
ENDROOT
BRANCH   2   3
HETATM    3  C   UNL     1      -8.303  18.751  66.750  1.00  0.00    -0.281 A  
HETATM    4  C   UNL     1      -8.109  18.532  68.121  1.00  0.00    -0.290 A  
HETATM    5  C   UNL     1      -8.870  17.549  68.768  1.00  0.00    -0.215 A  
HETATM    6  C   UNL     1      -9.211  17.945  66.048  1.00  0.00    -0.035 A  
HETATM    7  C   UNL     1      -9.933  16.938  66.692  1.00  0.00    -0.302 A  
HETATM    8  C   UNL     1      -9.732  16.716  68.052  1.00  0.00    -0.241 A  
BRANCH   4   9
HETATM    9  O   UNL     1      -7.187  19.278  68.811  1.00  0.00    -0.316 OA 
HETATM   10  C   UNL     1      -6.170  18.518  69.463  1.00  0.00    -0.258 C  
ENDBRANCH   4   9
BRANCH   8  11
HETATM   11  C   UNL     1     -10.427  15.583  68.751  1.00  0.00    -0.234 C  
BRANCH  11  12
HETATM   12  C   UNL     1     -11.909  15.513  68.433  1.00  0.00    -0.224 C  
BRANCH  12  13
HETATM   13  O   UNL     1     -12.262  14.197  68.004  1.00  0.00    -0.310 OA 
BRANCH  13  14
HETATM   14  C   UNL     1     -11.680  13.765  66.758  1.00  0.00    -0.391 C  
HETATM   15  C   UNL     1     -12.491  14.296  65.566  1.00  0.00    -0.434 C  
HETATM   16  C   UNL     1     -12.082  13.676  64.239  1.00  0.00    -0.480 C  
HETATM   17  C   UNL     1     -12.126  12.159  64.336  1.00  0.00    -0.443 C  
HETATM   18  C   UNL     1     -11.090  11.678  65.349  1.00  0.00    -0.299 C  
HETATM   19  C   UNL     1     -11.391  12.225  66.752  1.00  0.00    -0.339 C  
BRANCH  19  20
HETATM   20  N   UNL     1     -10.437  11.894  67.838  1.00  0.00    -0.199 NA 
HETATM   21  C   UNL     1      -9.675  10.652  67.685  1.00  0.00    -0.165 C  
HETATM   22  C   UNL     1     -10.480   9.582  68.405  1.00  0.00    -0.261 C  
HETATM   23  C   UNL     1     -11.226  10.340  69.495  1.00  0.00    -0.261 C  
HETATM   24  C   UNL     1     -11.022  11.826  69.179  1.00  0.00    -0.209 C  
HETATM   25  O   UNL     1     -10.694  10.002  70.772  1.00  0.00    -0.308 OA 
HETATM   26  H   UNL     1     -11.160  10.475  71.451  1.00  0.00     0.000 HD 
ENDBRANCH  19  20
ENDBRANCH  13  14
ENDBRANCH  12  13
ENDBRANCH  11  12
ENDBRANCH   8  11
ENDBRANCH   2   3
TORSDOF 7
ENDMDL
MODEL      103
REMARK 921   NORMALIZED FREE ENERGY PREDICTED BY IDOCK:   -4.90 KCAL/MOL
REMARK 922        TOTAL FREE ENERGY PREDICTED BY IDOCK:   -7.83 KCAL/MOL
REMARK 923 INTER-LIGAND FREE ENERGY PREDICTED BY IDOCK:   -6.98 KCAL/MOL
REMARK 924 INTRA-LIGAND FREE ENERGY PREDICTED BY IDOCK:   -0.86 KCAL/MOL
REMARK 927      BINDING AFFINITY PREDICTED BY RF-SCORE:    0.00 PKD
ROOT
HETATM    1  C   UNL     1     -12.412  11.612  63.462  1.00  0.00    -0.231 C  
HETATM    2  O   UNL     1     -11.266  11.489  64.292  1.00  0.00    -0.338 OA 
ENDROOT
BRANCH   2   3
HETATM    3  C   UNL     1     -11.299  12.144  65.495  1.00  0.00    -0.344 A  
HETATM    4  C   UNL     1     -10.668  11.770  66.691  1.00  0.00    -0.263 A  
HETATM    5  C   UNL     1     -10.851  12.561  67.832  1.00  0.00    -0.251 A  
HETATM    6  C   UNL     1     -12.139  13.266  65.484  1.00  0.00    -0.480 A  
HETATM    7  C   UNL     1     -12.349  14.024  66.637  1.00  0.00    -0.408 A  
HETATM    8  C   UNL     1     -11.731  13.646  67.826  1.00  0.00    -0.397 A  
BRANCH   4   9
HETATM    9  O   UNL     1      -9.884  10.645  66.731  1.00  0.00    -0.186 OA 
HETATM   10  C   UNL     1     -10.473   9.527  67.395  1.00  0.00    -0.272 C  
ENDBRANCH   4   9
BRANCH   8  11
HETATM   11  C   UNL     1     -12.010  14.388  69.102  1.00  0.00    -0.357 C  
BRANCH  11  12
HETATM   12  C   UNL     1     -10.777  15.066  69.672  1.00  0.00    -0.257 C  
BRANCH  12  13
HETATM   13  O   UNL     1     -10.302  16.068  68.771  1.00  0.00    -0.219 OA 
BRANCH  13  14
HETATM   14  C   UNL     1      -8.883  16.067  68.521  1.00  0.00    -0.199 C  
HETATM   15  C   UNL     1      -8.229  14.805  69.104  1.00  0.00    -0.106 C  
HETATM   16  C   UNL     1      -6.709  14.858  69.096  1.00  0.00    -0.126 C  
HETATM   17  C   UNL     1      -6.228  16.127  69.784  1.00  0.00    -0.184 C  
HETATM   18  C   UNL     1      -6.686  17.348  68.990  1.00  0.00    -0.243 C  
HETATM   19  C   UNL     1      -8.218  17.427  68.926  1.00  0.00    -0.170 C  
BRANCH  19  20
HETATM   20  N   UNL     1      -8.817  18.529  68.136  1.00  0.00    -0.298 NA 
HETATM   21  C   UNL     1      -8.901  18.326  66.687  1.00  0.00    -0.284 C  
HETATM   22  C   UNL     1      -7.634  18.936  66.111  1.00  0.00    -0.286 C  
HETATM   23  C   UNL     1      -7.266  20.041  67.093  1.00  0.00    -0.249 C  
HETATM   24  C   UNL     1      -8.177  19.835  68.307  1.00  0.00    -0.277 C  
HETATM   25  O   UNL     1      -7.478  21.314  66.491  1.00  0.00    -0.551 OA 
HETATM   26  H   UNL     1      -7.249  22.003  67.104  1.00  0.00     0.000 HD 
ENDBRANCH  19  20
ENDBRANCH  13  14
ENDBRANCH  12  13
ENDBRANCH  11  12
ENDBRANCH   8  11
ENDBRANCH   2   3
TORSDOF 7
ENDMDL
MODEL      104
REMARK 921   NORMALIZED FREE ENERGY PREDICTED BY IDOCK:   -4.88 KCAL/MOL
REMARK 922        TOTAL FREE ENERGY PREDICTED BY IDOCK:   -7.80 KCAL/MOL
REMARK 923 INTER-LIGAND FREE ENERGY PREDICTED BY IDOCK:   -7.05 KCAL/MOL
REMARK 924 INTRA-LIGAND FREE ENERGY PREDICTED BY IDOCK:   -0.75 KCAL/MOL
REMARK 927      BINDING AFFINITY PREDICTED BY RF-SCORE:    0.00 PKD
ROOT
HETATM    1  C   UNL     1     -14.371  15.029  71.861  1.00  0.00    -0.584 C  
HETATM    2  O   UNL     1     -13.220  14.251  72.153  1.00  0.00    -0.344 OA 
ENDROOT
BRANCH   2   3
HETATM    3  C   UNL     1     -12.714  13.484  71.136  1.00  0.00    -0.344 A  
HETATM    4  C   UNL     1     -12.663  12.085  71.062  1.00  0.00    -0.241 A  
HETATM    5  C   UNL     1     -12.071  11.484  69.943  1.00  0.00    -0.389 A  
HETATM    6  C   UNL     1     -12.124  14.248  70.118  1.00  0.00    -0.403 A  
HETATM    7  C   UNL     1     -11.499  13.640  69.028  1.00  0.00    -0.346 A  
HETATM    8  C   UNL     1     -11.440  12.251  68.961  1.00  0.00    -0.349 A  
BRANCH   4   9
HETATM    9  O   UNL     1     -13.189  11.324  72.074  1.00  0.00    -0.506 OA 
HETATM   10  C   UNL     1     -12.956   9.921  71.953  1.00  0.00    -0.448 C  
ENDBRANCH   4   9
BRANCH   8  11
HETATM   11  C   UNL     1     -10.696  11.572  67.847  1.00  0.00    -0.241 C  
BRANCH  11  12
HETATM   12  C   UNL     1      -9.191  11.580  68.051  1.00  0.00    -0.175 C  
BRANCH  12  13
HETATM   13  O   UNL     1      -8.631  10.326  67.659  1.00  0.00    -0.118 OA 
BRANCH  13  14
HETATM   14  C   UNL     1      -8.770   9.250  68.608  1.00  0.00    -0.132 C  
HETATM   15  C   UNL     1      -8.258   9.679  69.992  1.00  0.00    -0.197 C  
HETATM   16  C   UNL     1      -8.144   8.521  70.973  1.00  0.00    -0.149 C  
HETATM   17  C   UNL     1      -7.306   7.405  70.368  1.00  0.00    -0.077 C  
HETATM   18  C   UNL     1      -8.016   6.835  69.143  1.00  0.00    -0.112 C  
HETATM   19  C   UNL     1      -8.190   7.904  68.054  1.00  0.00    -0.127 C  
BRANCH  19  20
HETATM   20  N   UNL     1      -8.918   7.519  66.822  1.00  0.00    -0.137 NA 
HETATM   21  C   UNL     1     -10.333   7.889  66.754  1.00  0.00    -0.287 C  
HETATM   22  C   UNL     1     -11.100   6.688  67.284  1.00  0.00    -0.418 C  
HETATM   23  C   UNL     1     -10.212   5.496  66.953  1.00  0.00    -0.233 C  
HETATM   24  C   UNL     1      -8.875   6.091  66.497  1.00  0.00    -0.131 C  
HETATM   25  O   UNL     1     -10.812   4.715  65.925  1.00  0.00    -0.564 OA 
HETATM   26  H   UNL     1     -10.257   3.971  65.719  1.00  0.00     0.000 HD 
ENDBRANCH  19  20
ENDBRANCH  13  14
ENDBRANCH  12  13
ENDBRANCH  11  12
ENDBRANCH   8  11
ENDBRANCH   2   3
TORSDOF 7
ENDMDL
MODEL      105
REMARK 921   NORMALIZED FREE ENERGY PREDICTED BY IDOCK:   -4.87 KCAL/MOL
REMARK 922        TOTAL FREE ENERGY PREDICTED BY IDOCK:   -7.78 KCAL/MOL
REMARK 923 INTER-LIGAND FREE ENERGY PREDICTED BY IDOCK:   -7.25 KCAL/MOL
REMARK 924 INTRA-LIGAND FREE ENERGY PREDICTED BY IDOCK:   -0.54 KCAL/MOL
REMARK 927      BINDING AFFINITY PREDICTED BY RF-SCORE:    0.00 PKD
ROOT
HETATM    1  C   UNL     1     -13.140  11.996  63.489  1.00  0.00    -0.011 C  
HETATM    2  O   UNL     1     -12.721  13.333  63.716  1.00  0.00    -0.686 OA 
ENDROOT
BRANCH   2   3
HETATM    3  C   UNL     1     -11.874  13.547  64.772  1.00  0.00    -0.381 A  
HETATM    4  C   UNL     1     -10.486  13.357  64.809  1.00  0.00    -0.403 A  
HETATM    5  C   UNL     1      -9.797  13.603  66.004  1.00  0.00    -0.290 A  
HETATM    6  C   UNL     1     -12.547  13.925  65.944  1.00  0.00    -0.498 A  
HETATM    7  C   UNL     1     -11.858  14.126  67.141  1.00  0.00    -0.454 A  
HETATM    8  C   UNL     1     -10.481  13.926  67.178  1.00  0.00    -0.269 A  
BRANCH   4   9
HETATM    9  O   UNL     1      -9.820  12.938  63.686  1.00  0.00    -0.199 OA 
HETATM   10  C   UNL     1      -9.708  11.522  63.548  1.00  0.00    -0.336 C  
ENDBRANCH   4   9
BRANCH   8  11
HETATM   11  C   UNL     1      -9.727  14.047  68.472  1.00  0.00    -0.215 C  
BRANCH  11  12
HETATM   12  C   UNL     1      -9.146  15.433  68.689  1.00  0.00    -0.195 C  
BRANCH  12  13
HETATM   13  O   UNL     1      -8.123  15.697  67.727  1.00  0.00    -0.137 OA 
BRANCH  13  14
HETATM   14  C   UNL     1      -7.175  16.722  68.083  1.00  0.00    -0.164 C  
HETATM   15  C   UNL     1      -6.456  16.366  69.394  1.00  0.00    -0.206 C  
HETATM   16  C   UNL     1      -5.630  17.514  69.954  1.00  0.00    -0.242 C  
HETATM   17  C   UNL     1      -6.491  18.760  70.089  1.00  0.00     0.094 C  
HETATM   18  C   UNL     1      -6.948  19.222  68.708  1.00  0.00    -0.365 C  
HETATM   19  C   UNL     1      -7.813  18.153  68.023  1.00  0.00    -0.261 C  
BRANCH  19  20
HETATM   20  N   UNL     1      -8.285  18.429  66.646  1.00  0.00    -0.258 NA 
HETATM   21  C   UNL     1      -8.072  19.787  66.140  1.00  0.00    -0.342 C  
HETATM   22  C   UNL     1      -9.346  20.552  66.463  1.00  0.00    -0.278 C  
HETATM   23  C   UNL     1     -10.436  19.488  66.463  1.00  0.00    -0.493 C  
HETATM   24  C   UNL     1      -9.701  18.145  66.406  1.00  0.00    -0.327 C  
HETATM   25  O   UNL     1     -11.286  19.665  65.334  1.00  0.00    -0.332 OA 
HETATM   26  H   UNL     1     -11.965  19.002  65.334  1.00  0.00     0.000 HD 
ENDBRANCH  19  20
ENDBRANCH  13  14
ENDBRANCH  12  13
ENDBRANCH  11  12
ENDBRANCH   8  11
ENDBRANCH   2   3
TORSDOF 7
ENDMDL
MODEL      106
REMARK 921   NORMALIZED FREE ENERGY PREDICTED BY IDOCK:   -4.87 KCAL/MOL
REMARK 922        TOTAL FREE ENERGY PREDICTED BY IDOCK:   -7.78 KCAL/MOL
REMARK 923 INTER-LIGAND FREE ENERGY PREDICTED BY IDOCK:   -7.12 KCAL/MOL
REMARK 924 INTRA-LIGAND FREE ENERGY PREDICTED BY IDOCK:   -0.67 KCAL/MOL
REMARK 927      BINDING AFFINITY PREDICTED BY RF-SCORE:    0.00 PKD
ROOT
HETATM    1  C   UNL     1      -9.968   4.295  65.760  1.00  0.00    -0.222 C  
HETATM    2  O   UNL     1     -10.501   4.707  67.010  1.00  0.00    -0.131 OA 
ENDROOT
BRANCH   2   3
HETATM    3  C   UNL     1     -10.333   6.023  67.352  1.00  0.00    -0.216 A  
HETATM    4  C   UNL     1     -10.820   6.680  68.491  1.00  0.00    -0.258 A  
HETATM    5  C   UNL     1     -10.568   8.050  68.647  1.00  0.00    -0.143 A  
HETATM    6  C   UNL     1      -9.654   6.761  66.372  1.00  0.00    -0.149 A  
HETATM    7  C   UNL     1      -9.444   8.133  66.515  1.00  0.00    -0.286 A  
HETATM    8  C   UNL     1      -9.938   8.786  67.641  1.00  0.00    -0.247 A  
BRANCH   4   9
HETATM    9  O   UNL     1     -11.531   5.983  69.434  1.00  0.00    -0.372 OA 
HETATM   10  C   UNL     1     -11.768   6.691  70.651  1.00  0.00    -0.394 C  
ENDBRANCH   4   9
BRANCH   8  11
HETATM   11  C   UNL     1      -9.806  10.276  67.779  1.00  0.00    -0.195 C  
BRANCH  11  12
HETATM   12  C   UNL     1     -10.759  11.039  66.876  1.00  0.00    -0.274 C  
BRANCH  12  13
HETATM   13  O   UNL     1     -11.953  11.372  67.584  1.00  0.00    -0.630 OA 
BRANCH  13  14
HETATM   14  C   UNL     1     -11.775  11.808  68.947  1.00  0.00    -0.323 C  
HETATM   15  C   UNL     1     -12.601  10.938  69.907  1.00  0.00    -0.211 C  
HETATM   16  C   UNL     1     -12.657  11.494  71.322  1.00  0.00    -0.452 C  
HETATM   17  C   UNL     1     -13.135  12.938  71.296  1.00  0.00    -0.253 C  
HETATM   18  C   UNL     1     -12.119  13.803  70.555  1.00  0.00    -0.416 C  
HETATM   19  C   UNL     1     -11.969  13.356  69.094  1.00  0.00    -0.317 C  
BRANCH  19  20
HETATM   20  N   UNL     1     -10.971  14.064  68.257  1.00  0.00    -0.247 NA 
HETATM   21  C   UNL     1      -9.722  14.454  68.916  1.00  0.00    -0.144 C  
HETATM   22  C   UNL     1      -9.943  15.873  69.413  1.00  0.00    -0.274 C  
HETATM   23  C   UNL     1     -10.955  16.462  68.438  1.00  0.00    -0.353 C  
HETATM   24  C   UNL     1     -11.459  15.280  67.603  1.00  0.00    -0.280 C  
HETATM   25  O   UNL     1     -10.328  17.446  67.623  1.00  0.00    -0.327 OA 
HETATM   26  H   UNL     1     -10.960  17.812  67.016  1.00  0.00     0.000 HD 
ENDBRANCH  19  20
ENDBRANCH  13  14
ENDBRANCH  12  13
ENDBRANCH  11  12
ENDBRANCH   8  11
ENDBRANCH   2   3
TORSDOF 7
ENDMDL
MODEL      107
REMARK 921   NORMALIZED FREE ENERGY PREDICTED BY IDOCK:   -4.85 KCAL/MOL
REMARK 922        TOTAL FREE ENERGY PREDICTED BY IDOCK:   -7.76 KCAL/MOL
REMARK 923 INTER-LIGAND FREE ENERGY PREDICTED BY IDOCK:   -6.92 KCAL/MOL
REMARK 924 INTRA-LIGAND FREE ENERGY PREDICTED BY IDOCK:   -0.84 KCAL/MOL
REMARK 927      BINDING AFFINITY PREDICTED BY RF-SCORE:    0.00 PKD
ROOT
HETATM    1  C   UNL     1     -10.346  20.255  66.567  1.00  0.00    -0.293 C  
HETATM    2  O   UNL     1      -9.155  19.483  66.627  1.00  0.00    -0.316 OA 
ENDROOT
BRANCH   2   3
HETATM    3  C   UNL     1      -9.300  18.131  66.797  1.00  0.00    -0.286 A  
HETATM    4  C   UNL     1      -8.472  17.112  66.305  1.00  0.00    -0.244 A  
HETATM    5  C   UNL     1      -8.809  15.777  66.561  1.00  0.00    -0.345 A  
HETATM    6  C   UNL     1     -10.473  17.790  67.486  1.00  0.00    -0.376 A  
HETATM    7  C   UNL     1     -10.824  16.456  67.700  1.00  0.00    -0.280 A  
HETATM    8  C   UNL     1     -10.006  15.446  67.201  1.00  0.00    -0.234 A  
BRANCH   4   9
HETATM    9  O   UNL     1      -7.348  17.429  65.584  1.00  0.00    -0.377 OA 
HETATM   10  C   UNL     1      -6.145  17.494  66.348  1.00  0.00    -0.224 C  
ENDBRANCH   4   9
BRANCH   8  11
HETATM   11  C   UNL     1     -10.404  14.003  67.337  1.00  0.00    -0.259 C  
BRANCH  11  12
HETATM   12  C   UNL     1     -11.842  13.747  66.923  1.00  0.00    -0.413 C  
BRANCH  12  13
HETATM   13  O   UNL     1     -11.950  12.484  66.265  1.00  0.00    -0.508 OA 
BRANCH  13  14
HETATM   14  C   UNL     1     -10.809  12.084  65.479  1.00  0.00    -0.292 C  
HETATM   15  C   UNL     1     -11.031  12.412  63.994  1.00  0.00    -0.442 C  
HETATM   16  C   UNL     1      -9.982  11.795  63.082  1.00  0.00    -0.373 C  
HETATM   17  C   UNL     1      -9.885  10.298  63.334  1.00  0.00    -0.135 C  
HETATM   18  C   UNL     1      -9.389  10.047  64.756  1.00  0.00    -0.330 C  
HETATM   19  C   UNL     1     -10.370  10.613  65.794  1.00  0.00    -0.219 C  
BRANCH  19  20
HETATM   20  N   UNL     1      -9.997  10.501  67.224  1.00  0.00    -0.179 NA 
HETATM   21  C   UNL     1      -8.608  10.138  67.514  1.00  0.00    -0.118 C  
HETATM   22  C   UNL     1      -8.596   8.624  67.649  1.00  0.00    -0.136 C  
HETATM   23  C   UNL     1      -9.996   8.277  68.140  1.00  0.00    -0.191 C  
HETATM   24  C   UNL     1     -10.811   9.568  68.006  1.00  0.00    -0.168 C  
HETATM   25  O   UNL     1      -9.939   7.835  69.492  1.00  0.00    -0.180 OA 
HETATM   26  H   UNL     1     -10.812   7.619  69.799  1.00  0.00     0.000 HD 
ENDBRANCH  19  20
ENDBRANCH  13  14
ENDBRANCH  12  13
ENDBRANCH  11  12
ENDBRANCH   8  11
ENDBRANCH   2   3
TORSDOF 7
ENDMDL
MODEL      108
REMARK 921   NORMALIZED FREE ENERGY PREDICTED BY IDOCK:   -4.84 KCAL/MOL
REMARK 922        TOTAL FREE ENERGY PREDICTED BY IDOCK:   -7.74 KCAL/MOL
REMARK 923 INTER-LIGAND FREE ENERGY PREDICTED BY IDOCK:   -7.13 KCAL/MOL
REMARK 924 INTRA-LIGAND FREE ENERGY PREDICTED BY IDOCK:   -0.61 KCAL/MOL
REMARK 927      BINDING AFFINITY PREDICTED BY RF-SCORE:    0.00 PKD
ROOT
HETATM    1  C   UNL     1     -10.060  19.878  67.344  1.00  0.00    -0.430 C  
HETATM    2  O   UNL     1      -9.382  18.655  67.100  1.00  0.00    -0.282 OA 
ENDROOT
BRANCH   2   3
HETATM    3  C   UNL     1     -10.025  17.503  67.471  1.00  0.00    -0.315 A  
HETATM    4  C   UNL     1     -10.517  16.490  66.636  1.00  0.00    -0.266 A  
HETATM    5  C   UNL     1     -11.180  15.397  67.210  1.00  0.00    -0.270 A  
HETATM    6  C   UNL     1     -10.256  17.427  68.852  1.00  0.00    -0.352 A  
HETATM    7  C   UNL     1     -10.955  16.356  69.411  1.00  0.00    -0.325 A  
HETATM    8  C   UNL     1     -11.452  15.356  68.579  1.00  0.00    -0.360 A  
BRANCH   4   9
HETATM    9  O   UNL     1     -10.344  16.575  65.278  1.00  0.00    -0.596 OA 
HETATM   10  C   UNL     1     -11.178  15.706  64.512  1.00  0.00    -0.325 C  
ENDBRANCH   4   9
BRANCH   8  11
HETATM   11  C   UNL     1     -12.285  14.239  69.141  1.00  0.00    -0.272 C  
BRANCH  11  12
HETATM   12  C   UNL     1     -11.499  12.954  69.330  1.00  0.00    -0.282 C  
BRANCH  12  13
HETATM   13  O   UNL     1     -11.873  11.995  68.339  1.00  0.00    -0.320 OA 
BRANCH  13  14
HETATM   14  C   UNL     1     -10.821  11.563  67.454  1.00  0.00    -0.246 C  
HETATM   15  C   UNL     1     -10.885  12.325  66.122  1.00  0.00    -0.314 C  
HETATM   16  C   UNL     1      -9.966  11.746  65.056  1.00  0.00    -0.287 C  
HETATM   17  C   UNL     1     -10.239  10.260  64.884  1.00  0.00    -0.261 C  
HETATM   18  C   UNL     1      -9.888   9.520  66.172  1.00  0.00    -0.343 C  
HETATM   19  C   UNL     1     -10.758  10.001  67.343  1.00  0.00    -0.274 C  
BRANCH  19  20
HETATM   20  N   UNL     1     -10.494   9.417  68.680  1.00  0.00    -0.207 NA 
HETATM   21  C   UNL     1      -9.382   9.992  69.439  1.00  0.00    -0.223 C  
HETATM   22  C   UNL     1      -8.168   9.141  69.103  1.00  0.00    -0.117 C  
HETATM   23  C   UNL     1      -8.747   7.768  68.783  1.00  0.00    -0.128 C  
HETATM   24  C   UNL     1     -10.263   7.971  68.691  1.00  0.00    -0.206 C  
HETATM   25  O   UNL     1      -8.406   6.847  69.813  1.00  0.00    -0.129 OA 
HETATM   26  H   UNL     1      -8.767   5.991  69.613  1.00  0.00     0.000 HD 
ENDBRANCH  19  20
ENDBRANCH  13  14
ENDBRANCH  12  13
ENDBRANCH  11  12
ENDBRANCH   8  11
ENDBRANCH   2   3
TORSDOF 7
ENDMDL
MODEL      109
REMARK 921   NORMALIZED FREE ENERGY PREDICTED BY IDOCK:   -4.84 KCAL/MOL
REMARK 922        TOTAL FREE ENERGY PREDICTED BY IDOCK:   -7.74 KCAL/MOL
REMARK 923 INTER-LIGAND FREE ENERGY PREDICTED BY IDOCK:   -7.34 KCAL/MOL
REMARK 924 INTRA-LIGAND FREE ENERGY PREDICTED BY IDOCK:   -0.40 KCAL/MOL
REMARK 927      BINDING AFFINITY PREDICTED BY RF-SCORE:    0.00 PKD
ROOT
HETATM    1  C   UNL     1      -6.794   8.430  64.343  1.00  0.00    -0.069 C  
HETATM    2  O   UNL     1      -7.951   7.847  64.924  1.00  0.00    -0.125 OA 
ENDROOT
BRANCH   2   3
HETATM    3  C   UNL     1      -8.872   8.703  65.468  1.00  0.00    -0.179 A  
HETATM    4  C   UNL     1      -9.509   9.784  64.842  1.00  0.00    -0.265 A  
HETATM    5  C   UNL     1     -10.404  10.568  65.583  1.00  0.00    -0.274 A  
HETATM    6  C   UNL     1      -9.103   8.465  66.830  1.00  0.00    -0.179 A  
HETATM    7  C   UNL     1      -9.963   9.277  67.571  1.00  0.00    -0.254 A  
HETATM    8  C   UNL     1     -10.586  10.357  66.951  1.00  0.00    -0.293 A  
BRANCH   4   9
HETATM    9  O   UNL     1      -9.255  10.062  63.523  1.00  0.00    -0.257 OA 
HETATM   10  C   UNL     1      -9.686  11.351  63.088  1.00  0.00    -0.393 C  
ENDBRANCH   4   9
BRANCH   8  11
HETATM   11  C   UNL     1     -11.446  11.300  67.744  1.00  0.00    -0.350 C  
BRANCH  11  12
HETATM   12  C   UNL     1     -10.739  11.854  68.968  1.00  0.00    -0.156 C  
BRANCH  12  13
HETATM   13  O   UNL     1     -10.519  13.258  68.820  1.00  0.00    -0.232 OA 
BRANCH  13  14
HETATM   14  C   UNL     1      -9.455  13.637  67.924  1.00  0.00    -0.213 C  
HETATM   15  C   UNL     1      -8.134  12.970  68.339  1.00  0.00    -0.131 C  
HETATM   16  C   UNL     1      -6.926  13.518  67.594  1.00  0.00    -0.176 C  
HETATM   17  C   UNL     1      -6.875  15.033  67.726  1.00  0.00    -0.190 C  
HETATM   18  C   UNL     1      -8.093  15.651  67.044  1.00  0.00    -0.276 C  
HETATM   19  C   UNL     1      -9.397  15.188  67.710  1.00  0.00    -0.189 C  
BRANCH  19  20
HETATM   20  N   UNL     1     -10.674  15.656  67.121  1.00  0.00    -0.313 NA 
HETATM   21  C   UNL     1     -11.629  14.622  66.719  1.00  0.00    -0.360 C  
HETATM   22  C   UNL     1     -11.343  14.342  65.252  1.00  0.00    -0.346 C  
HETATM   23  C   UNL     1     -10.787  15.657  64.718  1.00  0.00    -0.355 C  
HETATM   24  C   UNL     1     -10.535  16.529  65.953  1.00  0.00    -0.323 C  
HETATM   25  O   UNL     1     -11.730  16.259  63.838  1.00  0.00    -1.441 OA 
HETATM   26  H   UNL     1     -11.383  17.079  63.505  1.00  0.00     0.000 HD 
ENDBRANCH  19  20
ENDBRANCH  13  14
ENDBRANCH  12  13
ENDBRANCH  11  12
ENDBRANCH   8  11
ENDBRANCH   2   3
TORSDOF 7
ENDMDL
MODEL      110
REMARK 921   NORMALIZED FREE ENERGY PREDICTED BY IDOCK:   -4.83 KCAL/MOL
REMARK 922        TOTAL FREE ENERGY PREDICTED BY IDOCK:   -7.73 KCAL/MOL
REMARK 923 INTER-LIGAND FREE ENERGY PREDICTED BY IDOCK:   -7.15 KCAL/MOL
REMARK 924 INTRA-LIGAND FREE ENERGY PREDICTED BY IDOCK:   -0.59 KCAL/MOL
REMARK 927      BINDING AFFINITY PREDICTED BY RF-SCORE:    0.00 PKD
ROOT
HETATM    1  C   UNL     1     -10.326  18.387  66.051  1.00  0.00    -0.375 C  
HETATM    2  O   UNL     1     -10.589  17.160  65.386  1.00  0.00    -0.618 OA 
ENDROOT
BRANCH   2   3
HETATM    3  C   UNL     1     -10.094  16.022  65.966  1.00  0.00    -0.341 A  
HETATM    4  C   UNL     1     -10.734  14.782  66.102  1.00  0.00    -0.314 A  
HETATM    5  C   UNL     1     -10.067  13.740  66.760  1.00  0.00    -0.265 A  
HETATM    6  C   UNL     1      -8.827  16.207  66.539  1.00  0.00    -0.331 A  
HETATM    7  C   UNL     1      -8.188  15.176  67.231  1.00  0.00    -0.234 A  
HETATM    8  C   UNL     1      -8.830  13.949  67.374  1.00  0.00    -0.209 A  
BRANCH   4   9
HETATM    9  O   UNL     1     -11.994  14.600  65.592  1.00  0.00    -0.329 OA 
HETATM   10  C   UNL     1     -12.438  13.244  65.557  1.00  0.00    -0.474 C  
ENDBRANCH   4   9
BRANCH   8  11
HETATM   11  C   UNL     1      -8.207  12.852  68.189  1.00  0.00    -0.163 C  
BRANCH  11  12
HETATM   12  C   UNL     1      -9.153  11.692  68.438  1.00  0.00    -0.180 C  
BRANCH  12  13
HETATM   13  O   UNL     1      -8.455  10.607  69.052  1.00  0.00    -0.143 OA 
BRANCH  13  14
HETATM   14  C   UNL     1      -8.726   9.299  68.510  1.00  0.00    -0.128 C  
HETATM   15  C   UNL     1      -8.787   9.348  66.976  1.00  0.00    -0.139 C  
HETATM   16  C   UNL     1      -9.313   8.063  66.355  1.00  0.00    -0.259 C  
HETATM   17  C   UNL     1     -10.652   7.694  66.975  1.00  0.00    -0.406 C  
HETATM   18  C   UNL     1     -10.466   7.386  68.458  1.00  0.00    -0.215 C  
HETATM   19  C   UNL     1      -9.945   8.615  69.219  1.00  0.00    -0.195 C  
BRANCH  19  20
HETATM   20  N   UNL     1      -9.655   8.456  70.664  1.00  0.00    -0.167 NA 
HETATM   21  C   UNL     1      -9.281   7.114  71.115  1.00  0.00    -0.157 C  
HETATM   22  C   UNL     1     -10.576   6.451  71.556  1.00  0.00    -0.273 C  
HETATM   23  C   UNL     1     -11.457   7.607  72.011  1.00  0.00    -0.283 C  
HETATM   24  C   UNL     1     -10.731   8.880  71.562  1.00  0.00    -0.328 C  
HETATM   25  O   UNL     1     -11.614   7.568  73.426  1.00  0.00    -0.621 OA 
HETATM   26  H   UNL     1     -12.163   8.290  73.710  1.00  0.00     0.000 HD 
ENDBRANCH  19  20
ENDBRANCH  13  14
ENDBRANCH  12  13
ENDBRANCH  11  12
ENDBRANCH   8  11
ENDBRANCH   2   3
TORSDOF 7
ENDMDL
MODEL      111
REMARK 921   NORMALIZED FREE ENERGY PREDICTED BY IDOCK:   -4.81 KCAL/MOL
REMARK 922        TOTAL FREE ENERGY PREDICTED BY IDOCK:   -7.71 KCAL/MOL
REMARK 923 INTER-LIGAND FREE ENERGY PREDICTED BY IDOCK:   -7.10 KCAL/MOL
REMARK 924 INTRA-LIGAND FREE ENERGY PREDICTED BY IDOCK:   -0.61 KCAL/MOL
REMARK 927      BINDING AFFINITY PREDICTED BY RF-SCORE:    0.00 PKD
ROOT
HETATM    1  C   UNL     1     -14.193  13.544  72.220  1.00  0.00    -0.369 C  
HETATM    2  O   UNL     1     -12.797  13.432  71.988  1.00  0.00    -0.290 OA 
ENDROOT
BRANCH   2   3
HETATM    3  C   UNL     1     -12.408  12.727  70.879  1.00  0.00    -0.265 A  
HETATM    4  C   UNL     1     -12.245  11.339  70.760  1.00  0.00    -0.380 A  
HETATM    5  C   UNL     1     -11.804  10.808  69.541  1.00  0.00    -0.380 A  
HETATM    6  C   UNL     1     -12.073  13.552  69.796  1.00  0.00    -0.381 A  
HETATM    7  C   UNL     1     -11.594  13.017  68.599  1.00  0.00    -0.354 A  
HETATM    8  C   UNL     1     -11.423  11.640  68.487  1.00  0.00    -0.358 A  
BRANCH   4   9
HETATM    9  O   UNL     1     -12.519  10.522  71.827  1.00  0.00    -0.373 OA 
HETATM   10  C   UNL     1     -13.540   9.552  71.594  1.00  0.00    -0.350 C  
ENDBRANCH   4   9
BRANCH   8  11
HETATM   11  C   UNL     1     -10.824  11.044  67.245  1.00  0.00    -0.335 C  
BRANCH  11  12
HETATM   12  C   UNL     1      -9.892   9.882  67.538  1.00  0.00    -0.169 C  
BRANCH  12  13
HETATM   13  O   UNL     1     -10.516   8.646  67.188  1.00  0.00    -0.285 OA 
BRANCH  13  14
HETATM   14  C   UNL     1      -9.840   7.453  67.631  1.00  0.00    -0.154 C  
HETATM   15  C   UNL     1      -9.262   6.680  66.434  1.00  0.00    -0.180 C  
HETATM   16  C   UNL     1      -8.757   5.294  66.804  1.00  0.00    -0.112 C  
HETATM   17  C   UNL     1      -9.850   4.514  67.520  1.00  0.00    -0.191 C  
HETATM   18  C   UNL     1     -10.183   5.195  68.845  1.00  0.00    -0.221 C  
HETATM   19  C   UNL     1     -10.722   6.616  68.620  1.00  0.00    -0.254 C  
BRANCH  19  20
HETATM   20  N   UNL     1     -11.035   7.430  69.818  1.00  0.00    -0.232 NA 
HETATM   21  C   UNL     1      -9.893   7.950  70.574  1.00  0.00    -0.186 C  
HETATM   22  C   UNL     1      -9.611   6.920  71.656  1.00  0.00    -0.161 C  
HETATM   23  C   UNL     1     -10.965   6.274  71.925  1.00  0.00    -0.256 C  
HETATM   24  C   UNL     1     -11.889   6.773  70.809  1.00  0.00    -0.392 C  
HETATM   25  O   UNL     1     -11.440   6.664  73.209  1.00  0.00    -0.469 OA 
HETATM   26  H   UNL     1     -12.284   6.261  73.377  1.00  0.00     0.000 HD 
ENDBRANCH  19  20
ENDBRANCH  13  14
ENDBRANCH  12  13
ENDBRANCH  11  12
ENDBRANCH   8  11
ENDBRANCH   2   3
TORSDOF 7
ENDMDL
MODEL      112
REMARK 921   NORMALIZED FREE ENERGY PREDICTED BY IDOCK:   -4.81 KCAL/MOL
REMARK 922        TOTAL FREE ENERGY PREDICTED BY IDOCK:   -7.70 KCAL/MOL
REMARK 923 INTER-LIGAND FREE ENERGY PREDICTED BY IDOCK:   -7.14 KCAL/MOL
REMARK 924 INTRA-LIGAND FREE ENERGY PREDICTED BY IDOCK:   -0.55 KCAL/MOL
REMARK 927      BINDING AFFINITY PREDICTED BY RF-SCORE:    0.00 PKD
ROOT
HETATM    1  C   UNL     1     -11.739  14.640  67.303  1.00  0.00    -0.385 C  
HETATM    2  O   UNL     1     -12.329  13.626  66.503  1.00  0.00    -0.412 OA 
ENDROOT
BRANCH   2   3
HETATM    3  C   UNL     1     -11.628  12.456  66.367  1.00  0.00    -0.384 A  
HETATM    4  C   UNL     1     -11.188  11.854  65.180  1.00  0.00    -0.289 A  
HETATM    5  C   UNL     1     -10.509  10.631  65.248  1.00  0.00    -0.264 A  
HETATM    6  C   UNL     1     -11.427  11.795  67.588  1.00  0.00    -0.370 A  
HETATM    7  C   UNL     1     -10.788  10.555  67.642  1.00  0.00    -0.355 A  
HETATM    8  C   UNL     1     -10.361   9.954  66.461  1.00  0.00    -0.259 A  
BRANCH   4   9
HETATM    9  O   UNL     1     -11.422  12.464  63.974  1.00  0.00    -0.345 OA 
HETATM   10  C   UNL     1     -12.454  11.865  63.190  1.00  0.00    -0.237 C  
ENDBRANCH   4   9
BRANCH   8  11
HETATM   11  C   UNL     1      -9.752   8.581  66.480  1.00  0.00    -0.330 C  
BRANCH  11  12
HETATM   12  C   UNL     1      -8.971   8.299  67.751  1.00  0.00    -0.136 C  
BRANCH  12  13
HETATM   13  O   UNL     1      -9.702   7.405  68.592  1.00  0.00    -0.149 OA 
BRANCH  13  14
HETATM   14  C   UNL     1      -9.419   7.495  70.002  1.00  0.00    -0.161 C  
HETATM   15  C   UNL     1      -7.991   7.013  70.301  1.00  0.00    -0.117 C  
HETATM   16  C   UNL     1      -7.714   6.846  71.788  1.00  0.00    -0.095 C  
HETATM   17  C   UNL     1      -8.769   5.950  72.418  1.00  0.00    -0.127 C  
HETATM   18  C   UNL     1     -10.136   6.623  72.329  1.00  0.00    -0.191 C  
HETATM   19  C   UNL     1     -10.552   6.845  70.867  1.00  0.00    -0.218 C  
BRANCH  19  20
HETATM   20  N   UNL     1     -11.834   7.546  70.616  1.00  0.00    -0.230 NA 
HETATM   21  C   UNL     1     -11.772   9.004  70.501  1.00  0.00    -0.126 C  
HETATM   22  C   UNL     1     -12.039   9.541  71.899  1.00  0.00    -0.409 C  
HETATM   23  C   UNL     1     -12.919   8.480  72.548  1.00  0.00    -0.249 C  
HETATM   24  C   UNL     1     -12.889   7.279  71.596  1.00  0.00    -0.375 C  
HETATM   25  O   UNL     1     -14.241   8.982  72.713  1.00  0.00    -0.933 OA 
HETATM   26  H   UNL     1     -14.790   8.320  73.118  1.00  0.00     0.000 HD 
ENDBRANCH  19  20
ENDBRANCH  13  14
ENDBRANCH  12  13
ENDBRANCH  11  12
ENDBRANCH   8  11
ENDBRANCH   2   3
TORSDOF 7
ENDMDL
MODEL      113
REMARK 921   NORMALIZED FREE ENERGY PREDICTED BY IDOCK:   -4.80 KCAL/MOL
REMARK 922        TOTAL FREE ENERGY PREDICTED BY IDOCK:   -7.68 KCAL/MOL
REMARK 923 INTER-LIGAND FREE ENERGY PREDICTED BY IDOCK:   -6.93 KCAL/MOL
REMARK 924 INTRA-LIGAND FREE ENERGY PREDICTED BY IDOCK:   -0.76 KCAL/MOL
REMARK 927      BINDING AFFINITY PREDICTED BY RF-SCORE:    0.00 PKD
ROOT
HETATM    1  C   UNL     1     -13.520  15.948  73.186  1.00  0.00    -0.563 C  
HETATM    2  O   UNL     1     -13.666  15.617  71.813  1.00  0.00    -0.471 OA 
ENDROOT
BRANCH   2   3
HETATM    3  C   UNL     1     -13.154  14.412  71.408  1.00  0.00    -0.346 A  
HETATM    4  C   UNL     1     -12.314  14.163  70.314  1.00  0.00    -0.356 A  
HETATM    5  C   UNL     1     -11.921  12.845  70.043  1.00  0.00    -0.380 A  
HETATM    6  C   UNL     1     -13.625  13.334  72.171  1.00  0.00    -0.655 A  
HETATM    7  C   UNL     1     -13.263  12.020  71.868  1.00  0.00    -0.469 A  
HETATM    8  C   UNL     1     -12.438  11.774  70.775  1.00  0.00    -0.405 A  
BRANCH   4   9
HETATM    9  O   UNL     1     -11.886  15.201  69.526  1.00  0.00    -0.300 OA 
HETATM   10  C   UNL     1     -11.551  14.840  68.187  1.00  0.00    -0.332 C  
ENDBRANCH   4   9
BRANCH   8  11
HETATM   11  C   UNL     1     -12.105  10.365  70.371  1.00  0.00    -0.402 C  
BRANCH  11  12
HETATM   12  C   UNL     1     -11.039  10.297  69.293  1.00  0.00    -0.245 C  
BRANCH  12  13
HETATM   13  O   UNL     1      -9.898   9.581  69.769  1.00  0.00    -0.188 OA 
BRANCH  13  14
HETATM   14  C   UNL     1      -8.746   9.585  68.903  1.00  0.00    -0.133 C  
HETATM   15  C   UNL     1      -8.231  11.017  68.692  1.00  0.00    -0.151 C  
HETATM   16  C   UNL     1      -7.179  11.120  67.598  1.00  0.00    -0.094 C  
HETATM   17  C   UNL     1      -7.701  10.500  66.312  1.00  0.00    -0.135 C  
HETATM   18  C   UNL     1      -7.932   9.005  66.518  1.00  0.00    -0.103 C  
HETATM   19  C   UNL     1      -8.993   8.751  67.600  1.00  0.00    -0.135 C  
BRANCH  19  20
HETATM   20  N   UNL     1      -9.286   7.343  67.958  1.00  0.00    -0.133 NA 
HETATM   21  C   UNL     1      -8.396   6.325  67.397  1.00  0.00    -0.109 C  
HETATM   22  C   UNL     1      -9.051   5.871  66.103  1.00  0.00    -0.160 C  
HETATM   23  C   UNL     1     -10.541   6.084  66.339  1.00  0.00    -0.075 C  
HETATM   24  C   UNL     1     -10.641   6.890  67.638  1.00  0.00    -0.261 C  
HETATM   25  O   UNL     1     -11.198   4.826  66.454  1.00  0.00    -0.325 OA 
HETATM   26  H   UNL     1     -12.128   4.960  66.602  1.00  0.00     0.000 HD 
ENDBRANCH  19  20
ENDBRANCH  13  14
ENDBRANCH  12  13
ENDBRANCH  11  12
ENDBRANCH   8  11
ENDBRANCH   2   3
TORSDOF 7
ENDMDL
MODEL      114
REMARK 921   NORMALIZED FREE ENERGY PREDICTED BY IDOCK:   -4.79 KCAL/MOL
REMARK 922        TOTAL FREE ENERGY PREDICTED BY IDOCK:   -7.68 KCAL/MOL
REMARK 923 INTER-LIGAND FREE ENERGY PREDICTED BY IDOCK:   -6.90 KCAL/MOL
REMARK 924 INTRA-LIGAND FREE ENERGY PREDICTED BY IDOCK:   -0.77 KCAL/MOL
REMARK 927      BINDING AFFINITY PREDICTED BY RF-SCORE:    0.00 PKD
ROOT
HETATM    1  C   UNL     1     -12.745  12.056  63.466  1.00  0.00    -0.443 C  
HETATM    2  O   UNL     1     -11.340  12.074  63.268  1.00  0.00    -0.381 OA 
ENDROOT
BRANCH   2   3
HETATM    3  C   UNL     1     -10.555  11.825  64.363  1.00  0.00    -0.317 A  
HETATM    4  C   UNL     1     -10.165  12.728  65.361  1.00  0.00    -0.283 A  
HETATM    5  C   UNL     1      -9.325  12.284  66.391  1.00  0.00    -0.219 A  
HETATM    6  C   UNL     1     -10.054  10.515  64.389  1.00  0.00    -0.395 A  
HETATM    7  C   UNL     1      -9.184  10.093  65.395  1.00  0.00    -0.249 A  
HETATM    8  C   UNL     1      -8.789  10.995  66.379  1.00  0.00    -0.182 A  
BRANCH   4   9
HETATM    9  O   UNL     1     -10.605  14.027  65.322  1.00  0.00    -0.321 OA 
HETATM   10  C   UNL     1     -11.621  14.345  66.271  1.00  0.00    -0.372 C  
ENDBRANCH   4   9
BRANCH   8  11
HETATM   11  C   UNL     1      -7.784  10.595  67.422  1.00  0.00    -0.106 C  
BRANCH  11  12
HETATM   12  C   UNL     1      -8.413  10.338  68.780  1.00  0.00    -0.130 C  
BRANCH  12  13
HETATM   13  O   UNL     1      -9.259   9.188  68.723  1.00  0.00    -0.135 OA 
BRANCH  13  14
HETATM   14  C   UNL     1     -10.558   9.334  69.330  1.00  0.00    -0.223 C  
HETATM   15  C   UNL     1     -11.324  10.507  68.699  1.00  0.00    -0.315 C  
HETATM   16  C   UNL     1     -12.592  10.872  69.456  1.00  0.00     0.017 C  
HETATM   17  C   UNL     1     -12.272  11.114  70.924  1.00  0.00    -0.468 C  
HETATM   18  C   UNL     1     -11.771   9.821  71.562  1.00  0.00    -0.450 C  
HETATM   19  C   UNL     1     -10.474   9.339  70.895  1.00  0.00    -0.302 C  
BRANCH  19  20
HETATM   20  N   UNL     1      -9.894   8.058  71.366  1.00  0.00    -0.167 NA 
HETATM   21  C   UNL     1     -10.618   6.838  71.003  1.00  0.00    -0.222 C  
HETATM   22  C   UNL     1     -11.556   6.553  72.164  1.00  0.00    -0.349 C  
HETATM   23  C   UNL     1     -10.849   7.146  73.376  1.00  0.00    -0.319 C  
HETATM   24  C   UNL     1      -9.684   7.967  72.812  1.00  0.00    -0.280 C  
HETATM   25  O   UNL     1     -10.387   6.102  74.227  1.00  0.00    -0.292 OA 
HETATM   26  H   UNL     1      -9.946   6.473  74.982  1.00  0.00     0.000 HD 
ENDBRANCH  19  20
ENDBRANCH  13  14
ENDBRANCH  12  13
ENDBRANCH  11  12
ENDBRANCH   8  11
ENDBRANCH   2   3
TORSDOF 7
ENDMDL
MODEL      115
REMARK 921   NORMALIZED FREE ENERGY PREDICTED BY IDOCK:   -4.79 KCAL/MOL
REMARK 922        TOTAL FREE ENERGY PREDICTED BY IDOCK:   -7.67 KCAL/MOL
REMARK 923 INTER-LIGAND FREE ENERGY PREDICTED BY IDOCK:   -6.98 KCAL/MOL
REMARK 924 INTRA-LIGAND FREE ENERGY PREDICTED BY IDOCK:   -0.69 KCAL/MOL
REMARK 927      BINDING AFFINITY PREDICTED BY RF-SCORE:    0.00 PKD
ROOT
HETATM    1  C   UNL     1      -8.918  17.256  66.380  1.00  0.00    -0.252 C  
HETATM    2  O   UNL     1      -9.785  16.337  65.732  1.00  0.00    -0.401 OA 
ENDROOT
BRANCH   2   3
HETATM    3  C   UNL     1     -10.405  15.405  66.521  1.00  0.00    -0.289 A  
HETATM    4  C   UNL     1     -11.441  14.531  66.163  1.00  0.00    -0.357 A  
HETATM    5  C   UNL     1     -11.968  13.666  67.131  1.00  0.00    -0.434 A  
HETATM    6  C   UNL     1      -9.960  15.432  67.851  1.00  0.00    -0.221 A  
HETATM    7  C   UNL     1     -10.520  14.598  68.819  1.00  0.00    -0.246 A  
HETATM    8  C   UNL     1     -11.556  13.738  68.463  1.00  0.00    -0.373 A  
BRANCH   4   9
HETATM    9  O   UNL     1     -11.923  14.529  64.879  1.00  0.00    -0.392 OA 
HETATM   10  C   UNL     1     -12.275  13.241  64.373  1.00  0.00    -0.390 C  
ENDBRANCH   4   9
BRANCH   8  11
HETATM   11  C   UNL     1     -12.239  12.894  69.502  1.00  0.00    -0.177 C  
BRANCH  11  12
HETATM   12  C   UNL     1     -11.547  11.562  69.728  1.00  0.00    -0.326 C  
BRANCH  12  13
HETATM   13  O   UNL     1     -11.850  10.660  68.662  1.00  0.00    -0.371 OA 
BRANCH  13  14
HETATM   14  C   UNL     1     -10.759   9.834  68.209  1.00  0.00    -0.233 C  
HETATM   15  C   UNL     1     -10.536  10.010  66.699  1.00  0.00    -0.244 C  
HETATM   16  C   UNL     1      -9.573   8.989  66.112  1.00  0.00    -0.341 C  
HETATM   17  C   UNL     1     -10.025   7.581  66.468  1.00  0.00    -0.209 C  
HETATM   18  C   UNL     1      -9.959   7.385  67.980  1.00  0.00    -0.195 C  
HETATM   19  C   UNL     1     -10.902   8.355  68.708  1.00  0.00     0.052 C  
BRANCH  19  20
HETATM   20  N   UNL     1     -10.906   8.328  70.190  1.00  0.00    -0.241 NA 
HETATM   21  C   UNL     1      -9.825   7.579  70.835  1.00  0.00    -0.177 C  
HETATM   22  C   UNL     1     -10.369   6.177  71.056  1.00  0.00    -0.260 C  
HETATM   23  C   UNL     1     -11.873   6.375  71.205  1.00  0.00    -0.273 C  
HETATM   24  C   UNL     1     -12.140   7.828  70.798  1.00  0.00    -0.100 C  
HETATM   25  O   UNL     1     -12.262   6.131  72.553  1.00  0.00    -0.536 OA 
HETATM   26  H   UNL     1     -13.200   6.254  72.645  1.00  0.00     0.000 HD 
ENDBRANCH  19  20
ENDBRANCH  13  14
ENDBRANCH  12  13
ENDBRANCH  11  12
ENDBRANCH   8  11
ENDBRANCH   2   3
TORSDOF 7
ENDMDL
MODEL      116
REMARK 921   NORMALIZED FREE ENERGY PREDICTED BY IDOCK:   -4.78 KCAL/MOL
REMARK 922        TOTAL FREE ENERGY PREDICTED BY IDOCK:   -7.66 KCAL/MOL
REMARK 923 INTER-LIGAND FREE ENERGY PREDICTED BY IDOCK:   -7.06 KCAL/MOL
REMARK 924 INTRA-LIGAND FREE ENERGY PREDICTED BY IDOCK:   -0.60 KCAL/MOL
REMARK 927      BINDING AFFINITY PREDICTED BY RF-SCORE:    0.00 PKD
ROOT
HETATM    1  C   UNL     1     -10.667  19.281  67.183  1.00  0.00    -0.480 C  
HETATM    2  O   UNL     1      -9.796  18.162  67.104  1.00  0.00    -0.295 OA 
ENDROOT
BRANCH   2   3
HETATM    3  C   UNL     1     -10.343  16.931  67.359  1.00  0.00    -0.309 A  
HETATM    4  C   UNL     1     -10.684  15.937  66.432  1.00  0.00    -0.256 A  
HETATM    5  C   UNL     1     -11.267  14.748  66.892  1.00  0.00    -0.347 A  
HETATM    6  C   UNL     1     -10.642  16.737  68.716  1.00  0.00    -0.348 A  
HETATM    7  C   UNL     1     -11.263  15.568  69.159  1.00  0.00    -0.300 A  
HETATM    8  C   UNL     1     -11.610  14.586  68.236  1.00  0.00    -0.358 A  
BRANCH   4   9
HETATM    9  O   UNL     1     -10.444  16.133  65.096  1.00  0.00    -0.560 OA 
HETATM   10  C   UNL     1     -11.303  15.404  64.219  1.00  0.00    -0.126 C  
ENDBRANCH   4   9
BRANCH   8  11
HETATM   11  C   UNL     1     -12.359  13.359  68.672  1.00  0.00     0.052 C  
BRANCH  11  12
HETATM   12  C   UNL     1     -11.825  12.770  69.965  1.00  0.00    -0.281 C  
BRANCH  12  13
HETATM   13  O   UNL     1     -11.179  11.522  69.710  1.00  0.00    -0.240 OA 
BRANCH  13  14
HETATM   14  C   UNL     1     -11.906  10.343  70.111  1.00  0.00    -0.297 C  
HETATM   15  C   UNL     1     -12.888  10.672  71.246  1.00  0.00    -0.535 C  
HETATM   16  C   UNL     1     -13.503   9.434  71.883  1.00  0.00    -0.500 C  
HETATM   17  C   UNL     1     -12.408   8.476  72.326  1.00  0.00    -0.450 C  
HETATM   18  C   UNL     1     -11.641   7.971  71.106  1.00  0.00    -0.307 C  
HETATM   19  C   UNL     1     -10.952   9.127  70.366  1.00  0.00    -0.248 C  
BRANCH  19  20
HETATM   20  N   UNL     1     -10.214   8.804  69.122  1.00  0.00    -0.203 NA 
HETATM   21  C   UNL     1     -10.278   7.414  68.664  1.00  0.00    -0.191 C  
HETATM   22  C   UNL     1      -9.065   6.724  69.267  1.00  0.00    -0.139 C  
HETATM   23  C   UNL     1      -8.033   7.835  69.413  1.00  0.00    -0.124 C  
HETATM   24  C   UNL     1      -8.789   9.139  69.140  1.00  0.00    -0.146 C  
HETATM   25  O   UNL     1      -6.976   7.640  68.479  1.00  0.00    -0.067 OA 
HETATM   26  H   UNL     1      -6.332   8.333  68.570  1.00  0.00     0.000 HD 
ENDBRANCH  19  20
ENDBRANCH  13  14
ENDBRANCH  12  13
ENDBRANCH  11  12
ENDBRANCH   8  11
ENDBRANCH   2   3
TORSDOF 7
ENDMDL
MODEL      117
REMARK 921   NORMALIZED FREE ENERGY PREDICTED BY IDOCK:   -4.78 KCAL/MOL
REMARK 922        TOTAL FREE ENERGY PREDICTED BY IDOCK:   -7.65 KCAL/MOL
REMARK 923 INTER-LIGAND FREE ENERGY PREDICTED BY IDOCK:   -7.04 KCAL/MOL
REMARK 924 INTRA-LIGAND FREE ENERGY PREDICTED BY IDOCK:   -0.61 KCAL/MOL
REMARK 927      BINDING AFFINITY PREDICTED BY RF-SCORE:    0.00 PKD
ROOT
HETATM    1  C   UNL     1      -9.985   9.413  66.443  1.00  0.00    -0.276 C  
HETATM    2  O   UNL     1     -11.068   9.531  67.354  1.00  0.00    -0.148 OA 
ENDROOT
BRANCH   2   3
HETATM    3  C   UNL     1     -11.249  10.752  67.948  1.00  0.00    -0.318 A  
HETATM    4  C   UNL     1     -11.631  11.013  69.272  1.00  0.00    -0.314 A  
HETATM    5  C   UNL     1     -11.796  12.342  69.683  1.00  0.00    -0.393 A  
HETATM    6  C   UNL     1     -11.096  11.822  67.055  1.00  0.00    -0.358 A  
HETATM    7  C   UNL     1     -11.304  13.141  67.462  1.00  0.00    -0.336 A  
HETATM    8  C   UNL     1     -11.693  13.397  68.774  1.00  0.00    -0.377 A  
BRANCH   4   9
HETATM    9  O   UNL     1     -11.836   9.975  70.144  1.00  0.00    -0.238 OA 
HETATM   10  C   UNL     1     -12.891  10.180  71.083  1.00  0.00    -0.399 C  
ENDBRANCH   4   9
BRANCH   8  11
HETATM   11  C   UNL     1     -12.012  14.797  69.216  1.00  0.00    -0.329 C  
BRANCH  11  12
HETATM   12  C   UNL     1     -10.776  15.593  69.591  1.00  0.00    -0.278 C  
BRANCH  12  13
HETATM   13  O   UNL     1     -10.147  16.112  68.419  1.00  0.00    -0.226 OA 
BRANCH  13  14
HETATM   14  C   UNL     1      -8.731  15.865  68.302  1.00  0.00    -0.174 C  
HETATM   15  C   UNL     1      -8.212  15.096  69.527  1.00  0.00    -0.160 C  
HETATM   16  C   UNL     1      -6.694  15.021  69.589  1.00  0.00    -0.177 C  
HETATM   17  C   UNL     1      -6.099  16.418  69.489  1.00  0.00    -0.188 C  
HETATM   18  C   UNL     1      -6.424  17.020  68.125  1.00  0.00    -0.148 C  
HETATM   19  C   UNL     1      -7.940  17.166  67.930  1.00  0.00    -0.192 C  
BRANCH  19  20
HETATM   20  N   UNL     1      -8.419  17.682  66.626  1.00  0.00    -0.247 NA 
HETATM   21  C   UNL     1      -7.505  18.562  65.893  1.00  0.00    -0.175 C  
HETATM   22  C   UNL     1      -7.875  19.978  66.307  1.00  0.00    -0.323 C  
HETATM   23  C   UNL     1      -9.357  19.896  66.650  1.00  0.00    -0.395 C  
HETATM   24  C   UNL     1      -9.694  18.401  66.673  1.00  0.00    -0.337 C  
HETATM   25  O   UNL     1     -10.120  20.587  65.666  1.00  0.00    -0.538 OA 
HETATM   26  H   UNL     1     -11.044  20.536  65.880  1.00  0.00     0.000 HD 
ENDBRANCH  19  20
ENDBRANCH  13  14
ENDBRANCH  12  13
ENDBRANCH  11  12
ENDBRANCH   8  11
ENDBRANCH   2   3
TORSDOF 7
ENDMDL
MODEL      118
REMARK 921   NORMALIZED FREE ENERGY PREDICTED BY IDOCK:   -4.78 KCAL/MOL
REMARK 922        TOTAL FREE ENERGY PREDICTED BY IDOCK:   -7.65 KCAL/MOL
REMARK 923 INTER-LIGAND FREE ENERGY PREDICTED BY IDOCK:   -6.70 KCAL/MOL
REMARK 924 INTRA-LIGAND FREE ENERGY PREDICTED BY IDOCK:   -0.95 KCAL/MOL
REMARK 927      BINDING AFFINITY PREDICTED BY RF-SCORE:    0.00 PKD
ROOT
HETATM    1  C   UNL     1      -7.865  11.997  68.434  1.00  0.00    -0.147 C  
HETATM    2  O   UNL     1      -9.095  11.754  67.768  1.00  0.00    -0.166 OA 
ENDROOT
BRANCH   2   3
HETATM    3  C   UNL     1     -10.118  11.242  68.522  1.00  0.00    -0.204 A  
HETATM    4  C   UNL     1     -11.469  11.617  68.500  1.00  0.00    -0.298 A  
HETATM    5  C   UNL     1     -12.363  10.992  69.379  1.00  0.00    -0.222 A  
HETATM    6  C   UNL     1      -9.685  10.292  69.458  1.00  0.00    -0.235 A  
HETATM    7  C   UNL     1     -10.575   9.705  70.359  1.00  0.00    -0.354 A  
HETATM    8  C   UNL     1     -11.913  10.087  70.343  1.00  0.00    -0.318 A  
BRANCH   4   9
HETATM    9  O   UNL     1     -11.899  12.582  67.626  1.00  0.00    -0.362 OA 
HETATM   10  C   UNL     1     -11.713  13.924  68.076  1.00  0.00    -0.352 C  
ENDBRANCH   4   9
BRANCH   8  11
HETATM   11  C   UNL     1     -12.876   9.540  71.359  1.00  0.00    -0.443 C  
BRANCH  11  12
HETATM   12  C   UNL     1     -12.215   8.599  72.351  1.00  0.00    -0.349 C  
BRANCH  12  13
HETATM   13  O   UNL     1     -12.267   7.256  71.870  1.00  0.00    -0.301 OA 
BRANCH  13  14
HETATM   14  C   UNL     1     -11.208   6.386  72.316  1.00  0.00    -0.276 C  
HETATM   15  C   UNL     1     -10.646   6.862  73.664  1.00  0.00    -0.371 C  
HETATM   16  C   UNL     1      -9.368   6.142  74.069  1.00  0.00    -0.147 C  
HETATM   17  C   UNL     1      -8.341   6.236  72.951  1.00  0.00    -0.118 C  
HETATM   18  C   UNL     1      -8.854   5.497  71.718  1.00  0.00    -0.140 C  
HETATM   19  C   UNL     1     -10.149   6.132  71.189  1.00  0.00    -0.190 C  
BRANCH  19  20
HETATM   20  N   UNL     1     -10.805   5.488  70.026  1.00  0.00    -0.294 NA 
HETATM   21  C   UNL     1      -9.952   4.665  69.165  1.00  0.00    -0.138 C  
HETATM   22  C   UNL     1      -9.465   5.590  68.061  1.00  0.00    -0.129 C  
HETATM   23  C   UNL     1     -10.572   6.628  67.921  1.00  0.00    -0.247 C  
HETATM   24  C   UNL     1     -11.500   6.404  69.120  1.00  0.00    -0.190 C  
HETATM   25  O   UNL     1     -11.258   6.440  66.688  1.00  0.00    -0.707 OA 
HETATM   26  H   UNL     1     -11.949   7.088  66.601  1.00  0.00     0.000 HD 
ENDBRANCH  19  20
ENDBRANCH  13  14
ENDBRANCH  12  13
ENDBRANCH  11  12
ENDBRANCH   8  11
ENDBRANCH   2   3
TORSDOF 7
ENDMDL
MODEL      119
REMARK 921   NORMALIZED FREE ENERGY PREDICTED BY IDOCK:   -4.77 KCAL/MOL
REMARK 922        TOTAL FREE ENERGY PREDICTED BY IDOCK:   -7.64 KCAL/MOL
REMARK 923 INTER-LIGAND FREE ENERGY PREDICTED BY IDOCK:   -7.46 KCAL/MOL
REMARK 924 INTRA-LIGAND FREE ENERGY PREDICTED BY IDOCK:   -0.19 KCAL/MOL
REMARK 927      BINDING AFFINITY PREDICTED BY RF-SCORE:    0.00 PKD
ROOT
HETATM    1  C   UNL     1     -10.984  10.819  67.488  1.00  0.00    -0.312 C  
HETATM    2  O   UNL     1     -12.046  11.673  67.090  1.00  0.00    -0.575 OA 
ENDROOT
BRANCH   2   3
HETATM    3  C   UNL     1     -11.702  12.907  66.605  1.00  0.00    -0.390 A  
HETATM    4  C   UNL     1     -11.337  13.241  65.293  1.00  0.00    -0.295 A  
HETATM    5  C   UNL     1     -10.985  14.565  65.000  1.00  0.00    -0.408 A  
HETATM    6  C   UNL     1     -11.654  13.893  67.602  1.00  0.00    -0.381 A  
HETATM    7  C   UNL     1     -11.261  15.200  67.309  1.00  0.00    -0.324 A  
HETATM    8  C   UNL     1     -10.889  15.526  66.008  1.00  0.00    -0.301 A  
BRANCH   4   9
HETATM    9  O   UNL     1     -11.329  12.277  64.317  1.00  0.00    -0.313 OA 
HETATM   10  C   UNL     1     -12.516  12.214  63.527  1.00  0.00    -0.555 C  
ENDBRANCH   4   9
BRANCH   8  11
HETATM   11  C   UNL     1     -10.375  16.900  65.683  1.00  0.00    -0.254 C  
BRANCH  11  12
HETATM   12  C   UNL     1      -9.041  17.203  66.342  1.00  0.00    -0.256 C  
BRANCH  12  13
HETATM   13  O   UNL     1      -9.246  17.829  67.609  1.00  0.00    -0.246 OA 
BRANCH  13  14
HETATM   14  C   UNL     1      -8.267  18.817  67.988  1.00  0.00    -0.291 C  
HETATM   15  C   UNL     1      -8.249  19.977  66.980  1.00  0.00    -0.364 C  
HETATM   16  C   UNL     1      -7.076  20.925  67.178  1.00  0.00    -0.413 C  
HETATM   17  C   UNL     1      -5.770  20.145  67.183  1.00  0.00    -0.186 C  
HETATM   18  C   UNL     1      -5.740  19.200  68.382  1.00  0.00    -0.217 C  
HETATM   19  C   UNL     1      -6.876  18.169  68.305  1.00  0.00    -0.229 C  
BRANCH  19  20
HETATM   20  N   UNL     1      -7.017  17.216  69.431  1.00  0.00    -0.184 NA 
HETATM   21  C   UNL     1      -5.778  16.777  70.077  1.00  0.00    -0.221 C  
HETATM   22  C   UNL     1      -5.374  15.494  69.368  1.00  0.00    -0.102 C  
HETATM   23  C   UNL     1      -6.691  14.895  68.892  1.00  0.00    -0.100 C  
HETATM   24  C   UNL     1      -7.745  15.985  69.115  1.00  0.00    -0.231 C  
HETATM   25  O   UNL     1      -6.988  13.722  69.642  1.00  0.00    -0.308 OA 
HETATM   26  H   UNL     1      -7.810  13.348  69.345  1.00  0.00     0.000 HD 
ENDBRANCH  19  20
ENDBRANCH  13  14
ENDBRANCH  12  13
ENDBRANCH  11  12
ENDBRANCH   8  11
ENDBRANCH   2   3
TORSDOF 7
ENDMDL
MODEL      120
REMARK 921   NORMALIZED FREE ENERGY PREDICTED BY IDOCK:   -4.76 KCAL/MOL
REMARK 922        TOTAL FREE ENERGY PREDICTED BY IDOCK:   -7.63 KCAL/MOL
REMARK 923 INTER-LIGAND FREE ENERGY PREDICTED BY IDOCK:   -7.11 KCAL/MOL
REMARK 924 INTRA-LIGAND FREE ENERGY PREDICTED BY IDOCK:   -0.52 KCAL/MOL
REMARK 927      BINDING AFFINITY PREDICTED BY RF-SCORE:    0.00 PKD
ROOT
HETATM    1  C   UNL     1     -10.909  17.919  65.988  1.00  0.00     0.042 C  
HETATM    2  O   UNL     1     -10.371  16.868  65.200  1.00  0.00    -0.631 OA 
ENDROOT
BRANCH   2   3
HETATM    3  C   UNL     1     -10.332  15.623  65.769  1.00  0.00    -0.365 A  
HETATM    4  C   UNL     1      -9.562  15.205  66.864  1.00  0.00    -0.239 A  
HETATM    5  C   UNL     1      -9.639  13.869  67.280  1.00  0.00    -0.243 A  
HETATM    6  C   UNL     1     -11.117  14.684  65.084  1.00  0.00    -0.382 A  
HETATM    7  C   UNL     1     -11.153  13.346  65.478  1.00  0.00    -0.296 A  
HETATM    8  C   UNL     1     -10.380  12.930  66.559  1.00  0.00    -0.272 A  
BRANCH   4   9
HETATM    9  O   UNL     1      -8.750  16.099  67.514  1.00  0.00    -0.181 OA 
HETATM   10  C   UNL     1      -7.454  16.259  66.939  1.00  0.00    -0.236 C  
ENDBRANCH   4   9
BRANCH   8  11
HETATM   11  C   UNL     1     -10.330  11.481  66.949  1.00  0.00    -0.258 C  
BRANCH  11  12
HETATM   12  C   UNL     1     -11.340  11.124  68.025  1.00  0.00    -0.312 C  
BRANCH  12  13
HETATM   13  O   UNL     1     -10.897  11.599  69.297  1.00  0.00    -0.220 OA 
BRANCH  13  14
HETATM   14  C   UNL     1     -11.356  10.853  70.442  1.00  0.00    -0.200 C  
HETATM   15  C   UNL     1     -11.469   9.358  70.106  1.00  0.00    -0.175 C  
HETATM   16  C   UNL     1     -12.181   8.553  71.183  1.00  0.00    -0.260 C  
HETATM   17  C   UNL     1     -13.533   9.179  71.493  1.00  0.00    -0.417 C  
HETATM   18  C   UNL     1     -13.332  10.571  72.087  1.00  0.00    -0.347 C  
HETATM   19  C   UNL     1     -12.626  11.503  71.091  1.00  0.00    -0.359 C  
BRANCH  19  20
HETATM   20  N   UNL     1     -12.305  12.877  71.544  1.00  0.00    -0.033 NA 
HETATM   21  C   UNL     1     -13.056  13.380  72.696  1.00  0.00    -0.237 C  
HETATM   22  C   UNL     1     -14.253  14.118  72.119  1.00  0.00    -0.638 C  
HETATM   23  C   UNL     1     -13.772  14.614  70.761  1.00  0.00     0.020 C  
HETATM   24  C   UNL     1     -12.430  13.914  70.518  1.00  0.00    -0.352 C  
HETATM   25  O   UNL     1     -13.624  16.030  70.787  1.00  0.00    -0.519 OA 
HETATM   26  H   UNL     1     -13.324  16.339  69.940  1.00  0.00     0.000 HD 
ENDBRANCH  19  20
ENDBRANCH  13  14
ENDBRANCH  12  13
ENDBRANCH  11  12
ENDBRANCH   8  11
ENDBRANCH   2   3
TORSDOF 7
ENDMDL
MODEL      121
REMARK 921   NORMALIZED FREE ENERGY PREDICTED BY IDOCK:   -4.76 KCAL/MOL
REMARK 922        TOTAL FREE ENERGY PREDICTED BY IDOCK:   -7.62 KCAL/MOL
REMARK 923 INTER-LIGAND FREE ENERGY PREDICTED BY IDOCK:   -6.98 KCAL/MOL
REMARK 924 INTRA-LIGAND FREE ENERGY PREDICTED BY IDOCK:   -0.65 KCAL/MOL
REMARK 927      BINDING AFFINITY PREDICTED BY RF-SCORE:    0.00 PKD
ROOT
HETATM    1  C   UNL     1     -12.106  14.007  66.367  1.00  0.00    -0.455 C  
HETATM    2  O   UNL     1     -11.523  14.307  67.626  1.00  0.00    -0.309 OA 
ENDROOT
BRANCH   2   3
HETATM    3  C   UNL     1     -11.830  13.470  68.667  1.00  0.00    -0.369 A  
HETATM    4  C   UNL     1     -12.266  13.826  69.951  1.00  0.00    -0.321 A  
HETATM    5  C   UNL     1     -12.498  12.817  70.895  1.00  0.00    -0.373 A  
HETATM    6  C   UNL     1     -11.584  12.121  68.374  1.00  0.00    -0.381 A  
HETATM    7  C   UNL     1     -11.777  11.126  69.334  1.00  0.00    -0.402 A  
HETATM    8  C   UNL     1     -12.200  11.482  70.612  1.00  0.00    -0.473 A  
BRANCH   4   9
HETATM    9  O   UNL     1     -12.461  15.146  70.269  1.00  0.00    -0.338 OA 
HETATM   10  C   UNL     1     -13.388  15.377  71.329  1.00  0.00    -0.520 C  
ENDBRANCH   4   9
BRANCH   8  11
HETATM   11  C   UNL     1     -12.329  10.444  71.690  1.00  0.00    -0.402 C  
BRANCH  11  12
HETATM   12  C   UNL     1     -11.283   9.349  71.583  1.00  0.00    -0.361 C  
BRANCH  12  13
HETATM   13  O   UNL     1     -11.812   8.227  70.875  1.00  0.00    -0.284 OA 
BRANCH  13  14
HETATM   14  C   UNL     1     -11.365   6.932  71.324  1.00  0.00    -0.279 C  
HETATM   15  C   UNL     1     -11.501   6.809  72.850  1.00  0.00    -0.111 C  
HETATM   16  C   UNL     1     -10.820   5.572  73.415  1.00  0.00    -0.332 C  
HETATM   17  C   UNL     1      -9.369   5.522  72.959  1.00  0.00    -0.140 C  
HETATM   18  C   UNL     1      -9.311   5.364  71.442  1.00  0.00    -0.179 C  
HETATM   19  C   UNL     1      -9.961   6.562  70.734  1.00  0.00    -0.184 C  
BRANCH  19  20
HETATM   20  N   UNL     1     -10.036   6.528  69.254  1.00  0.00    -0.163 NA 
HETATM   21  C   UNL     1      -9.589   5.294  68.603  1.00  0.00    -0.136 C  
HETATM   22  C   UNL     1      -8.121   5.510  68.275  1.00  0.00    -0.096 C  
HETATM   23  C   UNL     1      -7.993   7.016  68.084  1.00  0.00    -0.119 C  
HETATM   24  C   UNL     1      -9.321   7.607  68.571  1.00  0.00    -0.147 C  
HETATM   25  O   UNL     1      -7.764   7.313  66.710  1.00  0.00    -0.104 OA 
HETATM   26  H   UNL     1      -7.684   8.252  66.592  1.00  0.00     0.000 HD 
ENDBRANCH  19  20
ENDBRANCH  13  14
ENDBRANCH  12  13
ENDBRANCH  11  12
ENDBRANCH   8  11
ENDBRANCH   2   3
TORSDOF 7
ENDMDL
MODEL      122
REMARK 921   NORMALIZED FREE ENERGY PREDICTED BY IDOCK:   -4.73 KCAL/MOL
REMARK 922        TOTAL FREE ENERGY PREDICTED BY IDOCK:   -7.59 KCAL/MOL
REMARK 923 INTER-LIGAND FREE ENERGY PREDICTED BY IDOCK:   -6.62 KCAL/MOL
REMARK 924 INTRA-LIGAND FREE ENERGY PREDICTED BY IDOCK:   -0.98 KCAL/MOL
REMARK 927      BINDING AFFINITY PREDICTED BY RF-SCORE:    0.00 PKD
ROOT
HETATM    1  C   UNL     1     -12.142  13.823  66.926  1.00  0.00    -0.413 C  
HETATM    2  O   UNL     1     -12.057  12.417  66.745  1.00  0.00    -0.578 OA 
ENDROOT
BRANCH   2   3
HETATM    3  C   UNL     1     -11.358  11.711  67.689  1.00  0.00    -0.295 A  
HETATM    4  C   UNL     1     -10.169  10.989  67.513  1.00  0.00    -0.188 A  
HETATM    5  C   UNL     1      -9.623  10.301  68.604  1.00  0.00    -0.169 A  
HETATM    6  C   UNL     1     -12.000  11.683  68.936  1.00  0.00    -0.355 A  
HETATM    7  C   UNL     1     -11.470  10.959  70.006  1.00  0.00    -0.411 A  
HETATM    8  C   UNL     1     -10.296  10.235  69.826  1.00  0.00    -0.287 A  
BRANCH   4   9
HETATM    9  O   UNL     1      -9.557  10.965  66.286  1.00  0.00    -0.188 OA 
HETATM   10  C   UNL     1      -9.959   9.890  65.436  1.00  0.00    -0.279 C  
ENDBRANCH   4   9
BRANCH   8  11
HETATM   11  C   UNL     1      -9.752   9.375  70.931  1.00  0.00    -0.320 C  
BRANCH  11  12
HETATM   12  C   UNL     1     -10.729   8.304  71.381  1.00  0.00    -0.227 C  
BRANCH  12  13
HETATM   13  O   UNL     1     -11.261   7.613  70.250  1.00  0.00    -0.265 OA 
BRANCH  13  14
HETATM   14  C   UNL     1     -10.783   6.267  70.053  1.00  0.00    -0.285 C  
HETATM   15  C   UNL     1     -10.752   5.502  71.385  1.00  0.00    -0.290 C  
HETATM   16  C   UNL     1     -10.028   4.167  71.293  1.00  0.00    -0.216 C  
HETATM   17  C   UNL     1      -8.637   4.368  70.710  1.00  0.00    -0.117 C  
HETATM   18  C   UNL     1      -8.748   4.874  69.275  1.00  0.00    -0.107 C  
HETATM   19  C   UNL     1      -9.457   6.236  69.219  1.00  0.00    -0.134 C  
BRANCH  19  20
HETATM   20  N   UNL     1      -9.695   6.832  67.883  1.00  0.00    -0.127 NA 
HETATM   21  C   UNL     1     -10.942   6.458  67.211  1.00  0.00    -0.392 C  
HETATM   22  C   UNL     1     -10.597   5.261  66.339  1.00  0.00    -0.338 C  
HETATM   23  C   UNL     1      -9.125   5.454  65.997  1.00  0.00    -0.154 C  
HETATM   24  C   UNL     1      -8.638   6.593  66.899  1.00  0.00    -0.115 C  
HETATM   25  O   UNL     1      -8.987   5.784  64.619  1.00  0.00    -0.362 OA 
HETATM   26  H   UNL     1      -8.069   5.904  64.406  1.00  0.00     0.000 HD 
ENDBRANCH  19  20
ENDBRANCH  13  14
ENDBRANCH  12  13
ENDBRANCH  11  12
ENDBRANCH   8  11
ENDBRANCH   2   3
TORSDOF 7
ENDMDL
MODEL      123
REMARK 921   NORMALIZED FREE ENERGY PREDICTED BY IDOCK:   -4.73 KCAL/MOL
REMARK 922        TOTAL FREE ENERGY PREDICTED BY IDOCK:   -7.58 KCAL/MOL
REMARK 923 INTER-LIGAND FREE ENERGY PREDICTED BY IDOCK:   -7.04 KCAL/MOL
REMARK 924 INTRA-LIGAND FREE ENERGY PREDICTED BY IDOCK:   -0.54 KCAL/MOL
REMARK 927      BINDING AFFINITY PREDICTED BY RF-SCORE:    0.00 PKD
ROOT
HETATM    1  C   UNL     1      -9.947   3.264  64.169  1.00  0.00    -0.177 C  
HETATM    2  O   UNL     1      -9.312   3.619  65.388  1.00  0.00    -0.147 OA 
ENDROOT
BRANCH   2   3
HETATM    3  C   UNL     1      -9.035   4.947  65.580  1.00  0.00    -0.146 A  
HETATM    4  C   UNL     1      -9.455   5.765  66.639  1.00  0.00    -0.149 A  
HETATM    5  C   UNL     1      -9.092   7.118  66.639  1.00  0.00    -0.175 A  
HETATM    6  C   UNL     1      -8.310   5.513  64.522  1.00  0.00    -0.127 A  
HETATM    7  C   UNL     1      -7.989   6.871  64.509  1.00  0.00    -0.106 A  
HETATM    8  C   UNL     1      -8.416   7.684  65.556  1.00  0.00    -0.132 A  
BRANCH   4   9
HETATM    9  O   UNL     1     -10.209   5.238  67.656  1.00  0.00    -0.183 OA 
HETATM   10  C   UNL     1     -10.836   6.203  68.500  1.00  0.00    -0.314 C  
ENDBRANCH   4   9
BRANCH   8  11
HETATM   11  C   UNL     1      -8.164   9.165  65.525  1.00  0.00    -0.124 C  
BRANCH  11  12
HETATM   12  C   UNL     1      -9.141   9.911  64.635  1.00  0.00    -0.242 C  
BRANCH  12  13
HETATM   13  O   UNL     1     -10.374  10.126  65.324  1.00  0.00    -0.266 OA 
BRANCH  13  14
HETATM   14  C   UNL     1     -10.332  11.077  66.406  1.00  0.00    -0.250 C  
HETATM   15  C   UNL     1     -10.420  10.361  67.763  1.00  0.00    -0.268 C  
HETATM   16  C   UNL     1     -10.633  11.313  68.930  1.00  0.00    -0.239 C  
HETATM   17  C   UNL     1     -11.840  12.200  68.667  1.00  0.00    -0.358 C  
HETATM   18  C   UNL     1     -11.570  13.090  67.457  1.00  0.00    -0.405 C  
HETATM   19  C   UNL     1     -11.346  12.252  66.189  1.00  0.00    -0.353 C  
BRANCH  19  20
HETATM   20  N   UNL     1     -11.012  12.973  64.938  1.00  0.00    -0.295 NA 
HETATM   21  C   UNL     1      -9.811  13.811  64.965  1.00  0.00    -0.052 C  
HETATM   22  C   UNL     1     -10.287  15.203  65.346  1.00  0.00    -0.415 C  
HETATM   23  C   UNL     1     -11.717  15.269  64.826  1.00  0.00    -0.276 C  
HETATM   24  C   UNL     1     -12.074  13.836  64.416  1.00  0.00    -0.436 C  
HETATM   25  O   UNL     1     -11.789  16.161  63.718  1.00  0.00    -1.408 OA 
HETATM   26  H   UNL     1     -12.681  16.202  63.394  1.00  0.00     0.000 HD 
ENDBRANCH  19  20
ENDBRANCH  13  14
ENDBRANCH  12  13
ENDBRANCH  11  12
ENDBRANCH   8  11
ENDBRANCH   2   3
TORSDOF 7
ENDMDL
MODEL      124
REMARK 921   NORMALIZED FREE ENERGY PREDICTED BY IDOCK:   -4.71 KCAL/MOL
REMARK 922        TOTAL FREE ENERGY PREDICTED BY IDOCK:   -7.55 KCAL/MOL
REMARK 923 INTER-LIGAND FREE ENERGY PREDICTED BY IDOCK:   -6.67 KCAL/MOL
REMARK 924 INTRA-LIGAND FREE ENERGY PREDICTED BY IDOCK:   -0.89 KCAL/MOL
REMARK 927      BINDING AFFINITY PREDICTED BY RF-SCORE:    0.00 PKD
ROOT
HETATM    1  C   UNL     1     -12.212  13.895  65.248  1.00  0.00    -0.433 C  
HETATM    2  O   UNL     1     -11.426  14.194  66.392  1.00  0.00    -0.331 OA 
ENDROOT
BRANCH   2   3
HETATM    3  C   UNL     1     -11.672  13.461  67.524  1.00  0.00    -0.366 A  
HETATM    4  C   UNL     1     -11.888  13.940  68.824  1.00  0.00    -0.361 A  
HETATM    5  C   UNL     1     -12.093  13.021  69.862  1.00  0.00    -0.347 A  
HETATM    6  C   UNL     1     -11.611  12.078  67.302  1.00  0.00    -0.383 A  
HETATM    7  C   UNL     1     -11.773  11.170  68.350  1.00  0.00    -0.349 A  
HETATM    8  C   UNL     1     -11.977  11.647  69.642  1.00  0.00    -0.390 A  
BRANCH   4   9
HETATM    9  O   UNL     1     -11.899  15.290  69.066  1.00  0.00    -0.325 OA 
HETATM   10  C   UNL     1     -10.871  15.750  69.941  1.00  0.00    -0.327 C  
ENDBRANCH   4   9
BRANCH   8  11
HETATM   11  C   UNL     1     -12.064  10.696  70.802  1.00  0.00    -0.474 C  
BRANCH  11  12
HETATM   12  C   UNL     1     -11.359   9.378  70.539  1.00  0.00    -0.274 C  
BRANCH  12  13
HETATM   13  O   UNL     1     -10.011   9.435  71.008  1.00  0.00    -0.285 OA 
BRANCH  13  14
HETATM   14  C   UNL     1      -9.074   8.567  70.340  1.00  0.00    -0.152 C  
HETATM   15  C   UNL     1      -9.014   8.888  68.838  1.00  0.00    -0.137 C  
HETATM   16  C   UNL     1      -8.239   7.854  68.035  1.00  0.00    -0.127 C  
HETATM   17  C   UNL     1      -8.791   6.462  68.307  1.00  0.00    -0.115 C  
HETATM   18  C   UNL     1      -8.566   6.096  69.771  1.00  0.00    -0.132 C  
HETATM   19  C   UNL     1      -9.310   7.062  70.706  1.00  0.00    -0.161 C  
BRANCH  19  20
HETATM   20  N   UNL     1      -9.141   6.873  72.166  1.00  0.00    -0.133 NA 
HETATM   21  C   UNL     1      -8.307   5.745  72.589  1.00  0.00    -0.116 C  
HETATM   22  C   UNL     1      -9.262   4.582  72.801  1.00  0.00    -0.145 C  
HETATM   23  C   UNL     1     -10.579   5.240  73.190  1.00  0.00    -0.234 C  
HETATM   24  C   UNL     1     -10.387   6.737  72.923  1.00  0.00    -0.221 C  
HETATM   25  O   UNL     1     -10.860   4.988  74.563  1.00  0.00    -0.349 OA 
HETATM   26  H   UNL     1     -11.682   5.399  74.805  1.00  0.00     0.000 HD 
ENDBRANCH  19  20
ENDBRANCH  13  14
ENDBRANCH  12  13
ENDBRANCH  11  12
ENDBRANCH   8  11
ENDBRANCH   2   3
TORSDOF 7
ENDMDL
MODEL      125
REMARK 921   NORMALIZED FREE ENERGY PREDICTED BY IDOCK:   -4.69 KCAL/MOL
REMARK 922        TOTAL FREE ENERGY PREDICTED BY IDOCK:   -7.53 KCAL/MOL
REMARK 923 INTER-LIGAND FREE ENERGY PREDICTED BY IDOCK:   -7.09 KCAL/MOL
REMARK 924 INTRA-LIGAND FREE ENERGY PREDICTED BY IDOCK:   -0.44 KCAL/MOL
REMARK 927      BINDING AFFINITY PREDICTED BY RF-SCORE:    0.00 PKD
ROOT
HETATM    1  C   UNL     1     -10.142   4.893  73.494  1.00  0.00    -0.164 C  
HETATM    2  O   UNL     1     -11.145   5.172  72.528  1.00  0.00    -0.236 OA 
ENDROOT
BRANCH   2   3
HETATM    3  C   UNL     1     -11.028   6.347  71.834  1.00  0.00    -0.253 A  
HETATM    4  C   UNL     1     -10.180   6.622  70.752  1.00  0.00    -0.196 A  
HETATM    5  C   UNL     1     -10.183   7.906  70.193  1.00  0.00    -0.202 A  
HETATM    6  C   UNL     1     -11.818   7.377  72.365  1.00  0.00    -0.273 A  
HETATM    7  C   UNL     1     -11.783   8.665  71.829  1.00  0.00    -0.400 A  
HETATM    8  C   UNL     1     -10.933   8.938  70.762  1.00  0.00    -0.305 A  
BRANCH   4   9
HETATM    9  O   UNL     1      -9.363   5.639  70.253  1.00  0.00    -0.147 OA 
HETATM   10  C   UNL     1      -9.955   4.820  69.246  1.00  0.00    -0.184 C  
ENDBRANCH   4   9
BRANCH   8  11
HETATM   11  C   UNL     1     -10.808  10.336  70.224  1.00  0.00    -0.349 C  
BRANCH  11  12
HETATM   12  C   UNL     1      -9.693  10.477  69.203  1.00  0.00    -0.211 C  
BRANCH  12  13
HETATM   13  O   UNL     1     -10.216  10.955  67.963  1.00  0.00    -0.170 OA 
BRANCH  13  14
HETATM   14  C   UNL     1      -9.600  12.149  67.439  1.00  0.00    -0.177 C  
HETATM   15  C   UNL     1      -8.416  12.579  68.318  1.00  0.00    -0.165 C  
HETATM   16  C   UNL     1      -7.881  13.960  67.969  1.00  0.00    -0.154 C  
HETATM   17  C   UNL     1      -9.011  14.977  67.985  1.00  0.00    -0.173 C  
HETATM   18  C   UNL     1     -10.022  14.641  66.892  1.00  0.00    -0.254 C  
HETATM   19  C   UNL     1     -10.658  13.263  67.128  1.00  0.00    -0.258 C  
BRANCH  19  20
HETATM   20  N   UNL     1     -11.619  12.767  66.115  1.00  0.00    -0.358 NA 
HETATM   21  C   UNL     1     -11.101  11.817  65.128  1.00  0.00    -0.282 C  
HETATM   22  C   UNL     1     -10.663  12.656  63.938  1.00  0.00    -0.465 C  
HETATM   23  C   UNL     1     -11.571  13.879  63.984  1.00  0.00    -0.226 C  
HETATM   24  C   UNL     1     -12.291  13.808  65.335  1.00  0.00    -0.475 C  
HETATM   25  O   UNL     1     -12.493  13.838  62.899  1.00  0.00    -1.009 OA 
HETATM   26  H   UNL     1     -13.059  14.601  62.928  1.00  0.00     0.000 HD 
ENDBRANCH  19  20
ENDBRANCH  13  14
ENDBRANCH  12  13
ENDBRANCH  11  12
ENDBRANCH   8  11
ENDBRANCH   2   3
TORSDOF 7
ENDMDL
MODEL      126
REMARK 921   NORMALIZED FREE ENERGY PREDICTED BY IDOCK:   -4.67 KCAL/MOL
REMARK 922        TOTAL FREE ENERGY PREDICTED BY IDOCK:   -7.50 KCAL/MOL
REMARK 923 INTER-LIGAND FREE ENERGY PREDICTED BY IDOCK:   -6.99 KCAL/MOL
REMARK 924 INTRA-LIGAND FREE ENERGY PREDICTED BY IDOCK:   -0.51 KCAL/MOL
REMARK 927      BINDING AFFINITY PREDICTED BY RF-SCORE:    0.00 PKD
ROOT
HETATM    1  C   UNL     1      -9.994  18.477  66.743  1.00  0.00    -0.360 C  
HETATM    2  O   UNL     1      -9.969  17.730  67.950  1.00  0.00    -0.294 OA 
ENDROOT
BRANCH   2   3
HETATM    3  C   UNL     1      -9.821  16.372  67.837  1.00  0.00    -0.238 A  
HETATM    4  C   UNL     1     -10.595  15.372  68.443  1.00  0.00    -0.247 A  
HETATM    5  C   UNL     1     -10.260  14.029  68.228  1.00  0.00    -0.249 A  
HETATM    6  C   UNL     1      -8.701  16.007  67.076  1.00  0.00    -0.236 A  
HETATM    7  C   UNL     1      -8.350  14.667  66.902  1.00  0.00    -0.159 A  
HETATM    8  C   UNL     1      -9.113  13.676  67.514  1.00  0.00    -0.213 A  
BRANCH   4   9
HETATM    9  O   UNL     1     -11.663  15.715  69.232  1.00  0.00    -0.336 OA 
HETATM   10  C   UNL     1     -11.685  15.090  70.516  1.00  0.00    -0.297 C  
ENDBRANCH   4   9
BRANCH   8  11
HETATM   11  C   UNL     1      -8.708  12.233  67.419  1.00  0.00    -0.180 C  
BRANCH  11  12
HETATM   12  C   UNL     1      -9.777  11.284  67.931  1.00  0.00    -0.177 C  
BRANCH  12  13
HETATM   13  O   UNL     1      -9.421  10.789  69.223  1.00  0.00    -0.176 OA 
BRANCH  13  14
HETATM   14  C   UNL     1      -9.367   9.354  69.353  1.00  0.00    -0.169 C  
HETATM   15  C   UNL     1      -8.798   8.714  68.077  1.00  0.00    -0.141 C  
HETATM   16  C   UNL     1      -8.946   7.201  68.049  1.00  0.00    -0.127 C  
HETATM   17  C   UNL     1     -10.396   6.813  68.291  1.00  0.00    -0.215 C  
HETATM   18  C   UNL     1     -10.815   7.239  69.696  1.00  0.00    -0.238 C  
HETATM   19  C   UNL     1     -10.726   8.763  69.864  1.00  0.00    -0.223 C  
BRANCH  19  20
HETATM   20  N   UNL     1     -11.044   9.328  71.197  1.00  0.00    -0.310 NA 
HETATM   21  C   UNL     1     -10.692   8.507  72.358  1.00  0.00    -0.306 C  
HETATM   22  C   UNL     1     -11.935   7.694  72.681  1.00  0.00    -0.208 C  
HETATM   23  C   UNL     1     -13.090   8.564  72.202  1.00  0.00    -0.358 C  
HETATM   24  C   UNL     1     -12.447   9.697  71.396  1.00  0.00    -0.373 C  
HETATM   25  O   UNL     1     -13.814   9.066  73.321  1.00  0.00    -1.159 OA 
HETATM   26  H   UNL     1     -14.535   9.608  73.022  1.00  0.00     0.000 HD 
ENDBRANCH  19  20
ENDBRANCH  13  14
ENDBRANCH  12  13
ENDBRANCH  11  12
ENDBRANCH   8  11
ENDBRANCH   2   3
TORSDOF 7
ENDMDL
MODEL      127
REMARK 921   NORMALIZED FREE ENERGY PREDICTED BY IDOCK:   -4.66 KCAL/MOL
REMARK 922        TOTAL FREE ENERGY PREDICTED BY IDOCK:   -7.49 KCAL/MOL
REMARK 923 INTER-LIGAND FREE ENERGY PREDICTED BY IDOCK:   -6.61 KCAL/MOL
REMARK 924 INTRA-LIGAND FREE ENERGY PREDICTED BY IDOCK:   -0.87 KCAL/MOL
REMARK 927      BINDING AFFINITY PREDICTED BY RF-SCORE:    0.00 PKD
ROOT
HETATM    1  C   UNL     1     -11.856  15.288  69.361  1.00  0.00    -0.343 C  
HETATM    2  O   UNL     1     -11.836  15.208  67.943  1.00  0.00    -0.320 OA 
ENDROOT
BRANCH   2   3
HETATM    3  C   UNL     1     -11.365  14.045  67.393  1.00  0.00    -0.329 A  
HETATM    4  C   UNL     1     -11.814  13.405  66.229  1.00  0.00    -0.394 A  
HETATM    5  C   UNL     1     -11.220  12.195  65.846  1.00  0.00    -0.384 A  
HETATM    6  C   UNL     1     -10.373  13.434  68.174  1.00  0.00    -0.249 A  
HETATM    7  C   UNL     1      -9.817  12.208  67.807  1.00  0.00    -0.199 A  
HETATM    8  C   UNL     1     -10.271  11.568  66.657  1.00  0.00    -0.254 A  
BRANCH   4   9
HETATM    9  O   UNL     1     -12.819  13.963  65.483  1.00  0.00    -0.609 OA 
HETATM   10  C   UNL     1     -12.381  14.694  64.337  1.00  0.00    -0.398 C  
ENDBRANCH   4   9
BRANCH   8  11
HETATM   11  C   UNL     1      -9.756  10.206  66.287  1.00  0.00    -0.274 C  
BRANCH  11  12
HETATM   12  C   UNL     1     -10.516   9.083  66.968  1.00  0.00    -0.246 C  
BRANCH  12  13
HETATM   13  O   UNL     1      -9.824   8.657  68.142  1.00  0.00    -0.155 OA 
BRANCH  13  14
HETATM   14  C   UNL     1     -10.647   8.383  69.293  1.00  0.00    -0.182 C  
HETATM   15  C   UNL     1     -11.165   9.690  69.914  1.00  0.00    -0.244 C  
HETATM   16  C   UNL     1     -11.829   9.488  71.268  1.00  0.00    -0.450 C  
HETATM   17  C   UNL     1     -10.892   8.738  72.202  1.00  0.00    -0.400 C  
HETATM   18  C   UNL     1     -10.637   7.335  71.657  1.00  0.00    -0.228 C  
HETATM   19  C   UNL     1      -9.952   7.388  70.284  1.00  0.00    -0.188 C  
BRANCH  19  20
HETATM   20  N   UNL     1      -9.692   6.101  69.596  1.00  0.00    -0.150 NA 
HETATM   21  C   UNL     1     -10.221   4.895  70.237  1.00  0.00    -0.229 C  
HETATM   22  C   UNL     1      -9.097   4.367  71.115  1.00  0.00    -0.180 C  
HETATM   23  C   UNL     1      -7.824   4.827  70.415  1.00  0.00    -0.061 C  
HETATM   24  C   UNL     1      -8.280   5.811  69.333  1.00  0.00    -0.108 C  
HETATM   25  O   UNL     1      -7.150   3.707  69.850  1.00  0.00    -0.041 OA 
HETATM   26  H   UNL     1      -6.356   3.994  69.414  1.00  0.00     0.000 HD 
ENDBRANCH  19  20
ENDBRANCH  13  14
ENDBRANCH  12  13
ENDBRANCH  11  12
ENDBRANCH   8  11
ENDBRANCH   2   3
TORSDOF 7
ENDMDL
MODEL      128
REMARK 921   NORMALIZED FREE ENERGY PREDICTED BY IDOCK:   -4.65 KCAL/MOL
REMARK 922        TOTAL FREE ENERGY PREDICTED BY IDOCK:   -7.48 KCAL/MOL
REMARK 923 INTER-LIGAND FREE ENERGY PREDICTED BY IDOCK:   -6.86 KCAL/MOL
REMARK 924 INTRA-LIGAND FREE ENERGY PREDICTED BY IDOCK:   -0.62 KCAL/MOL
REMARK 927      BINDING AFFINITY PREDICTED BY RF-SCORE:    0.00 PKD
ROOT
HETATM    1  C   UNL     1      -9.947   4.351  65.439  1.00  0.00    -0.218 C  
HETATM    2  O   UNL     1     -10.517   4.786  66.664  1.00  0.00    -0.248 OA 
ENDROOT
BRANCH   2   3
HETATM    3  C   UNL     1     -10.246   6.071  67.053  1.00  0.00    -0.205 A  
HETATM    4  C   UNL     1     -10.733   6.745  68.182  1.00  0.00    -0.236 A  
HETATM    5  C   UNL     1     -10.362   8.080  68.391  1.00  0.00    -0.236 A  
HETATM    6  C   UNL     1      -9.445   6.763  66.134  1.00  0.00    -0.057 A  
HETATM    7  C   UNL     1      -9.115   8.106  66.327  1.00  0.00    -0.231 A  
HETATM    8  C   UNL     1      -9.609   8.776  67.443  1.00  0.00    -0.206 A  
BRANCH   4   9
HETATM    9  O   UNL     1     -11.560   6.098  69.064  1.00  0.00    -0.236 OA 
HETATM   10  C   UNL     1     -11.495   6.575  70.408  1.00  0.00    -0.404 C  
ENDBRANCH   4   9
BRANCH   8  11
HETATM   11  C   UNL     1      -9.345  10.243  67.630  1.00  0.00    -0.158 C  
BRANCH  11  12
HETATM   12  C   UNL     1      -8.640  10.873  66.443  1.00  0.00    -0.160 C  
BRANCH  12  13
HETATM   13  O   UNL     1      -9.030  12.239  66.303  1.00  0.00    -0.174 OA 
BRANCH  13  14
HETATM   14  C   UNL     1     -10.448  12.483  66.218  1.00  0.00    -0.246 C  
HETATM   15  C   UNL     1     -10.988  12.072  64.839  1.00  0.00    -0.356 C  
HETATM   16  C   UNL     1     -12.417  12.531  64.595  1.00  0.00    -0.539 C  
HETATM   17  C   UNL     1     -12.534  14.029  64.837  1.00  0.00    -0.419 C  
HETATM   18  C   UNL     1     -12.250  14.336  66.305  1.00  0.00    -0.433 C  
HETATM   19  C   UNL     1     -10.820  13.930  66.692  1.00  0.00    -0.289 C  
BRANCH  19  20
HETATM   20  N   UNL     1     -10.413  14.111  68.105  1.00  0.00    -0.239 NA 
HETATM   21  C   UNL     1     -11.303  13.546  69.122  1.00  0.00    -0.282 C  
HETATM   22  C   UNL     1     -12.251  14.669  69.511  1.00  0.00    -0.297 C  
HETATM   23  C   UNL     1     -11.447  15.941  69.273  1.00  0.00    -0.374 C  
HETATM   24  C   UNL     1     -10.191  15.499  68.514  1.00  0.00    -0.215 C  
HETATM   25  O   UNL     1     -11.117  16.546  70.519  1.00  0.00    -0.402 OA 
HETATM   26  H   UNL     1     -10.616  17.340  70.370  1.00  0.00     0.000 HD 
ENDBRANCH  19  20
ENDBRANCH  13  14
ENDBRANCH  12  13
ENDBRANCH  11  12
ENDBRANCH   8  11
ENDBRANCH   2   3
TORSDOF 7
ENDMDL
MODEL      129
REMARK 921   NORMALIZED FREE ENERGY PREDICTED BY IDOCK:   -4.64 KCAL/MOL
REMARK 922        TOTAL FREE ENERGY PREDICTED BY IDOCK:   -7.46 KCAL/MOL
REMARK 923 INTER-LIGAND FREE ENERGY PREDICTED BY IDOCK:   -6.83 KCAL/MOL
REMARK 924 INTRA-LIGAND FREE ENERGY PREDICTED BY IDOCK:   -0.63 KCAL/MOL
REMARK 927      BINDING AFFINITY PREDICTED BY RF-SCORE:    0.00 PKD
ROOT
HETATM    1  C   UNL     1     -13.319  16.050  73.267  1.00  0.00    -0.532 C  
HETATM    2  O   UNL     1     -13.628  15.650  71.940  1.00  0.00    -0.471 OA 
ENDROOT
BRANCH   2   3
HETATM    3  C   UNL     1     -13.147  14.434  71.530  1.00  0.00    -0.340 A  
HETATM    4  C   UNL     1     -12.341  14.163  70.415  1.00  0.00    -0.359 A  
HETATM    5  C   UNL     1     -11.978  12.838  70.144  1.00  0.00    -0.371 A  
HETATM    6  C   UNL     1     -13.614  13.369  72.314  1.00  0.00    -0.703 A  
HETATM    7  C   UNL     1     -13.281  12.048  72.012  1.00  0.00    -0.481 A  
HETATM    8  C   UNL     1     -12.491  11.780  70.898  1.00  0.00    -0.416 A  
BRANCH   4   9
HETATM    9  O   UNL     1     -11.919  15.189  69.608  1.00  0.00    -0.307 OA 
HETATM   10  C   UNL     1     -10.532  15.507  69.719  1.00  0.00    -0.301 C  
ENDBRANCH   4   9
BRANCH   8  11
HETATM   11  C   UNL     1     -12.192  10.363  70.496  1.00  0.00    -0.412 C  
BRANCH  11  12
HETATM   12  C   UNL     1     -11.278  10.273  69.288  1.00  0.00    -0.228 C  
BRANCH  12  13
HETATM   13  O   UNL     1      -9.917  10.149  69.705  1.00  0.00    -0.223 OA 
BRANCH  13  14
HETATM   14  C   UNL     1      -9.388   8.808  69.733  1.00  0.00    -0.163 C  
HETATM   15  C   UNL     1      -9.040   8.393  71.171  1.00  0.00    -0.217 C  
HETATM   16  C   UNL     1      -8.250   7.095  71.245  1.00  0.00    -0.108 C  
HETATM   17  C   UNL     1      -7.019   7.181  70.355  1.00  0.00    -0.058 C  
HETATM   18  C   UNL     1      -7.448   7.318  68.896  1.00  0.00    -0.101 C  
HETATM   19  C   UNL     1      -8.253   8.606  68.672  1.00  0.00    -0.121 C  
BRANCH  19  20
HETATM   20  N   UNL     1      -8.793   8.852  67.314  1.00  0.00    -0.127 NA 
HETATM   21  C   UNL     1      -8.398   7.903  66.270  1.00  0.00    -0.126 C  
HETATM   22  C   UNL     1      -7.162   8.499  65.616  1.00  0.00    -0.079 C  
HETATM   23  C   UNL     1      -7.330  10.003  65.792  1.00  0.00    -0.117 C  
HETATM   24  C   UNL     1      -8.504  10.177  66.761  1.00  0.00    -0.126 C  
HETATM   25  O   UNL     1      -7.599  10.611  64.533  1.00  0.00    -0.345 OA 
HETATM   26  H   UNL     1      -7.704  11.549  64.643  1.00  0.00     0.000 HD 
ENDBRANCH  19  20
ENDBRANCH  13  14
ENDBRANCH  12  13
ENDBRANCH  11  12
ENDBRANCH   8  11
ENDBRANCH   2   3
TORSDOF 7
ENDMDL
MODEL      130
REMARK 921   NORMALIZED FREE ENERGY PREDICTED BY IDOCK:   -4.64 KCAL/MOL
REMARK 922        TOTAL FREE ENERGY PREDICTED BY IDOCK:   -7.46 KCAL/MOL
REMARK 923 INTER-LIGAND FREE ENERGY PREDICTED BY IDOCK:   -6.29 KCAL/MOL
REMARK 924 INTRA-LIGAND FREE ENERGY PREDICTED BY IDOCK:   -1.17 KCAL/MOL
REMARK 927      BINDING AFFINITY PREDICTED BY RF-SCORE:    0.00 PKD
ROOT
HETATM    1  C   UNL     1     -13.132  13.681  65.221  1.00  0.00    -0.104 C  
HETATM    2  O   UNL     1     -12.558  12.435  65.585  1.00  0.00    -0.575 OA 
ENDROOT
BRANCH   2   3
HETATM    3  C   UNL     1     -11.393  12.475  66.306  1.00  0.00    -0.338 A  
HETATM    4  C   UNL     1     -11.127  11.864  67.539  1.00  0.00    -0.273 A  
HETATM    5  C   UNL     1      -9.874  12.052  68.136  1.00  0.00    -0.201 A  
HETATM    6  C   UNL     1     -10.420  13.303  65.726  1.00  0.00    -0.289 A  
HETATM    7  C   UNL     1      -9.190  13.519  66.349  1.00  0.00    -0.136 A  
HETATM    8  C   UNL     1      -8.932  12.920  67.579  1.00  0.00    -0.193 A  
BRANCH   4   9
HETATM    9  O   UNL     1     -12.087  11.093  68.144  1.00  0.00    -0.633 OA 
HETATM   10  C   UNL     1     -12.149  11.218  69.565  1.00  0.00    -0.317 C  
ENDBRANCH   4   9
BRANCH   8  11
HETATM   11  C   UNL     1      -7.654  13.206  68.315  1.00  0.00    -0.139 C  
BRANCH  11  12
HETATM   12  C   UNL     1      -6.975  14.480  67.844  1.00  0.00    -0.162 C  
BRANCH  12  13
HETATM   13  O   UNL     1      -7.455  15.601  68.588  1.00  0.00    -0.119 OA 
BRANCH  13  14
HETATM   14  C   UNL     1      -8.383  16.462  67.899  1.00  0.00    -0.171 C  
HETATM   15  C   UNL     1      -7.659  17.687  67.319  1.00  0.00    -0.217 C  
HETATM   16  C   UNL     1      -8.610  18.755  66.800  1.00  0.00    -0.296 C  
HETATM   17  C   UNL     1      -9.609  19.134  67.882  1.00  0.00    -0.390 C  
HETATM   18  C   UNL     1     -10.488  17.932  68.216  1.00  0.00    -0.362 C  
HETATM   19  C   UNL     1      -9.650  16.769  68.769  1.00  0.00    -0.260 C  
BRANCH  19  20
HETATM   20  N   UNL     1     -10.355  15.504  69.086  1.00  0.00    -0.223 NA 
HETATM   21  C   UNL     1     -11.809  15.503  68.916  1.00  0.00    -0.338 C  
HETATM   22  C   UNL     1     -12.384  15.872  70.275  1.00  0.00    -0.224 C  
HETATM   23  C   UNL     1     -11.347  15.370  71.272  1.00  0.00    -0.387 C  
HETATM   24  C   UNL     1     -10.122  14.985  70.435  1.00  0.00     0.284 C  
HETATM   25  O   UNL     1     -11.864  14.251  71.985  1.00  0.00    -0.223 OA 
HETATM   26  H   UNL     1     -11.217  13.938  72.607  1.00  0.00     0.000 HD 
ENDBRANCH  19  20
ENDBRANCH  13  14
ENDBRANCH  12  13
ENDBRANCH  11  12
ENDBRANCH   8  11
ENDBRANCH   2   3
TORSDOF 7
ENDMDL
MODEL      131
REMARK 921   NORMALIZED FREE ENERGY PREDICTED BY IDOCK:   -4.63 KCAL/MOL
REMARK 922        TOTAL FREE ENERGY PREDICTED BY IDOCK:   -7.45 KCAL/MOL
REMARK 923 INTER-LIGAND FREE ENERGY PREDICTED BY IDOCK:   -6.42 KCAL/MOL
REMARK 924 INTRA-LIGAND FREE ENERGY PREDICTED BY IDOCK:   -1.03 KCAL/MOL
REMARK 927      BINDING AFFINITY PREDICTED BY RF-SCORE:    0.00 PKD
ROOT
HETATM    1  C   UNL     1     -11.798  13.917  65.494  1.00  0.00    -0.362 C  
HETATM    2  O   UNL     1     -11.913  14.345  66.843  1.00  0.00    -0.410 OA 
ENDROOT
BRANCH   2   3
HETATM    3  C   UNL     1     -11.863  13.373  67.808  1.00  0.00    -0.358 A  
HETATM    4  C   UNL     1     -11.981  13.537  69.196  1.00  0.00    -0.333 A  
HETATM    5  C   UNL     1     -11.868  12.414  70.026  1.00  0.00    -0.363 A  
HETATM    6  C   UNL     1     -11.580  12.101  67.289  1.00  0.00    -0.404 A  
HETATM    7  C   UNL     1     -11.426  10.996  68.127  1.00  0.00    -0.374 A  
HETATM    8  C   UNL     1     -11.534  11.162  69.505  1.00  0.00    -0.374 A  
BRANCH   4   9
HETATM    9  O   UNL     1     -12.207  14.783  69.723  1.00  0.00    -0.311 OA 
HETATM   10  C   UNL     1     -11.315  15.161  70.772  1.00  0.00    -0.304 C  
ENDBRANCH   4   9
BRANCH   8  11
HETATM   11  C   UNL     1     -11.284  10.010  70.435  1.00  0.00    -0.393 C  
BRANCH  11  12
HETATM   12  C   UNL     1      -9.807   9.711  70.621  1.00  0.00    -0.200 C  
BRANCH  12  13
HETATM   13  O   UNL     1      -9.479   8.451  70.033  1.00  0.00    -0.162 OA 
BRANCH  13  14
HETATM   14  C   UNL     1      -8.836   8.507  68.744  1.00  0.00    -0.139 C  
HETATM   15  C   UNL     1      -8.182   9.881  68.524  1.00  0.00    -0.106 C  
HETATM   16  C   UNL     1      -7.705  10.094  67.095  1.00  0.00    -0.092 C  
HETATM   17  C   UNL     1      -8.843   9.834  66.120  1.00  0.00    -0.162 C  
HETATM   18  C   UNL     1      -9.261   8.368  66.197  1.00  0.00    -0.263 C  
HETATM   19  C   UNL     1      -9.782   8.012  67.597  1.00  0.00    -0.158 C  
BRANCH  19  20
HETATM   20  N   UNL     1     -10.172   6.604  67.848  1.00  0.00    -0.157 NA 
HETATM   21  C   UNL     1      -9.086   5.663  68.131  1.00  0.00    -0.110 C  
HETATM   22  C   UNL     1      -8.704   5.057  66.790  1.00  0.00    -0.108 C  
HETATM   23  C   UNL     1      -9.989   5.111  65.972  1.00  0.00    -0.163 C  
HETATM   24  C   UNL     1     -10.958   5.978  66.782  1.00  0.00    -0.225 C  
HETATM   25  O   UNL     1     -10.499   3.795  65.785  1.00  0.00    -0.392 OA 
HETATM   26  H   UNL     1     -11.300   3.828  65.275  1.00  0.00     0.000 HD 
ENDBRANCH  19  20
ENDBRANCH  13  14
ENDBRANCH  12  13
ENDBRANCH  11  12
ENDBRANCH   8  11
ENDBRANCH   2   3
TORSDOF 7
ENDMDL
MODEL      132
REMARK 921   NORMALIZED FREE ENERGY PREDICTED BY IDOCK:   -4.61 KCAL/MOL
REMARK 922        TOTAL FREE ENERGY PREDICTED BY IDOCK:   -7.42 KCAL/MOL
REMARK 923 INTER-LIGAND FREE ENERGY PREDICTED BY IDOCK:   -6.38 KCAL/MOL
REMARK 924 INTRA-LIGAND FREE ENERGY PREDICTED BY IDOCK:   -1.04 KCAL/MOL
REMARK 927      BINDING AFFINITY PREDICTED BY RF-SCORE:    0.00 PKD
ROOT
HETATM    1  C   UNL     1      -6.821  13.436  67.799  1.00  0.00    -0.160 C  
HETATM    2  O   UNL     1      -8.102  14.002  67.564  1.00  0.00    -0.161 OA 
ENDROOT
BRANCH   2   3
HETATM    3  C   UNL     1      -9.182  13.320  68.061  1.00  0.00    -0.217 A  
HETATM    4  C   UNL     1     -10.399  13.853  68.510  1.00  0.00    -0.244 A  
HETATM    5  C   UNL     1     -11.376  12.986  69.017  1.00  0.00    -0.340 A  
HETATM    6  C   UNL     1      -8.950  11.942  68.180  1.00  0.00    -0.185 A  
HETATM    7  C   UNL     1      -9.913  11.091  68.726  1.00  0.00    -0.215 A  
HETATM    8  C   UNL     1     -11.116  11.624  69.181  1.00  0.00    -0.302 A  
BRANCH   4   9
HETATM    9  O   UNL     1     -10.620  15.205  68.448  1.00  0.00    -0.230 OA 
HETATM   10  C   UNL     1     -11.689  15.676  69.268  1.00  0.00    -0.375 C  
ENDBRANCH   4   9
BRANCH   8  11
HETATM   11  C   UNL     1     -12.133  10.747  69.855  1.00  0.00    -0.410 C  
BRANCH  11  12
HETATM   12  C   UNL     1     -11.526   9.852  70.921  1.00  0.00    -0.376 C  
BRANCH  12  13
HETATM   13  O   UNL     1     -11.434   8.508  70.445  1.00  0.00    -0.233 OA 
BRANCH  13  14
HETATM   14  C   UNL     1     -10.170   7.850  70.661  1.00  0.00    -0.196 C  
HETATM   15  C   UNL     1      -9.198   8.773  71.414  1.00  0.00    -0.325 C  
HETATM   16  C   UNL     1      -7.774   8.239  71.454  1.00  0.00    -0.108 C  
HETATM   17  C   UNL     1      -7.295   7.924  70.045  1.00  0.00    -0.070 C  
HETATM   18  C   UNL     1      -8.139   6.796  69.455  1.00  0.00    -0.126 C  
HETATM   19  C   UNL     1      -9.615   7.206  69.344  1.00  0.00    -0.153 C  
BRANCH  19  20
HETATM   20  N   UNL     1     -10.574   6.193  68.844  1.00  0.00    -0.243 NA 
HETATM   21  C   UNL     1     -10.102   4.807  68.803  1.00  0.00    -0.058 C  
HETATM   22  C   UNL     1      -9.540   4.603  67.405  1.00  0.00    -0.198 C  
HETATM   23  C   UNL     1     -10.335   5.568  66.534  1.00  0.00    -0.256 C  
HETATM   24  C   UNL     1     -11.115   6.457  67.509  1.00  0.00    -0.306 C  
HETATM   25  O   UNL     1     -11.209   4.840  65.679  1.00  0.00    -0.888 OA 
HETATM   26  H   UNL     1     -11.705   5.442  65.135  1.00  0.00     0.000 HD 
ENDBRANCH  19  20
ENDBRANCH  13  14
ENDBRANCH  12  13
ENDBRANCH  11  12
ENDBRANCH   8  11
ENDBRANCH   2   3
TORSDOF 7
ENDMDL
MODEL      133
REMARK 921   NORMALIZED FREE ENERGY PREDICTED BY IDOCK:   -4.60 KCAL/MOL
REMARK 922        TOTAL FREE ENERGY PREDICTED BY IDOCK:   -7.40 KCAL/MOL
REMARK 923 INTER-LIGAND FREE ENERGY PREDICTED BY IDOCK:   -6.30 KCAL/MOL
REMARK 924 INTRA-LIGAND FREE ENERGY PREDICTED BY IDOCK:   -1.10 KCAL/MOL
REMARK 927      BINDING AFFINITY PREDICTED BY RF-SCORE:    0.00 PKD
ROOT
HETATM    1  C   UNL     1      -9.035   6.087  73.478  1.00  0.00    -0.124 C  
HETATM    2  O   UNL     1     -10.357   6.166  72.966  1.00  0.00    -0.187 OA 
ENDROOT
BRANCH   2   3
HETATM    3  C   UNL     1     -10.490   6.461  71.635  1.00  0.00    -0.217 A  
HETATM    4  C   UNL     1     -10.864   7.685  71.062  1.00  0.00    -0.242 A  
HETATM    5  C   UNL     1     -10.976   7.779  69.669  1.00  0.00    -0.128 A  
HETATM    6  C   UNL     1     -10.292   5.348  70.805  1.00  0.00    -0.322 A  
HETATM    7  C   UNL     1     -10.448   5.440  69.421  1.00  0.00    -0.331 A  
HETATM    8  C   UNL     1     -10.829   6.653  68.856  1.00  0.00    -0.326 A  
BRANCH   4   9
HETATM    9  O   UNL     1     -11.112   8.771  71.863  1.00  0.00    -0.318 OA 
HETATM   10  C   UNL     1     -11.474   9.961  71.165  1.00  0.00    -0.383 C  
ENDBRANCH   4   9
BRANCH   8  11
HETATM   11  C   UNL     1     -11.092   6.759  67.380  1.00  0.00    -0.366 C  
BRANCH  11  12
HETATM   12  C   UNL     1      -9.902   7.296  66.606  1.00  0.00    -0.187 C  
BRANCH  12  13
HETATM   13  O   UNL     1     -10.171   8.620  66.142  1.00  0.00    -0.210 OA 
BRANCH  13  14
HETATM   14  C   UNL     1      -9.301   9.652  66.649  1.00  0.00    -0.156 C  
HETATM   15  C   UNL     1      -7.929   9.070  67.022  1.00  0.00    -0.102 C  
HETATM   16  C   UNL     1      -7.053  10.048  67.791  1.00  0.00    -0.086 C  
HETATM   17  C   UNL     1      -7.804  10.579  69.003  1.00  0.00    -0.129 C  
HETATM   18  C   UNL     1      -9.015  11.387  68.545  1.00  0.00    -0.158 C  
HETATM   19  C   UNL     1     -10.001  10.512  67.757  1.00  0.00    -0.171 C  
BRANCH  19  20
HETATM   20  N   UNL     1     -11.203  11.169  67.191  1.00  0.00    -0.371 NA 
HETATM   21  C   UNL     1     -11.050  11.798  65.878  1.00  0.00    -0.302 C  
HETATM   22  C   UNL     1     -10.692  13.250  66.154  1.00  0.00    -0.287 C  
HETATM   23  C   UNL     1     -11.344  13.550  67.498  1.00  0.00    -0.308 C  
HETATM   24  C   UNL     1     -11.808  12.195  68.043  1.00  0.00    -0.285 C  
HETATM   25  O   UNL     1     -12.439  14.441  67.317  1.00  0.00    -0.601 OA 
HETATM   26  H   UNL     1     -12.845  14.628  68.156  1.00  0.00     0.000 HD 
ENDBRANCH  19  20
ENDBRANCH  13  14
ENDBRANCH  12  13
ENDBRANCH  11  12
ENDBRANCH   8  11
ENDBRANCH   2   3
TORSDOF 7
ENDMDL
MODEL      134
REMARK 921   NORMALIZED FREE ENERGY PREDICTED BY IDOCK:   -4.58 KCAL/MOL
REMARK 922        TOTAL FREE ENERGY PREDICTED BY IDOCK:   -7.37 KCAL/MOL
REMARK 923 INTER-LIGAND FREE ENERGY PREDICTED BY IDOCK:   -6.74 KCAL/MOL
REMARK 924 INTRA-LIGAND FREE ENERGY PREDICTED BY IDOCK:   -0.63 KCAL/MOL
REMARK 927      BINDING AFFINITY PREDICTED BY RF-SCORE:    0.00 PKD
ROOT
HETATM    1  C   UNL     1     -10.611  18.726  66.582  1.00  0.00    -0.383 C  
HETATM    2  O   UNL     1      -9.934  17.889  65.657  1.00  0.00    -0.539 OA 
ENDROOT
BRANCH   2   3
HETATM    3  C   UNL     1      -9.948  16.543  65.912  1.00  0.00    -0.317 A  
HETATM    4  C   UNL     1      -9.093  15.822  66.757  1.00  0.00    -0.249 A  
HETATM    5  C   UNL     1      -9.248  14.434  66.861  1.00  0.00    -0.269 A  
HETATM    6  C   UNL     1     -10.901  15.852  65.150  1.00  0.00    -0.438 A  
HETATM    7  C   UNL     1     -11.021  14.464  65.226  1.00  0.00    -0.355 A  
HETATM    8  C   UNL     1     -10.163  13.749  66.058  1.00  0.00    -0.315 A  
BRANCH   4   9
HETATM    9  O   UNL     1      -8.121  16.477  67.471  1.00  0.00    -0.149 OA 
HETATM   10  C   UNL     1      -6.853  16.561  66.821  1.00  0.00    -0.190 C  
ENDBRANCH   4   9
BRANCH   8  11
HETATM   11  C   UNL     1     -10.209  12.248  66.092  1.00  0.00    -0.263 C  
BRANCH  11  12
HETATM   12  C   UNL     1      -9.897  11.679  67.465  1.00  0.00    -0.188 C  
BRANCH  12  13
HETATM   13  O   UNL     1     -10.274  10.303  67.529  1.00  0.00    -0.187 OA 
BRANCH  13  14
HETATM   14  C   UNL     1     -11.190   9.950  68.584  1.00  0.00    -0.068 C  
HETATM   15  C   UNL     1     -11.540  11.182  69.434  1.00  0.00    -0.388 C  
HETATM   16  C   UNL     1     -12.298  10.837  70.706  1.00  0.00    -0.480 C  
HETATM   17  C   UNL     1     -11.535   9.787  71.500  1.00  0.00    -0.393 C  
HETATM   18  C   UNL     1     -11.463   8.489  70.700  1.00  0.00    -0.249 C  
HETATM   19  C   UNL     1     -10.705   8.690  69.380  1.00  0.00    -0.158 C  
BRANCH  19  20
HETATM   20  N   UNL     1     -10.603   7.531  68.462  1.00  0.00    -0.174 NA 
HETATM   21  C   UNL     1     -11.270   6.298  68.886  1.00  0.00    -0.309 C  
HETATM   22  C   UNL     1     -10.214   5.490  69.623  1.00  0.00    -0.336 C  
HETATM   23  C   UNL     1      -8.897   5.919  68.987  1.00  0.00    -0.119 C  
HETATM   24  C   UNL     1      -9.237   7.133  68.115  1.00  0.00    -0.131 C  
HETATM   25  O   UNL     1      -8.364   4.852  68.210  1.00  0.00    -0.092 OA 
HETATM   26  H   UNL     1      -7.544   5.120  67.813  1.00  0.00     0.000 HD 
ENDBRANCH  19  20
ENDBRANCH  13  14
ENDBRANCH  12  13
ENDBRANCH  11  12
ENDBRANCH   8  11
ENDBRANCH   2   3
TORSDOF 7
ENDMDL
MODEL      135
REMARK 921   NORMALIZED FREE ENERGY PREDICTED BY IDOCK:   -4.57 KCAL/MOL
REMARK 922        TOTAL FREE ENERGY PREDICTED BY IDOCK:   -7.37 KCAL/MOL
REMARK 923 INTER-LIGAND FREE ENERGY PREDICTED BY IDOCK:   -6.84 KCAL/MOL
REMARK 924 INTRA-LIGAND FREE ENERGY PREDICTED BY IDOCK:   -0.53 KCAL/MOL
REMARK 927      BINDING AFFINITY PREDICTED BY RF-SCORE:    0.00 PKD
ROOT
HETATM    1  C   UNL     1     -10.853  16.068  65.044  1.00  0.00    -0.404 C  
HETATM    2  O   UNL     1     -11.623  14.892  64.843  1.00  0.00    -0.382 OA 
ENDROOT
BRANCH   2   3
HETATM    3  C   UNL     1     -11.574  13.942  65.829  1.00  0.00    -0.338 A  
HETATM    4  C   UNL     1     -11.291  12.576  65.688  1.00  0.00    -0.335 A  
HETATM    5  C   UNL     1     -11.322  11.755  66.823  1.00  0.00    -0.385 A  
HETATM    6  C   UNL     1     -11.935  14.442  67.088  1.00  0.00    -0.419 A  
HETATM    7  C   UNL     1     -12.006  13.608  68.205  1.00  0.00    -0.390 A  
HETATM    8  C   UNL     1     -11.734  12.250  68.062  1.00  0.00    -0.417 A  
BRANCH   4   9
HETATM    9  O   UNL     1     -10.986  12.062  64.454  1.00  0.00    -0.299 OA 
HETATM   10  C   UNL     1     -12.066  12.064  63.520  1.00  0.00    -0.526 C  
ENDBRANCH   4   9
BRANCH   8  11
HETATM   11  C   UNL     1     -11.890  11.314  69.226  1.00  0.00    -0.423 C  
BRANCH  11  12
HETATM   12  C   UNL     1     -10.641  10.493  69.494  1.00  0.00    -0.246 C  
BRANCH  12  13
HETATM   13  O   UNL     1     -10.891   9.112  69.230  1.00  0.00    -0.213 OA 
BRANCH  13  14
HETATM   14  C   UNL     1     -10.549   8.197  70.290  1.00  0.00    -0.228 C  
HETATM   15  C   UNL     1     -11.327   8.537  71.572  1.00  0.00    -0.348 C  
HETATM   16  C   UNL     1     -10.833   7.774  72.792  1.00  0.00    -0.438 C  
HETATM   17  C   UNL     1      -9.334   7.969  72.958  1.00  0.00    -0.344 C  
HETATM   18  C   UNL     1      -8.600   7.357  71.768  1.00  0.00    -0.124 C  
HETATM   19  C   UNL     1      -8.998   8.047  70.455  1.00  0.00    -0.146 C  
BRANCH  19  20
HETATM   20  N   UNL     1      -8.413   7.522  69.198  1.00  0.00    -0.135 NA 
HETATM   21  C   UNL     1      -7.746   6.221  69.278  1.00  0.00    -0.100 C  
HETATM   22  C   UNL     1      -6.280   6.523  69.542  1.00  0.00    -0.034 C  
HETATM   23  C   UNL     1      -6.055   7.887  68.901  1.00  0.00    -0.039 C  
HETATM   24  C   UNL     1      -7.450   8.410  68.543  1.00  0.00    -0.094 C  
HETATM   25  O   UNL     1      -5.237   7.750  67.744  1.00  0.00    -0.029 OA 
HETATM   26  H   UNL     1      -5.097   8.601  67.345  1.00  0.00     0.000 HD 
ENDBRANCH  19  20
ENDBRANCH  13  14
ENDBRANCH  12  13
ENDBRANCH  11  12
ENDBRANCH   8  11
ENDBRANCH   2   3
TORSDOF 7
ENDMDL
MODEL      136
REMARK 921   NORMALIZED FREE ENERGY PREDICTED BY IDOCK:   -4.56 KCAL/MOL
REMARK 922        TOTAL FREE ENERGY PREDICTED BY IDOCK:   -7.35 KCAL/MOL
REMARK 923 INTER-LIGAND FREE ENERGY PREDICTED BY IDOCK:   -6.08 KCAL/MOL
REMARK 924 INTRA-LIGAND FREE ENERGY PREDICTED BY IDOCK:   -1.27 KCAL/MOL
REMARK 927      BINDING AFFINITY PREDICTED BY RF-SCORE:    0.00 PKD
ROOT
HETATM    1  C   UNL     1      -9.186   6.532  66.214  1.00  0.00    -0.133 C  
HETATM    2  O   UNL     1      -9.323   7.183  67.468  1.00  0.00    -0.124 OA 
ENDROOT
BRANCH   2   3
HETATM    3  C   UNL     1      -8.882   8.478  67.547  1.00  0.00    -0.135 A  
HETATM    4  C   UNL     1      -9.606   9.606  67.958  1.00  0.00    -0.143 A  
HETATM    5  C   UNL     1      -8.982  10.860  67.938  1.00  0.00    -0.141 A  
HETATM    6  C   UNL     1      -7.571   8.638  67.076  1.00  0.00    -0.084 A  
HETATM    7  C   UNL     1      -6.971   9.897  67.019  1.00  0.00    -0.088 A  
HETATM    8  C   UNL     1      -7.695  11.017  67.417  1.00  0.00    -0.114 A  
BRANCH   4   9
HETATM    9  O   UNL     1     -10.907   9.473  68.373  1.00  0.00    -0.207 OA 
HETATM   10  C   UNL     1     -11.450  10.624  69.020  1.00  0.00    -0.274 C  
ENDBRANCH   4   9
BRANCH   8  11
HETATM   11  C   UNL     1      -7.108  12.394  67.282  1.00  0.00    -0.128 C  
BRANCH  11  12
HETATM   12  C   UNL     1      -7.964  13.467  67.931  1.00  0.00    -0.155 C  
BRANCH  12  13
HETATM   13  O   UNL     1      -8.430  14.391  66.946  1.00  0.00    -0.202 OA 
BRANCH  13  14
HETATM   14  C   UNL     1      -9.799  14.819  67.083  1.00  0.00    -0.232 C  
HETATM   15  C   UNL     1     -10.090  15.253  68.528  1.00  0.00    -0.222 C  
HETATM   16  C   UNL     1     -11.570  15.478  68.800  1.00  0.00    -0.390 C  
HETATM   17  C   UNL     1     -12.367  14.247  68.395  1.00  0.00    -0.027 C  
HETATM   18  C   UNL     1     -12.255  14.034  66.888  1.00  0.00    -0.415 C  
HETATM   19  C   UNL     1     -10.800  13.781  66.469  1.00  0.00    -0.287 C  
BRANCH  19  20
HETATM   20  N   UNL     1     -10.519  13.615  65.023  1.00  0.00    -0.370 NA 
HETATM   21  C   UNL     1     -11.652  13.787  64.111  1.00  0.00    -0.331 C  
HETATM   22  C   UNL     1     -12.231  12.396  63.905  1.00  0.00    -0.603 C  
HETATM   23  C   UNL     1     -11.042  11.461  64.090  1.00  0.00    -0.308 C  
HETATM   24  C   UNL     1      -9.914  12.334  64.651  1.00  0.00    -0.186 C  
HETATM   25  O   UNL     1     -10.681  10.884  62.840  1.00  0.00    -0.779 OA 
HETATM   26  H   UNL     1      -9.939  10.301  62.956  1.00  0.00     0.000 HD 
ENDBRANCH  19  20
ENDBRANCH  13  14
ENDBRANCH  12  13
ENDBRANCH  11  12
ENDBRANCH   8  11
ENDBRANCH   2   3
TORSDOF 7
ENDMDL
MODEL      137
REMARK 921   NORMALIZED FREE ENERGY PREDICTED BY IDOCK:   -4.56 KCAL/MOL
REMARK 922        TOTAL FREE ENERGY PREDICTED BY IDOCK:   -7.35 KCAL/MOL
REMARK 923 INTER-LIGAND FREE ENERGY PREDICTED BY IDOCK:   -6.57 KCAL/MOL
REMARK 924 INTRA-LIGAND FREE ENERGY PREDICTED BY IDOCK:   -0.78 KCAL/MOL
REMARK 927      BINDING AFFINITY PREDICTED BY RF-SCORE:    0.00 PKD
ROOT
HETATM    1  C   UNL     1      -7.858   6.582  63.605  1.00  0.00    -0.106 C  
HETATM    2  O   UNL     1      -8.410   6.721  64.905  1.00  0.00    -0.112 OA 
ENDROOT
BRANCH   2   3
HETATM    3  C   UNL     1      -8.160   7.897  65.563  1.00  0.00    -0.130 A  
HETATM    4  C   UNL     1      -8.637   8.293  66.821  1.00  0.00    -0.127 A  
HETATM    5  C   UNL     1      -8.293   9.559  67.312  1.00  0.00    -0.125 A  
HETATM    6  C   UNL     1      -7.397   8.796  64.805  1.00  0.00    -0.093 A  
HETATM    7  C   UNL     1      -7.094  10.072  65.284  1.00  0.00    -0.137 A  
HETATM    8  C   UNL     1      -7.577  10.467  66.528  1.00  0.00    -0.118 A  
BRANCH   4   9
HETATM    9  O   UNL     1      -9.428   7.444  67.553  1.00  0.00    -0.134 OA 
HETATM   10  C   UNL     1     -10.151   8.066  68.616  1.00  0.00    -0.199 C  
ENDBRANCH   4   9
BRANCH   8  11
HETATM   11  C   UNL     1      -7.344  11.864  67.029  1.00  0.00    -0.118 C  
BRANCH  11  12
HETATM   12  C   UNL     1      -8.162  12.191  68.266  1.00  0.00    -0.168 C  
BRANCH  12  13
HETATM   13  O   UNL     1      -9.425  12.743  67.891  1.00  0.00    -0.194 OA 
BRANCH  13  14
HETATM   14  C   UNL     1      -9.412  13.630  66.755  1.00  0.00    -0.270 C  
HETATM   15  C   UNL     1      -8.665  14.930  67.090  1.00  0.00    -0.240 C  
HETATM   16  C   UNL     1      -8.828  16.006  66.026  1.00  0.00    -0.314 C  
HETATM   17  C   UNL     1     -10.305  16.244  65.747  1.00  0.00    -0.393 C  
HETATM   18  C   UNL     1     -10.926  14.983  65.153  1.00  0.00    -0.417 C  
HETATM   19  C   UNL     1     -10.841  13.805  66.136  1.00  0.00    -0.279 C  
BRANCH  19  20
HETATM   20  N   UNL     1     -11.350  12.491  65.679  1.00  0.00    -0.320 NA 
HETATM   21  C   UNL     1     -10.413  11.647  64.933  1.00  0.00    -0.288 C  
HETATM   22  C   UNL     1     -10.646  11.968  63.466  1.00  0.00    -0.514 C  
HETATM   23  C   UNL     1     -12.109  12.389  63.399  1.00  0.00    -0.524 C  
HETATM   24  C   UNL     1     -12.560  12.545  64.856  1.00  0.00    -0.390 C  
HETATM   25  O   UNL     1     -12.870  11.395  62.722  1.00  0.00    -0.860 OA 
HETATM   26  H   UNL     1     -13.782  11.658  62.681  1.00  0.00     0.000 HD 
ENDBRANCH  19  20
ENDBRANCH  13  14
ENDBRANCH  12  13
ENDBRANCH  11  12
ENDBRANCH   8  11
ENDBRANCH   2   3
TORSDOF 7
ENDMDL
MODEL      138
REMARK 921   NORMALIZED FREE ENERGY PREDICTED BY IDOCK:   -4.55 KCAL/MOL
REMARK 922        TOTAL FREE ENERGY PREDICTED BY IDOCK:   -7.33 KCAL/MOL
REMARK 923 INTER-LIGAND FREE ENERGY PREDICTED BY IDOCK:   -6.22 KCAL/MOL
REMARK 924 INTRA-LIGAND FREE ENERGY PREDICTED BY IDOCK:   -1.11 KCAL/MOL
REMARK 927      BINDING AFFINITY PREDICTED BY RF-SCORE:    0.00 PKD
ROOT
HETATM    1  C   UNL     1     -10.498  19.230  67.538  1.00  0.00    -0.459 C  
HETATM    2  O   UNL     1     -10.300  18.602  68.796  1.00  0.00    -0.334 OA 
ENDROOT
BRANCH   2   3
HETATM    3  C   UNL     1      -9.735  17.354  68.785  1.00  0.00    -0.282 A  
HETATM    4  C   UNL     1     -10.278  16.163  69.287  1.00  0.00    -0.257 A  
HETATM    5  C   UNL     1      -9.523  14.985  69.210  1.00  0.00    -0.171 A  
HETATM    6  C   UNL     1      -8.430  17.350  68.269  1.00  0.00    -0.249 A  
HETATM    7  C   UNL     1      -7.669  16.180  68.236  1.00  0.00    -0.148 A  
HETATM    8  C   UNL     1      -8.207  15.001  68.744  1.00  0.00    -0.168 A  
BRANCH   4   9
HETATM    9  O   UNL     1     -11.532  16.161  69.842  1.00  0.00    -0.324 OA 
HETATM   10  C   UNL     1     -11.574  15.829  71.229  1.00  0.00    -0.441 C  
ENDBRANCH   4   9
BRANCH   8  11
HETATM   11  C   UNL     1      -7.379  13.749  68.804  1.00  0.00    -0.103 C  
BRANCH  11  12
HETATM   12  C   UNL     1      -7.256  13.058  67.458  1.00  0.00    -0.151 C  
BRANCH  12  13
HETATM   13  O   UNL     1      -7.750  11.720  67.541  1.00  0.00    -0.126 OA 
BRANCH  13  14
HETATM   14  C   UNL     1      -9.130  11.535  67.167  1.00  0.00    -0.167 C  
HETATM   15  C   UNL     1      -9.667  12.779  66.443  1.00  0.00    -0.261 C  
HETATM   16  C   UNL     1     -11.175  12.751  66.244  1.00  0.00    -0.339 C  
HETATM   17  C   UNL     1     -11.873  12.512  67.575  1.00  0.00    -0.389 C  
HETATM   18  C   UNL     1     -11.504  11.130  68.108  1.00  0.00    -0.373 C  
HETATM   19  C   UNL     1      -9.995  11.019  68.368  1.00  0.00    -0.186 C  
BRANCH  19  20
HETATM   20  N   UNL     1      -9.471   9.712  68.832  1.00  0.00    -0.153 NA 
HETATM   21  C   UNL     1     -10.407   8.586  68.811  1.00  0.00    -0.213 C  
HETATM   22  C   UNL     1     -11.036   8.545  70.195  1.00  0.00    -0.221 C  
HETATM   23  C   UNL     1      -9.969   9.129  71.112  1.00  0.00    -0.307 C  
HETATM   24  C   UNL     1      -8.902   9.716  70.181  1.00  0.00    -0.231 C  
HETATM   25  O   UNL     1      -9.430   8.106  71.942  1.00  0.00    -0.163 OA 
HETATM   26  H   UNL     1      -8.765   8.471  72.514  1.00  0.00     0.000 HD 
ENDBRANCH  19  20
ENDBRANCH  13  14
ENDBRANCH  12  13
ENDBRANCH  11  12
ENDBRANCH   8  11
ENDBRANCH   2   3
TORSDOF 7
ENDMDL
MODEL      139
REMARK 921   NORMALIZED FREE ENERGY PREDICTED BY IDOCK:   -4.53 KCAL/MOL
REMARK 922        TOTAL FREE ENERGY PREDICTED BY IDOCK:   -7.31 KCAL/MOL
REMARK 923 INTER-LIGAND FREE ENERGY PREDICTED BY IDOCK:   -6.43 KCAL/MOL
REMARK 924 INTRA-LIGAND FREE ENERGY PREDICTED BY IDOCK:   -0.88 KCAL/MOL
REMARK 927      BINDING AFFINITY PREDICTED BY RF-SCORE:    0.00 PKD
ROOT
HETATM    1  C   UNL     1     -12.517  12.960  65.250  1.00  0.00    -0.493 C  
HETATM    2  O   UNL     1     -11.965  12.295  66.376  1.00  0.00    -0.589 OA 
ENDROOT
BRANCH   2   3
HETATM    3  C   UNL     1     -10.983  12.954  67.067  1.00  0.00    -0.262 A  
HETATM    4  C   UNL     1     -11.143  13.877  68.110  1.00  0.00    -0.256 A  
HETATM    5  C   UNL     1     -10.006  14.473  68.672  1.00  0.00    -0.237 A  
HETATM    6  C   UNL     1      -9.697  12.690  66.575  1.00  0.00    -0.256 A  
HETATM    7  C   UNL     1      -8.573  13.321  67.112  1.00  0.00    -0.197 A  
HETATM    8  C   UNL     1      -8.735  14.245  68.140  1.00  0.00    -0.174 A  
BRANCH   4   9
HETATM    9  O   UNL     1     -12.398  14.185  68.569  1.00  0.00    -0.244 OA 
HETATM   10  C   UNL     1     -12.455  14.593  69.935  1.00  0.00    -0.245 C  
ENDBRANCH   4   9
BRANCH   8  11
HETATM   11  C   UNL     1      -7.555  15.005  68.675  1.00  0.00    -0.128 C  
BRANCH  11  12
HETATM   12  C   UNL     1      -6.521  15.318  67.608  1.00  0.00    -0.163 C  
BRANCH  12  13
HETATM   13  O   UNL     1      -6.117  16.686  67.696  1.00  0.00    -0.120 OA 
BRANCH  13  14
HETATM   14  C   UNL     1      -6.424  17.507  66.553  1.00  0.00    -0.234 C  
HETATM   15  C   UNL     1      -5.154  17.800  65.738  1.00  0.00    -0.214 C  
HETATM   16  C   UNL     1      -5.361  18.860  64.666  1.00  0.00    -0.252 C  
HETATM   17  C   UNL     1      -5.953  20.118  65.284  1.00  0.00    -0.243 C  
HETATM   18  C   UNL     1      -7.344  19.815  65.834  1.00  0.00    -0.331 C  
HETATM   19  C   UNL     1      -7.284  18.757  66.946  1.00  0.00    -0.212 C  
BRANCH  19  20
HETATM   20  N   UNL     1      -8.566  18.312  67.541  1.00  0.00    -0.248 NA 
HETATM   21  C   UNL     1      -9.789  18.734  66.856  1.00  0.00    -0.334 C  
HETATM   22  C   UNL     1     -10.214  20.029  67.528  1.00  0.00    -0.551 C  
HETATM   23  C   UNL     1      -9.683  19.907  68.951  1.00  0.00    -0.243 C  
HETATM   24  C   UNL     1      -8.761  18.683  68.944  1.00  0.00    -0.174 C  
HETATM   25  O   UNL     1     -10.767  19.739  69.860  1.00  0.00    -0.025 OA 
HETATM   26  H   UNL     1     -10.435  19.663  70.747  1.00  0.00     0.000 HD 
ENDBRANCH  19  20
ENDBRANCH  13  14
ENDBRANCH  12  13
ENDBRANCH  11  12
ENDBRANCH   8  11
ENDBRANCH   2   3
TORSDOF 7
ENDMDL
MODEL      140
REMARK 921   NORMALIZED FREE ENERGY PREDICTED BY IDOCK:   -4.53 KCAL/MOL
REMARK 922        TOTAL FREE ENERGY PREDICTED BY IDOCK:   -7.31 KCAL/MOL
REMARK 923 INTER-LIGAND FREE ENERGY PREDICTED BY IDOCK:   -6.66 KCAL/MOL
REMARK 924 INTRA-LIGAND FREE ENERGY PREDICTED BY IDOCK:   -0.65 KCAL/MOL
REMARK 927      BINDING AFFINITY PREDICTED BY RF-SCORE:    0.00 PKD
ROOT
HETATM    1  C   UNL     1     -12.499  12.103  63.468  1.00  0.00    -0.555 C  
HETATM    2  O   UNL     1     -12.443  12.561  64.811  1.00  0.00    -0.476 OA 
ENDROOT
BRANCH   2   3
HETATM    3  C   UNL     1     -11.412  12.093  65.584  1.00  0.00    -0.355 A  
HETATM    4  C   UNL     1     -10.981  12.583  66.824  1.00  0.00    -0.265 A  
HETATM    5  C   UNL     1      -9.879  11.984  67.447  1.00  0.00    -0.191 A  
HETATM    6  C   UNL     1     -10.699  11.052  64.971  1.00  0.00    -0.264 A  
HETATM    7  C   UNL     1      -9.576  10.489  65.579  1.00  0.00    -0.282 A  
HETATM    8  C   UNL     1      -9.143  10.985  66.806  1.00  0.00    -0.172 A  
BRANCH   4   9
HETATM    9  O   UNL     1     -11.637  13.634  67.412  1.00  0.00    -0.317 OA 
HETATM   10  C   UNL     1     -12.007  13.424  68.775  1.00  0.00    -0.324 C  
ENDBRANCH   4   9
BRANCH   8  11
HETATM   11  C   UNL     1      -7.886  10.460  67.440  1.00  0.00    -0.103 C  
BRANCH  11  12
HETATM   12  C   UNL     1      -7.997  10.327  68.948  1.00  0.00    -0.113 C  
BRANCH  12  13
HETATM   13  O   UNL     1      -8.383   8.998  69.300  1.00  0.00    -0.117 OA 
BRANCH  13  14
HETATM   14  C   UNL     1      -8.656   8.771  70.698  1.00  0.00    -0.178 C  
HETATM   15  C   UNL     1      -7.348   8.702  71.502  1.00  0.00    -0.118 C  
HETATM   16  C   UNL     1      -7.548   8.219  72.930  1.00  0.00    -0.161 C  
HETATM   17  C   UNL     1      -8.298   6.896  72.934  1.00  0.00    -0.118 C  
HETATM   18  C   UNL     1      -9.702   7.098  72.370  1.00  0.00    -0.173 C  
HETATM   19  C   UNL     1      -9.651   7.579  70.912  1.00  0.00    -0.165 C  
BRANCH  19  20
HETATM   20  N   UNL     1     -10.938   7.879  70.242  1.00  0.00    -0.253 NA 
HETATM   21  C   UNL     1     -11.519   9.199  70.498  1.00  0.00    -0.229 C  
HETATM   22  C   UNL     1     -12.462   9.013  71.676  1.00  0.00    -0.418 C  
HETATM   23  C   UNL     1     -12.917   7.563  71.571  1.00  0.00    -0.359 C  
HETATM   24  C   UNL     1     -12.015   6.924  70.510  1.00  0.00    -0.305 C  
HETATM   25  O   UNL     1     -14.288   7.511  71.191  1.00  0.00    -0.643 OA 
HETATM   26  H   UNL     1     -14.571   6.607  71.125  1.00  0.00     0.000 HD 
ENDBRANCH  19  20
ENDBRANCH  13  14
ENDBRANCH  12  13
ENDBRANCH  11  12
ENDBRANCH   8  11
ENDBRANCH   2   3
TORSDOF 7
ENDMDL
MODEL      141
REMARK 921   NORMALIZED FREE ENERGY PREDICTED BY IDOCK:   -4.53 KCAL/MOL
REMARK 922        TOTAL FREE ENERGY PREDICTED BY IDOCK:   -7.31 KCAL/MOL
REMARK 923 INTER-LIGAND FREE ENERGY PREDICTED BY IDOCK:   -6.27 KCAL/MOL
REMARK 924 INTRA-LIGAND FREE ENERGY PREDICTED BY IDOCK:   -1.04 KCAL/MOL
REMARK 927      BINDING AFFINITY PREDICTED BY RF-SCORE:    0.00 PKD
ROOT
HETATM    1  C   UNL     1     -11.137   6.769  67.556  1.00  0.00    -0.265 C  
HETATM    2  O   UNL     1     -10.207   6.907  66.492  1.00  0.00    -0.162 OA 
ENDROOT
BRANCH   2   3
HETATM    3  C   UNL     1      -9.428   8.035  66.491  1.00  0.00    -0.214 A  
HETATM    4  C   UNL     1      -8.292   8.291  65.710  1.00  0.00    -0.137 A  
HETATM    5  C   UNL     1      -7.607   9.501  65.881  1.00  0.00    -0.100 A  
HETATM    6  C   UNL     1      -9.819   8.969  67.461  1.00  0.00    -0.230 A  
HETATM    7  C   UNL     1      -9.105  10.153  67.654  1.00  0.00    -0.144 A  
HETATM    8  C   UNL     1      -7.972  10.401  66.885  1.00  0.00    -0.114 A  
BRANCH   4   9
HETATM    9  O   UNL     1      -7.867   7.364  64.793  1.00  0.00    -0.114 OA 
HETATM   10  C   UNL     1      -6.465   7.386  64.523  1.00  0.00    -0.040 C  
ENDBRANCH   4   9
BRANCH   8  11
HETATM   11  C   UNL     1      -7.133  11.623  67.132  1.00  0.00    -0.143 C  
BRANCH  11  12
HETATM   12  C   UNL     1      -7.802  12.619  68.062  1.00  0.00    -0.149 C  
BRANCH  12  13
HETATM   13  O   UNL     1      -8.048  13.848  67.377  1.00  0.00    -0.170 OA 
BRANCH  13  14
HETATM   14  C   UNL     1      -9.358  14.420  67.565  1.00  0.00    -0.198 C  
HETATM   15  C   UNL     1      -9.595  14.759  69.045  1.00  0.00    -0.178 C  
HETATM   16  C   UNL     1     -11.038  15.131  69.350  1.00  0.00    -0.283 C  
HETATM   17  C   UNL     1     -11.975  14.042  68.850  1.00  0.00    -0.387 C  
HETATM   18  C   UNL     1     -11.890  13.949  67.329  1.00  0.00    -0.442 C  
HETATM   19  C   UNL     1     -10.474  13.564  66.875  1.00  0.00    -0.271 C  
BRANCH  19  20
HETATM   20  N   UNL     1     -10.215  13.492  65.417  1.00  0.00    -0.309 NA 
HETATM   21  C   UNL     1     -11.087  14.293  64.556  1.00  0.00    -0.312 C  
HETATM   22  C   UNL     1     -12.225  13.371  64.147  1.00  0.00    -0.457 C  
HETATM   23  C   UNL     1     -11.609  11.977  64.174  1.00  0.00    -0.379 C  
HETATM   24  C   UNL     1     -10.243  12.143  64.848  1.00  0.00    -0.280 C  
HETATM   25  O   UNL     1     -11.479  11.480  62.846  1.00  0.00    -0.788 OA 
HETATM   26  H   UNL     1     -11.095  10.611  62.863  1.00  0.00     0.000 HD 
ENDBRANCH  19  20
ENDBRANCH  13  14
ENDBRANCH  12  13
ENDBRANCH  11  12
ENDBRANCH   8  11
ENDBRANCH   2   3
TORSDOF 7
ENDMDL
MODEL      142
REMARK 921   NORMALIZED FREE ENERGY PREDICTED BY IDOCK:   -4.53 KCAL/MOL
REMARK 922        TOTAL FREE ENERGY PREDICTED BY IDOCK:   -7.30 KCAL/MOL
REMARK 923 INTER-LIGAND FREE ENERGY PREDICTED BY IDOCK:   -6.29 KCAL/MOL
REMARK 924 INTRA-LIGAND FREE ENERGY PREDICTED BY IDOCK:   -1.01 KCAL/MOL
REMARK 927      BINDING AFFINITY PREDICTED BY RF-SCORE:    0.00 PKD
ROOT
HETATM    1  C   UNL     1     -12.093  15.211  64.659  1.00  0.00    -0.257 C  
HETATM    2  O   UNL     1     -12.706  13.947  64.450  1.00  0.00    -0.656 OA 
ENDROOT
BRANCH   2   3
HETATM    3  C   UNL     1     -11.914  12.840  64.601  1.00  0.00    -0.396 A  
HETATM    4  C   UNL     1     -11.606  12.162  65.789  1.00  0.00    -0.355 A  
HETATM    5  C   UNL     1     -10.742  11.060  65.740  1.00  0.00    -0.216 A  
HETATM    6  C   UNL     1     -11.308  12.434  63.403  1.00  0.00    -0.507 A  
HETATM    7  C   UNL     1     -10.416  11.361  63.370  1.00  0.00    -0.452 A  
HETATM    8  C   UNL     1     -10.103  10.697  64.553  1.00  0.00    -0.421 A  
BRANCH   4   9
HETATM    9  O   UNL     1     -12.149  12.579  66.977  1.00  0.00    -0.521 OA 
HETATM   10  C   UNL     1     -11.259  13.312  67.819  1.00  0.00    -0.280 C  
ENDBRANCH   4   9
BRANCH   8  11
HETATM   11  C   UNL     1      -9.078   9.598  64.563  1.00  0.00    -0.287 C  
BRANCH  11  12
HETATM   12  C   UNL     1      -7.682  10.097  64.891  1.00  0.00    -0.143 C  
BRANCH  12  13
HETATM   13  O   UNL     1      -7.220   9.510  66.108  1.00  0.00    -0.090 OA 
BRANCH  13  14
HETATM   14  C   UNL     1      -7.594  10.195  67.320  1.00  0.00    -0.095 C  
HETATM   15  C   UNL     1      -6.953  11.591  67.373  1.00  0.00    -0.111 C  
HETATM   16  C   UNL     1      -7.101  12.266  68.728  1.00  0.00    -0.107 C  
HETATM   17  C   UNL     1      -6.583  11.351  69.827  1.00  0.00    -0.111 C  
HETATM   18  C   UNL     1      -7.446  10.094  69.900  1.00  0.00    -0.176 C  
HETATM   19  C   UNL     1      -7.381   9.299  68.587  1.00  0.00    -0.076 C  
BRANCH  19  20
HETATM   20  N   UNL     1      -8.216   8.079  68.480  1.00  0.00    -0.125 NA 
HETATM   21  C   UNL     1      -9.558   8.251  67.920  1.00  0.00    -0.152 C  
HETATM   22  C   UNL     1     -10.477   8.474  69.110  1.00  0.00    -0.217 C  
HETATM   23  C   UNL     1      -9.801   7.730  70.254  1.00  0.00    -0.184 C  
HETATM   24  C   UNL     1      -8.411   7.348  69.734  1.00  0.00    -0.134 C  
HETATM   25  O   UNL     1     -10.562   6.577  70.600  1.00  0.00    -0.217 OA 
HETATM   26  H   UNL     1     -10.140   6.113  71.313  1.00  0.00     0.000 HD 
ENDBRANCH  19  20
ENDBRANCH  13  14
ENDBRANCH  12  13
ENDBRANCH  11  12
ENDBRANCH   8  11
ENDBRANCH   2   3
TORSDOF 7
ENDMDL
MODEL      143
REMARK 921   NORMALIZED FREE ENERGY PREDICTED BY IDOCK:   -4.53 KCAL/MOL
REMARK 922        TOTAL FREE ENERGY PREDICTED BY IDOCK:   -7.30 KCAL/MOL
REMARK 923 INTER-LIGAND FREE ENERGY PREDICTED BY IDOCK:   -6.71 KCAL/MOL
REMARK 924 INTRA-LIGAND FREE ENERGY PREDICTED BY IDOCK:   -0.59 KCAL/MOL
REMARK 927      BINDING AFFINITY PREDICTED BY RF-SCORE:    0.00 PKD
ROOT
HETATM    1  C   UNL     1     -10.255  15.053  65.551  1.00  0.00    -0.378 C  
HETATM    2  O   UNL     1     -11.112  13.933  65.389  1.00  0.00    -0.298 OA 
ENDROOT
BRANCH   2   3
HETATM    3  C   UNL     1     -11.246  13.094  66.464  1.00  0.00    -0.310 A  
HETATM    4  C   UNL     1     -11.062  11.704  66.494  1.00  0.00    -0.301 A  
HETATM    5  C   UNL     1     -11.280  11.014  67.693  1.00  0.00    -0.373 A  
HETATM    6  C   UNL     1     -11.696  13.751  67.618  1.00  0.00    -0.402 A  
HETATM    7  C   UNL     1     -11.953  13.050  68.797  1.00  0.00    -0.302 A  
HETATM    8  C   UNL     1     -11.780  11.669  68.821  1.00  0.00    -0.392 A  
BRANCH   4   9
HETATM    9  O   UNL     1     -10.671  11.039  65.360  1.00  0.00    -0.236 OA 
HETATM   10  C   UNL     1      -9.896   9.863  65.591  1.00  0.00    -0.298 C  
ENDBRANCH   4   9
BRANCH   8  11
HETATM   11  C   UNL     1     -12.134  10.876  70.048  1.00  0.00    -0.433 C  
BRANCH  11  12
HETATM   12  C   UNL     1     -11.078   9.849  70.412  1.00  0.00    -0.319 C  
BRANCH  12  13
HETATM   13  O   UNL     1     -11.627   8.532  70.351  1.00  0.00    -0.204 OA 
BRANCH  13  14
HETATM   14  C   UNL     1     -10.999   7.549  71.198  1.00  0.00    -0.246 C  
HETATM   15  C   UNL     1     -11.189   7.909  72.680  1.00  0.00    -0.459 C  
HETATM   16  C   UNL     1     -10.346   7.057  73.616  1.00  0.00    -0.412 C  
HETATM   17  C   UNL     1      -8.885   7.106  73.193  1.00  0.00    -0.158 C  
HETATM   18  C   UNL     1      -8.728   6.475  71.813  1.00  0.00    -0.131 C  
HETATM   19  C   UNL     1      -9.526   7.250  70.754  1.00  0.00    -0.164 C  
BRANCH  19  20
HETATM   20  N   UNL     1      -9.522   6.723  69.368  1.00  0.00    -0.148 NA 
HETATM   21  C   UNL     1     -10.535   5.715  69.047  1.00  0.00    -0.251 C  
HETATM   22  C   UNL     1      -9.873   4.370  69.295  1.00  0.00    -0.218 C  
HETATM   23  C   UNL     1      -8.392   4.626  69.043  1.00  0.00    -0.080 C  
HETATM   24  C   UNL     1      -8.250   6.147  68.927  1.00  0.00    -0.112 C  
HETATM   25  O   UNL     1      -7.984   3.972  67.845  1.00  0.00    -0.087 OA 
HETATM   26  H   UNL     1      -7.061   4.132  67.688  1.00  0.00     0.000 HD 
ENDBRANCH  19  20
ENDBRANCH  13  14
ENDBRANCH  12  13
ENDBRANCH  11  12
ENDBRANCH   8  11
ENDBRANCH   2   3
TORSDOF 7
ENDMDL
MODEL      144
REMARK 921   NORMALIZED FREE ENERGY PREDICTED BY IDOCK:   -4.52 KCAL/MOL
REMARK 922        TOTAL FREE ENERGY PREDICTED BY IDOCK:   -7.29 KCAL/MOL
REMARK 923 INTER-LIGAND FREE ENERGY PREDICTED BY IDOCK:   -6.48 KCAL/MOL
REMARK 924 INTRA-LIGAND FREE ENERGY PREDICTED BY IDOCK:   -0.81 KCAL/MOL
REMARK 927      BINDING AFFINITY PREDICTED BY RF-SCORE:    0.00 PKD
ROOT
HETATM    1  C   UNL     1      -7.701  17.386  66.001  1.00  0.00    -0.198 C  
HETATM    2  O   UNL     1      -9.107  17.279  65.839  1.00  0.00    -0.516 OA 
ENDROOT
BRANCH   2   3
HETATM    3  C   UNL     1      -9.685  16.089  66.195  1.00  0.00    -0.324 A  
HETATM    4  C   UNL     1      -9.837  15.563  67.486  1.00  0.00    -0.220 A  
HETATM    5  C   UNL     1     -10.430  14.304  67.643  1.00  0.00    -0.248 A  
HETATM    6  C   UNL     1     -10.079  15.320  65.090  1.00  0.00    -0.323 A  
HETATM    7  C   UNL     1     -10.630  14.048  65.254  1.00  0.00    -0.376 A  
HETATM    8  C   UNL     1     -10.770  13.524  66.535  1.00  0.00    -0.287 A  
BRANCH   4   9
HETATM    9  O   UNL     1      -9.409  16.281  68.574  1.00  0.00    -0.199 OA 
HETATM   10  C   UNL     1     -10.428  17.027  69.239  1.00  0.00    -0.293 C  
ENDBRANCH   4   9
BRANCH   8  11
HETATM   11  C   UNL     1     -11.275  12.123  66.736  1.00  0.00    -0.375 C  
BRANCH  11  12
HETATM   12  C   UNL     1     -10.451  11.087  65.994  1.00  0.00    -0.245 C  
BRANCH  12  13
HETATM   13  O   UNL     1     -10.096  10.016  66.870  1.00  0.00    -0.208 OA 
BRANCH  13  14
HETATM   14  C   UNL     1      -9.463  10.400  68.107  1.00  0.00    -0.145 C  
HETATM   15  C   UNL     1      -8.047  10.938  67.848  1.00  0.00    -0.113 C  
HETATM   16  C   UNL     1      -7.234  11.125  69.120  1.00  0.00    -0.123 C  
HETATM   17  C   UNL     1      -7.222   9.835  69.926  1.00  0.00    -0.116 C  
HETATM   18  C   UNL     1      -8.639   9.504  70.389  1.00  0.00    -0.246 C  
HETATM   19  C   UNL     1      -9.575   9.276  69.193  1.00  0.00    -0.161 C  
BRANCH  19  20
HETATM   20  N   UNL     1     -11.004   9.004  69.481  1.00  0.00    -0.165 NA 
HETATM   21  C   UNL     1     -11.844  10.164  69.785  1.00  0.00    -0.088 C  
HETATM   22  C   UNL     1     -11.823  10.304  71.299  1.00  0.00    -0.425 C  
HETATM   23  C   UNL     1     -11.605   8.884  71.806  1.00  0.00    -0.352 C  
HETATM   24  C   UNL     1     -11.248   8.054  70.569  1.00  0.00    -0.250 C  
HETATM   25  O   UNL     1     -12.792   8.405  72.430  1.00  0.00    -0.486 OA 
HETATM   26  H   UNL     1     -12.655   7.519  72.747  1.00  0.00     0.000 HD 
ENDBRANCH  19  20
ENDBRANCH  13  14
ENDBRANCH  12  13
ENDBRANCH  11  12
ENDBRANCH   8  11
ENDBRANCH   2   3
TORSDOF 7
ENDMDL
MODEL      145
REMARK 921   NORMALIZED FREE ENERGY PREDICTED BY IDOCK:   -4.52 KCAL/MOL
REMARK 922        TOTAL FREE ENERGY PREDICTED BY IDOCK:   -7.29 KCAL/MOL
REMARK 923 INTER-LIGAND FREE ENERGY PREDICTED BY IDOCK:   -7.08 KCAL/MOL
REMARK 924 INTRA-LIGAND FREE ENERGY PREDICTED BY IDOCK:   -0.21 KCAL/MOL
REMARK 927      BINDING AFFINITY PREDICTED BY RF-SCORE:    0.00 PKD
ROOT
HETATM    1  C   UNL     1     -10.380   4.987  72.001  1.00  0.00    -0.213 C  
HETATM    2  O   UNL     1      -9.548   5.400  70.927  1.00  0.00    -0.161 OA 
ENDROOT
BRANCH   2   3
HETATM    3  C   UNL     1      -9.836   6.607  70.346  1.00  0.00    -0.175 A  
HETATM    4  C   UNL     1     -10.129   6.861  68.999  1.00  0.00    -0.170 A  
HETATM    5  C   UNL     1     -10.367   8.180  68.591  1.00  0.00    -0.224 A  
HETATM    6  C   UNL     1      -9.735   7.682  71.241  1.00  0.00    -0.176 A  
HETATM    7  C   UNL     1      -9.931   8.998  70.817  1.00  0.00    -0.307 A  
HETATM    8  C   UNL     1     -10.211   9.249  69.477  1.00  0.00    -0.214 A  
BRANCH   4   9
HETATM    9  O   UNL     1     -10.181   5.826  68.101  1.00  0.00    -0.159 OA 
HETATM   10  C   UNL     1     -10.861   6.123  66.881  1.00  0.00    -0.335 C  
ENDBRANCH   4   9
BRANCH   8  11
HETATM   11  C   UNL     1     -10.337  10.659  68.975  1.00  0.00    -0.237 C  
BRANCH  11  12
HETATM   12  C   UNL     1     -11.196  11.531  69.873  1.00  0.00    -0.104 C  
BRANCH  12  13
HETATM   13  O   UNL     1     -12.250  12.132  69.119  1.00  0.00    -0.202 OA 
BRANCH  13  14
HETATM   14  C   UNL     1     -12.139  13.553  68.906  1.00  0.00    -0.279 C  
HETATM   15  C   UNL     1     -11.568  13.849  67.510  1.00  0.00    -0.392 C  
HETATM   16  C   UNL     1     -11.193  15.310  67.314  1.00  0.00    -0.306 C  
HETATM   17  C   UNL     1     -10.260  15.763  68.427  1.00  0.00    -0.223 C  
HETATM   18  C   UNL     1     -10.990  15.704  69.766  1.00  0.00    -0.307 C  
HETATM   19  C   UNL     1     -11.421  14.268  70.101  1.00  0.00    -0.191 C  
BRANCH  19  20
HETATM   20  N   UNL     1     -12.197  14.056  71.346  1.00  0.00    -0.321 NA 
HETATM   21  C   UNL     1     -13.655  14.032  71.214  1.00  0.00    -0.201 C  
HETATM   22  C   UNL     1     -14.117  15.459  71.465  1.00  0.00    -0.596 C  
HETATM   23  C   UNL     1     -13.061  16.038  72.398  1.00  0.00    -0.327 C  
HETATM   24  C   UNL     1     -11.922  15.014  72.419  1.00  0.00    -0.348 C  
HETATM   25  O   UNL     1     -13.615  16.229  73.696  1.00  0.00    -0.912 OA 
HETATM   26  H   UNL     1     -12.956  16.590  74.278  1.00  0.00     0.000 HD 
ENDBRANCH  19  20
ENDBRANCH  13  14
ENDBRANCH  12  13
ENDBRANCH  11  12
ENDBRANCH   8  11
ENDBRANCH   2   3
TORSDOF 7
ENDMDL
MODEL      146
REMARK 921   NORMALIZED FREE ENERGY PREDICTED BY IDOCK:   -4.51 KCAL/MOL
REMARK 922        TOTAL FREE ENERGY PREDICTED BY IDOCK:   -7.28 KCAL/MOL
REMARK 923 INTER-LIGAND FREE ENERGY PREDICTED BY IDOCK:   -6.81 KCAL/MOL
REMARK 924 INTRA-LIGAND FREE ENERGY PREDICTED BY IDOCK:   -0.47 KCAL/MOL
REMARK 927      BINDING AFFINITY PREDICTED BY RF-SCORE:    0.00 PKD
ROOT
HETATM    1  C   UNL     1      -9.286   3.488  66.466  1.00  0.00    -0.173 C  
HETATM    2  O   UNL     1      -9.904   3.983  67.645  1.00  0.00    -0.151 OA 
ENDROOT
BRANCH   2   3
HETATM    3  C   UNL     1      -9.987   5.344  67.777  1.00  0.00    -0.161 A  
HETATM    4  C   UNL     1     -10.483   6.070  68.870  1.00  0.00    -0.248 A  
HETATM    5  C   UNL     1     -10.513   7.469  68.800  1.00  0.00    -0.212 A  
HETATM    6  C   UNL     1      -9.586   6.031  66.622  1.00  0.00    -0.179 A  
HETATM    7  C   UNL     1      -9.660   7.423  66.546  1.00  0.00    -0.228 A  
HETATM    8  C   UNL     1     -10.163   8.141  67.627  1.00  0.00    -0.296 A  
BRANCH   4   9
HETATM    9  O   UNL     1     -10.927   5.410  69.987  1.00  0.00    -0.249 OA 
HETATM   10  C   UNL     1     -11.423   6.255  71.025  1.00  0.00    -0.306 C  
ENDBRANCH   4   9
BRANCH   8  11
HETATM   11  C   UNL     1     -10.339   9.630  67.539  1.00  0.00    -0.297 C  
BRANCH  11  12
HETATM   12  C   UNL     1      -9.938  10.348  68.816  1.00  0.00    -0.188 C  
BRANCH  12  13
HETATM   13  O   UNL     1     -10.213  11.745  68.705  1.00  0.00    -0.214 OA 
BRANCH  13  14
HETATM   14  C   UNL     1      -9.370  12.482  67.797  1.00  0.00    -0.198 C  
HETATM   15  C   UNL     1      -7.973  12.691  68.401  1.00  0.00    -0.134 C  
HETATM   16  C   UNL     1      -7.117  13.669  67.610  1.00  0.00    -0.179 C  
HETATM   17  C   UNL     1      -7.865  14.980  67.418  1.00  0.00    -0.226 C  
HETATM   18  C   UNL     1      -9.110  14.742  66.567  1.00  0.00    -0.291 C  
HETATM   19  C   UNL     1     -10.079  13.772  67.259  1.00  0.00    -0.239 C  
BRANCH  19  20
HETATM   20  N   UNL     1     -11.311  13.394  66.528  1.00  0.00    -0.311 NA 
HETATM   21  C   UNL     1     -11.184  12.321  65.539  1.00  0.00    -0.332 C  
HETATM   22  C   UNL     1     -10.908  13.012  64.213  1.00  0.00    -0.430 C  
HETATM   23  C   UNL     1     -11.584  14.371  64.347  1.00  0.00    -0.334 C  
HETATM   24  C   UNL     1     -11.977  14.492  65.823  1.00  0.00    -0.306 C  
HETATM   25  O   UNL     1     -12.725  14.430  63.498  1.00  0.00    -0.926 OA 
HETATM   26  H   UNL     1     -13.146  15.278  63.582  1.00  0.00     0.000 HD 
ENDBRANCH  19  20
ENDBRANCH  13  14
ENDBRANCH  12  13
ENDBRANCH  11  12
ENDBRANCH   8  11
ENDBRANCH   2   3
TORSDOF 7
ENDMDL
MODEL      147
REMARK 921   NORMALIZED FREE ENERGY PREDICTED BY IDOCK:   -4.50 KCAL/MOL
REMARK 922        TOTAL FREE ENERGY PREDICTED BY IDOCK:   -7.27 KCAL/MOL
REMARK 923 INTER-LIGAND FREE ENERGY PREDICTED BY IDOCK:   -6.49 KCAL/MOL
REMARK 924 INTRA-LIGAND FREE ENERGY PREDICTED BY IDOCK:   -0.78 KCAL/MOL
REMARK 927      BINDING AFFINITY PREDICTED BY RF-SCORE:    0.00 PKD
ROOT
HETATM    1  C   UNL     1      -9.434   7.830  68.707  1.00  0.00    -0.149 C  
HETATM    2  O   UNL     1      -8.797   9.063  68.407  1.00  0.00    -0.133 OA 
ENDROOT
BRANCH   2   3
HETATM    3  C   UNL     1      -9.445   9.900  67.537  1.00  0.00    -0.151 A  
HETATM    4  C   UNL     1      -9.050  10.263  66.242  1.00  0.00    -0.154 A  
HETATM    5  C   UNL     1      -9.838  11.165  65.517  1.00  0.00    -0.281 A  
HETATM    6  C   UNL     1     -10.589  10.489  68.096  1.00  0.00    -0.240 A  
HETATM    7  C   UNL     1     -11.345  11.421  67.382  1.00  0.00    -0.359 A  
HETATM    8  C   UNL     1     -10.944  11.788  66.100  1.00  0.00    -0.355 A  
BRANCH   4   9
HETATM    9  O   UNL     1      -7.906   9.734  65.700  1.00  0.00    -0.107 OA 
HETATM   10  C   UNL     1      -6.750  10.565  65.810  1.00  0.00    -0.123 C  
ENDBRANCH   4   9
BRANCH   8  11
HETATM   11  C   UNL     1     -11.686  12.853  65.344  1.00  0.00    -0.413 C  
BRANCH  11  12
HETATM   12  C   UNL     1     -10.832  14.074  65.055  1.00  0.00    -0.392 C  
BRANCH  12  13
HETATM   13  O   UNL     1     -10.165  14.504  66.242  1.00  0.00    -0.278 OA 
BRANCH  13  14
HETATM   14  C   UNL     1     -10.581  15.779  66.771  1.00  0.00    -0.309 C  
HETATM   15  C   UNL     1     -10.331  16.898  65.748  1.00  0.00    -0.298 C  
HETATM   16  C   UNL     1     -10.512  18.293  66.329  1.00  0.00    -0.397 C  
HETATM   17  C   UNL     1      -9.660  18.452  67.578  1.00  0.00    -0.293 C  
HETATM   18  C   UNL     1     -10.146  17.492  68.660  1.00  0.00    -0.361 C  
HETATM   19  C   UNL     1     -10.008  16.030  68.208  1.00  0.00    -0.220 C  
BRANCH  19  20
HETATM   20  N   UNL     1     -10.496  14.977  69.129  1.00  0.00    -0.240 NA 
HETATM   21  C   UNL     1     -11.921  14.647  69.051  1.00  0.00    -0.283 C  
HETATM   22  C   UNL     1     -12.605  15.522  70.089  1.00  0.00    -0.304 C  
HETATM   23  C   UNL     1     -11.539  15.749  71.153  1.00  0.00    -0.419 C  
HETATM   24  C   UNL     1     -10.233  15.222  70.548  1.00  0.00     0.142 C  
HETATM   25  O   UNL     1     -11.884  15.045  72.342  1.00  0.00    -0.370 OA 
HETATM   26  H   UNL     1     -11.219  15.187  73.005  1.00  0.00     0.000 HD 
ENDBRANCH  19  20
ENDBRANCH  13  14
ENDBRANCH  12  13
ENDBRANCH  11  12
ENDBRANCH   8  11
ENDBRANCH   2   3
TORSDOF 7
ENDMDL
MODEL      148
REMARK 921   NORMALIZED FREE ENERGY PREDICTED BY IDOCK:   -4.50 KCAL/MOL
REMARK 922        TOTAL FREE ENERGY PREDICTED BY IDOCK:   -7.26 KCAL/MOL
REMARK 923 INTER-LIGAND FREE ENERGY PREDICTED BY IDOCK:   -6.54 KCAL/MOL
REMARK 924 INTRA-LIGAND FREE ENERGY PREDICTED BY IDOCK:   -0.72 KCAL/MOL
REMARK 927      BINDING AFFINITY PREDICTED BY RF-SCORE:    0.00 PKD
ROOT
HETATM    1  C   UNL     1     -11.152  16.458  68.675  1.00  0.00    -0.352 C  
HETATM    2  O   UNL     1     -10.908  16.075  67.329  1.00  0.00    -0.313 OA 
ENDROOT
BRANCH   2   3
HETATM    3  C   UNL     1     -10.313  14.858  67.129  1.00  0.00    -0.260 A  
HETATM    4  C   UNL     1     -10.401  14.038  65.995  1.00  0.00    -0.306 A  
HETATM    5  C   UNL     1      -9.740  12.803  65.995  1.00  0.00    -0.226 A  
HETATM    6  C   UNL     1      -9.613  14.400  68.254  1.00  0.00    -0.211 A  
HETATM    7  C   UNL     1      -8.993  13.149  68.261  1.00  0.00    -0.175 A  
HETATM    8  C   UNL     1      -9.091  12.332  67.139  1.00  0.00    -0.193 A  
BRANCH   4   9
HETATM    9  O   UNL     1     -11.125  14.449  64.905  1.00  0.00    -0.359 OA 
HETATM   10  C   UNL     1     -11.854  13.415  64.245  1.00  0.00    -0.423 C  
ENDBRANCH   4   9
BRANCH   8  11
HETATM   11  C   UNL     1      -8.511  10.946  67.150  1.00  0.00    -0.128 C  
BRANCH  11  12
HETATM   12  C   UNL     1      -9.500   9.897  67.629  1.00  0.00    -0.147 C  
BRANCH  12  13
HETATM   13  O   UNL     1      -9.591   9.917  69.054  1.00  0.00    -0.169 OA 
BRANCH  13  14
HETATM   14  C   UNL     1     -10.924   9.873  69.600  1.00  0.00    -0.252 C  
HETATM   15  C   UNL     1     -11.700  11.150  69.241  1.00  0.00    -0.401 C  
HETATM   16  C   UNL     1     -13.018  11.281  69.989  1.00  0.00     0.202 C  
HETATM   17  C   UNL     1     -12.783  11.150  71.487  1.00  0.00    -0.499 C  
HETATM   18  C   UNL     1     -12.268   9.749  71.806  1.00  0.00    -0.449 C  
HETATM   19  C   UNL     1     -10.921   9.482  71.117  1.00  0.00    -0.368 C  
BRANCH  19  20
HETATM   20  N   UNL     1     -10.319   8.137  71.283  1.00  0.00    -0.195 NA 
HETATM   21  C   UNL     1     -10.966   7.036  70.565  1.00  0.00    -0.265 C  
HETATM   22  C   UNL     1     -11.964   6.436  71.543  1.00  0.00    -0.331 C  
HETATM   23  C   UNL     1     -11.361   6.711  72.915  1.00  0.00    -0.136 C  
HETATM   24  C   UNL     1     -10.198   7.678  72.668  1.00  0.00    -0.265 C  
HETATM   25  O   UNL     1     -10.911   5.493  73.499  1.00  0.00    -0.323 OA 
HETATM   26  H   UNL     1     -10.535   5.665  74.355  1.00  0.00     0.000 HD 
ENDBRANCH  19  20
ENDBRANCH  13  14
ENDBRANCH  12  13
ENDBRANCH  11  12
ENDBRANCH   8  11
ENDBRANCH   2   3
TORSDOF 7
ENDMDL
MODEL      149
REMARK 921   NORMALIZED FREE ENERGY PREDICTED BY IDOCK:   -4.50 KCAL/MOL
REMARK 922        TOTAL FREE ENERGY PREDICTED BY IDOCK:   -7.26 KCAL/MOL
REMARK 923 INTER-LIGAND FREE ENERGY PREDICTED BY IDOCK:   -6.30 KCAL/MOL
REMARK 924 INTRA-LIGAND FREE ENERGY PREDICTED BY IDOCK:   -0.96 KCAL/MOL
REMARK 927      BINDING AFFINITY PREDICTED BY RF-SCORE:    0.00 PKD
ROOT
HETATM    1  C   UNL     1      -5.217  14.518  71.255  1.00  0.00    -0.146 C  
HETATM    2  O   UNL     1      -5.334  14.702  69.852  1.00  0.00    -0.093 OA 
ENDROOT
BRANCH   2   3
HETATM    3  C   UNL     1      -6.596  14.639  69.320  1.00  0.00    -0.128 A  
HETATM    4  C   UNL     1      -7.239  13.521  68.772  1.00  0.00    -0.096 A  
HETATM    5  C   UNL     1      -8.529  13.668  68.246  1.00  0.00    -0.170 A  
HETATM    6  C   UNL     1      -7.234  15.887  69.280  1.00  0.00    -0.217 A  
HETATM    7  C   UNL     1      -8.502  16.033  68.714  1.00  0.00    -0.228 A  
HETATM    8  C   UNL     1      -9.135  14.924  68.161  1.00  0.00    -0.177 A  
BRANCH   4   9
HETATM    9  O   UNL     1      -6.607  12.304  68.758  1.00  0.00    -0.072 OA 
HETATM   10  C   UNL     1      -7.428  11.197  69.131  1.00  0.00    -0.109 C  
ENDBRANCH   4   9
BRANCH   8  11
HETATM   11  C   UNL     1     -10.459  15.068  67.465  1.00  0.00    -0.256 C  
BRANCH  11  12
HETATM   12  C   UNL     1     -11.597  14.405  68.220  1.00  0.00    -0.328 C  
BRANCH  12  13
HETATM   13  O   UNL     1     -12.167  13.357  67.435  1.00  0.00    -0.326 OA 
BRANCH  13  14
HETATM   14  C   UNL     1     -11.643  13.214  66.100  1.00  0.00    -0.355 C  
HETATM   15  C   UNL     1     -12.521  13.965  65.088  1.00  0.00    -0.479 C  
HETATM   16  C   UNL     1     -12.171  13.652  63.641  1.00  0.00    -0.376 C  
HETATM   17  C   UNL     1     -12.187  12.148  63.414  1.00  0.00    -0.635 C  
HETATM   18  C   UNL     1     -11.094  11.490  64.252  1.00  0.00    -0.385 C  
HETATM   19  C   UNL     1     -11.331  11.718  65.752  1.00  0.00    -0.250 C  
BRANCH  19  20
HETATM   20  N   UNL     1     -10.319  11.188  66.697  1.00  0.00    -0.232 NA 
HETATM   21  C   UNL     1      -9.172  10.494  66.107  1.00  0.00    -0.170 C  
HETATM   22  C   UNL     1      -9.550   9.022  66.077  1.00  0.00    -0.342 C  
HETATM   23  C   UNL     1     -10.511   8.856  67.248  1.00  0.00    -0.277 C  
HETATM   24  C   UNL     1     -10.839  10.277  67.718  1.00  0.00    -0.292 C  
HETATM   25  O   UNL     1      -9.890   8.096  68.279  1.00  0.00    -0.161 OA 
HETATM   26  H   UNL     1     -10.490   7.992  69.009  1.00  0.00     0.000 HD 
ENDBRANCH  19  20
ENDBRANCH  13  14
ENDBRANCH  12  13
ENDBRANCH  11  12
ENDBRANCH   8  11
ENDBRANCH   2   3
TORSDOF 7
ENDMDL
MODEL      150
REMARK 921   NORMALIZED FREE ENERGY PREDICTED BY IDOCK:   -4.49 KCAL/MOL
REMARK 922        TOTAL FREE ENERGY PREDICTED BY IDOCK:   -7.25 KCAL/MOL
REMARK 923 INTER-LIGAND FREE ENERGY PREDICTED BY IDOCK:   -6.40 KCAL/MOL
REMARK 924 INTRA-LIGAND FREE ENERGY PREDICTED BY IDOCK:   -0.84 KCAL/MOL
REMARK 927      BINDING AFFINITY PREDICTED BY RF-SCORE:    0.00 PKD
ROOT
HETATM    1  C   UNL     1     -10.656  19.804  66.474  1.00  0.00    -0.467 C  
HETATM    2  O   UNL     1     -10.611  19.575  67.875  1.00  0.00    -0.426 OA 
ENDROOT
BRANCH   2   3
HETATM    3  C   UNL     1      -9.852  18.519  68.307  1.00  0.00    -0.363 A  
HETATM    4  C   UNL     1      -8.499  18.530  68.673  1.00  0.00    -0.299 A  
HETATM    5  C   UNL     1      -7.889  17.329  69.060  1.00  0.00    -0.144 A  
HETATM    6  C   UNL     1     -10.548  17.302  68.284  1.00  0.00    -0.383 A  
HETATM    7  C   UNL     1      -9.921  16.104  68.630  1.00  0.00    -0.228 A  
HETATM    8  C   UNL     1      -8.574  16.115  68.982  1.00  0.00    -0.251 A  
BRANCH   4   9
HETATM    9  O   UNL     1      -7.791  19.704  68.650  1.00  0.00    -0.346 OA 
HETATM   10  C   UNL     1      -6.372  19.550  68.667  1.00  0.00    -0.254 C  
ENDBRANCH   4   9
BRANCH   8  11
HETATM   11  C   UNL     1      -7.850  14.830  69.271  1.00  0.00    -0.122 C  
BRANCH  11  12
HETATM   12  C   UNL     1      -7.433  14.092  68.012  1.00  0.00    -0.141 C  
BRANCH  12  13
HETATM   13  O   UNL     1      -7.778  12.709  68.112  1.00  0.00    -0.122 OA 
BRANCH  13  14
HETATM   14  C   UNL     1      -8.994  12.315  67.444  1.00  0.00    -0.183 C  
HETATM   15  C   UNL     1      -9.488  13.433  66.512  1.00  0.00    -0.252 C  
HETATM   16  C   UNL     1     -10.888  13.186  65.971  1.00  0.00    -0.287 C  
HETATM   17  C   UNL     1     -11.852  12.923  67.117  1.00  0.00    -0.424 C  
HETATM   18  C   UNL     1     -11.458  11.635  67.836  1.00  0.00    -0.381 C  
HETATM   19  C   UNL     1     -10.054  11.748  68.449  1.00  0.00    -0.201 C  
BRANCH  19  20
HETATM   20  N   UNL     1      -9.504  10.553  69.131  1.00  0.00    -0.201 NA 
HETATM   21  C   UNL     1      -9.039   9.463  68.271  1.00  0.00    -0.128 C  
HETATM   22  C   UNL     1     -10.224   8.523  68.119  1.00  0.00    -0.254 C  
HETATM   23  C   UNL     1     -11.019   8.706  69.405  1.00  0.00    -0.019 C  
HETATM   24  C   UNL     1     -10.401   9.924  70.102  1.00  0.00    -0.282 C  
HETATM   25  O   UNL     1     -10.914   7.536  70.210  1.00  0.00    -0.247 OA 
HETATM   26  H   UNL     1     -11.410   7.651  71.013  1.00  0.00     0.000 HD 
ENDBRANCH  19  20
ENDBRANCH  13  14
ENDBRANCH  12  13
ENDBRANCH  11  12
ENDBRANCH   8  11
ENDBRANCH   2   3
TORSDOF 7
ENDMDL
MODEL      151
REMARK 921   NORMALIZED FREE ENERGY PREDICTED BY IDOCK:   -4.46 KCAL/MOL
REMARK 922        TOTAL FREE ENERGY PREDICTED BY IDOCK:   -7.21 KCAL/MOL
REMARK 923 INTER-LIGAND FREE ENERGY PREDICTED BY IDOCK:   -6.61 KCAL/MOL
REMARK 924 INTRA-LIGAND FREE ENERGY PREDICTED BY IDOCK:   -0.60 KCAL/MOL
REMARK 927      BINDING AFFINITY PREDICTED BY RF-SCORE:    0.00 PKD
ROOT
HETATM    1  C   UNL     1     -12.854  16.028  73.688  1.00  0.00    -0.595 C  
HETATM    2  O   UNL     1     -13.694  15.524  72.660  1.00  0.00    -0.508 OA 
ENDROOT
BRANCH   2   3
HETATM    3  C   UNL     1     -13.220  14.462  71.935  1.00  0.00    -0.365 A  
HETATM    4  C   UNL     1     -12.535  14.497  70.713  1.00  0.00    -0.351 A  
HETATM    5  C   UNL     1     -12.158  13.291  70.109  1.00  0.00    -0.403 A  
HETATM    6  C   UNL     1     -13.561  13.223  72.496  1.00  0.00    -0.637 A  
HETATM    7  C   UNL     1     -13.219  12.025  71.865  1.00  0.00    -0.469 A  
HETATM    8  C   UNL     1     -12.548  12.062  70.647  1.00  0.00    -0.255 A  
BRANCH   4   9
HETATM    9  O   UNL     1     -12.240  15.701  70.126  1.00  0.00    -0.379 OA 
HETATM   10  C   UNL     1     -11.577  15.608  68.865  1.00  0.00    -0.383 C  
ENDBRANCH   4   9
BRANCH   8  11
HETATM   11  C   UNL     1     -12.248  10.793  69.901  1.00  0.00    -0.384 C  
BRANCH  11  12
HETATM   12  C   UNL     1     -11.175  10.970  68.842  1.00  0.00    -0.265 C  
BRANCH  12  13
HETATM   13  O   UNL     1      -9.986  10.273  69.220  1.00  0.00    -0.205 OA 
BRANCH  13  14
HETATM   14  C   UNL     1      -9.165   9.796  68.135  1.00  0.00    -0.128 C  
HETATM   15  C   UNL     1     -10.027   9.464  66.907  1.00  0.00    -0.293 C  
HETATM   16  C   UNL     1      -9.261   8.725  65.820  1.00  0.00    -0.269 C  
HETATM   17  C   UNL     1      -8.588   7.492  66.402  1.00  0.00    -0.145 C  
HETATM   18  C   UNL     1      -7.539   7.914  67.427  1.00  0.00    -0.097 C  
HETATM   19  C   UNL     1      -8.181   8.669  68.601  1.00  0.00    -0.121 C  
BRANCH  19  20
HETATM   20  N   UNL     1      -7.280   9.198  69.653  1.00  0.00    -0.058 NA 
HETATM   21  C   UNL     1      -5.871   8.811  69.565  1.00  0.00    -0.033 C  
HETATM   22  C   UNL     1      -5.731   7.564  70.423  1.00  0.00    -0.023 C  
HETATM   23  C   UNL     1      -6.814   7.713  71.485  1.00  0.00    -0.049 C  
HETATM   24  C   UNL     1      -7.682   8.890  71.027  1.00  0.00    -0.132 C  
HETATM   25  O   UNL     1      -6.218   7.968  72.752  1.00  0.00    -0.061 OA 
HETATM   26  H   UNL     1      -6.893   8.061  73.414  1.00  0.00     0.000 HD 
ENDBRANCH  19  20
ENDBRANCH  13  14
ENDBRANCH  12  13
ENDBRANCH  11  12
ENDBRANCH   8  11
ENDBRANCH   2   3
TORSDOF 7
ENDMDL
MODEL      152
REMARK 921   NORMALIZED FREE ENERGY PREDICTED BY IDOCK:   -4.46 KCAL/MOL
REMARK 922        TOTAL FREE ENERGY PREDICTED BY IDOCK:   -7.21 KCAL/MOL
REMARK 923 INTER-LIGAND FREE ENERGY PREDICTED BY IDOCK:   -6.60 KCAL/MOL
REMARK 924 INTRA-LIGAND FREE ENERGY PREDICTED BY IDOCK:   -0.61 KCAL/MOL
REMARK 927      BINDING AFFINITY PREDICTED BY RF-SCORE:    0.00 PKD
ROOT
HETATM    1  C   UNL     1      -7.752   8.593  64.050  1.00  0.00    -0.134 C  
HETATM    2  O   UNL     1      -7.306   8.208  65.342  1.00  0.00    -0.066 OA 
ENDROOT
BRANCH   2   3
HETATM    3  C   UNL     1      -8.054   8.631  66.409  1.00  0.00    -0.100 A  
HETATM    4  C   UNL     1      -9.216   8.042  66.927  1.00  0.00    -0.154 A  
HETATM    5  C   UNL     1      -9.860   8.648  68.013  1.00  0.00    -0.201 A  
HETATM    6  C   UNL     1      -7.597   9.840  66.952  1.00  0.00    -0.095 A  
HETATM    7  C   UNL     1      -8.270  10.460  68.006  1.00  0.00    -0.114 A  
HETATM    8  C   UNL     1      -9.429   9.879  68.512  1.00  0.00    -0.149 A  
BRANCH   4   9
HETATM    9  O   UNL     1      -9.705   6.886  66.374  1.00  0.00    -0.153 OA 
HETATM   10  C   UNL     1     -10.963   6.458  66.894  1.00  0.00    -0.341 C  
ENDBRANCH   4   9
BRANCH   8  11
HETATM   11  C   UNL     1     -10.223  10.570  69.585  1.00  0.00    -0.207 C  
BRANCH  11  12
HETATM   12  C   UNL     1     -11.695  10.200  69.558  1.00  0.00    -0.061 C  
BRANCH  12  13
HETATM   13  O   UNL     1     -12.467  11.280  69.030  1.00  0.00    -0.417 OA 
BRANCH  13  14
HETATM   14  C   UNL     1     -11.739  12.489  68.736  1.00  0.00    -0.327 C  
HETATM   15  C   UNL     1     -11.663  13.392  69.977  1.00  0.00    -0.297 C  
HETATM   16  C   UNL     1     -11.130  14.784  69.673  1.00  0.00    -0.299 C  
HETATM   17  C   UNL     1     -11.935  15.417  68.548  1.00  0.00    -0.205 C  
HETATM   18  C   UNL     1     -11.742  14.615  67.264  1.00  0.00    -0.406 C  
HETATM   19  C   UNL     1     -12.253  13.176  67.425  1.00  0.00    -0.140 C  
BRANCH  19  20
HETATM   20  N   UNL     1     -12.080  12.252  66.279  1.00  0.00    -0.620 NA 
HETATM   21  C   UNL     1     -10.703  11.932  65.897  1.00  0.00    -0.284 C  
HETATM   22  C   UNL     1     -10.327  12.938  64.822  1.00  0.00    -0.345 C  
HETATM   23  C   UNL     1     -11.650  13.284  64.150  1.00  0.00    -0.405 C  
HETATM   24  C   UNL     1     -12.737  12.671  65.039  1.00  0.00    -0.324 C  
HETATM   25  O   UNL     1     -11.683  12.739  62.835  1.00  0.00    -0.762 OA 
HETATM   26  H   UNL     1     -12.508  12.955  62.417  1.00  0.00     0.000 HD 
ENDBRANCH  19  20
ENDBRANCH  13  14
ENDBRANCH  12  13
ENDBRANCH  11  12
ENDBRANCH   8  11
ENDBRANCH   2   3
TORSDOF 7
ENDMDL
MODEL      153
REMARK 921   NORMALIZED FREE ENERGY PREDICTED BY IDOCK:   -4.45 KCAL/MOL
REMARK 922        TOTAL FREE ENERGY PREDICTED BY IDOCK:   -7.20 KCAL/MOL
REMARK 923 INTER-LIGAND FREE ENERGY PREDICTED BY IDOCK:   -6.92 KCAL/MOL
REMARK 924 INTRA-LIGAND FREE ENERGY PREDICTED BY IDOCK:   -0.28 KCAL/MOL
REMARK 927      BINDING AFFINITY PREDICTED BY RF-SCORE:    0.00 PKD
ROOT
HETATM    1  C   UNL     1     -13.813   7.156  71.403  1.00  0.00    -0.251 C  
HETATM    2  O   UNL     1     -12.418   7.030  71.634  1.00  0.00    -0.341 OA 
ENDROOT
BRANCH   2   3
HETATM    3  C   UNL     1     -11.588   7.796  70.858  1.00  0.00    -0.274 A  
HETATM    4  C   UNL     1     -10.728   7.364  69.839  1.00  0.00    -0.243 A  
HETATM    5  C   UNL     1      -9.929   8.306  69.177  1.00  0.00    -0.196 A  
HETATM    6  C   UNL     1     -11.589   9.149  71.227  1.00  0.00    -0.401 A  
HETATM    7  C   UNL     1     -10.758  10.073  70.592  1.00  0.00    -0.325 A  
HETATM    8  C   UNL     1      -9.897   9.640  69.588  1.00  0.00    -0.233 A  
BRANCH   4   9
HETATM    9  O   UNL     1     -10.678   6.035  69.500  1.00  0.00    -0.264 OA 
HETATM   10  C   UNL     1     -10.711   5.772  68.098  1.00  0.00    -0.209 C  
ENDBRANCH   4   9
BRANCH   8  11
HETATM   11  C   UNL     1      -8.928  10.594  68.949  1.00  0.00    -0.172 C  
BRANCH  11  12
HETATM   12  C   UNL     1      -9.600  11.574  68.004  1.00  0.00    -0.180 C  
BRANCH  12  13
HETATM   13  O   UNL     1     -10.451  12.460  68.732  1.00  0.00    -0.218 OA 
BRANCH  13  14
HETATM   14  C   UNL     1     -10.373  13.852  68.363  1.00  0.00    -0.249 C  
HETATM   15  C   UNL     1      -8.991  14.180  67.776  1.00  0.00    -0.187 C  
HETATM   16  C   UNL     1      -8.755  15.673  67.598  1.00  0.00    -0.182 C  
HETATM   17  C   UNL     1      -9.013  16.401  68.909  1.00  0.00    -0.256 C  
HETATM   18  C   UNL     1     -10.483  16.262  69.295  1.00  0.00    -0.285 C  
HETATM   19  C   UNL     1     -10.862  14.790  69.519  1.00  0.00    -0.250 C  
BRANCH  19  20
HETATM   20  N   UNL     1     -12.276  14.485  69.843  1.00  0.00    -0.327 NA 
HETATM   21  C   UNL     1     -13.048  15.554  70.480  1.00  0.00    -0.215 C  
HETATM   22  C   UNL     1     -12.916  15.323  71.977  1.00  0.00    -0.455 C  
HETATM   23  C   UNL     1     -12.717  13.819  72.110  1.00  0.00    -0.196 C  
HETATM   24  C   UNL     1     -12.479  13.306  70.686  1.00  0.00    -0.298 C  
HETATM   25  O   UNL     1     -13.875  13.227  72.691  1.00  0.00    -0.712 OA 
HETATM   26  H   UNL     1     -13.751  12.289  72.774  1.00  0.00     0.000 HD 
ENDBRANCH  19  20
ENDBRANCH  13  14
ENDBRANCH  12  13
ENDBRANCH  11  12
ENDBRANCH   8  11
ENDBRANCH   2   3
TORSDOF 7
ENDMDL
MODEL      154
REMARK 921   NORMALIZED FREE ENERGY PREDICTED BY IDOCK:   -4.44 KCAL/MOL
REMARK 922        TOTAL FREE ENERGY PREDICTED BY IDOCK:   -7.18 KCAL/MOL
REMARK 923 INTER-LIGAND FREE ENERGY PREDICTED BY IDOCK:   -6.93 KCAL/MOL
REMARK 924 INTRA-LIGAND FREE ENERGY PREDICTED BY IDOCK:   -0.25 KCAL/MOL
REMARK 927      BINDING AFFINITY PREDICTED BY RF-SCORE:    0.00 PKD
ROOT
HETATM    1  C   UNL     1     -10.982   5.937  72.931  1.00  0.00    -0.268 C  
HETATM    2  O   UNL     1     -11.615   5.874  71.662  1.00  0.00    -0.241 OA 
ENDROOT
BRANCH   2   3
HETATM    3  C   UNL     1     -11.299   6.859  70.762  1.00  0.00    -0.310 A  
HETATM    4  C   UNL     1     -10.756   6.705  69.479  1.00  0.00    -0.260 A  
HETATM    5  C   UNL     1     -10.472   7.847  68.719  1.00  0.00    -0.198 A  
HETATM    6  C   UNL     1     -11.493   8.150  71.275  1.00  0.00    -0.299 A  
HETATM    7  C   UNL     1     -11.167   9.282  70.527  1.00  0.00    -0.315 A  
HETATM    8  C   UNL     1     -10.618   9.127  69.258  1.00  0.00    -0.229 A  
BRANCH   4   9
HETATM    9  O   UNL     1     -10.512   5.450  68.983  1.00  0.00    -0.218 OA 
HETATM   10  C   UNL     1      -9.214   4.932  69.274  1.00  0.00    -0.110 C  
ENDBRANCH   4   9
BRANCH   8  11
HETATM   11  C   UNL     1     -10.173  10.325  68.466  1.00  0.00    -0.192 C  
BRANCH  11  12
HETATM   12  C   UNL     1     -11.163  10.718  67.385  1.00  0.00    -0.241 C  
BRANCH  12  13
HETATM   13  O   UNL     1     -11.833  11.927  67.743  1.00  0.00    -0.518 OA 
BRANCH  13  14
HETATM   14  C   UNL     1     -12.070  12.858  66.668  1.00  0.00    -0.289 C  
HETATM   15  C   UNL     1     -11.690  12.233  65.316  1.00  0.00    -0.413 C  
HETATM   16  C   UNL     1     -11.677  13.238  64.174  1.00  0.00    -0.470 C  
HETATM   17  C   UNL     1     -10.793  14.423  64.531  1.00  0.00    -0.271 C  
HETATM   18  C   UNL     1     -11.386  15.166  65.725  1.00  0.00    -0.238 C  
HETATM   19  C   UNL     1     -11.448  14.265  66.966  1.00  0.00    -0.361 C  
BRANCH  19  20
HETATM   20  N   UNL     1     -12.057  14.827  68.195  1.00  0.00    -0.209 NA 
HETATM   21  C   UNL     1     -11.765  16.232  68.487  1.00  0.00    -0.083 C  
HETATM   22  C   UNL     1     -10.546  16.220  69.397  1.00  0.00    -0.301 C  
HETATM   23  C   UNL     1     -10.641  14.892  70.137  1.00  0.00    -0.040 C  
HETATM   24  C   UNL     1     -11.747  14.103  69.429  1.00  0.00    -0.313 C  
HETATM   25  O   UNL     1     -10.960  15.122  71.506  1.00  0.00    -0.547 OA 
HETATM   26  H   UNL     1     -11.019  14.294  71.967  1.00  0.00     0.000 HD 
ENDBRANCH  19  20
ENDBRANCH  13  14
ENDBRANCH  12  13
ENDBRANCH  11  12
ENDBRANCH   8  11
ENDBRANCH   2   3
TORSDOF 7
ENDMDL
MODEL      155
REMARK 921   NORMALIZED FREE ENERGY PREDICTED BY IDOCK:   -4.43 KCAL/MOL
REMARK 922        TOTAL FREE ENERGY PREDICTED BY IDOCK:   -7.17 KCAL/MOL
REMARK 923 INTER-LIGAND FREE ENERGY PREDICTED BY IDOCK:   -6.59 KCAL/MOL
REMARK 924 INTRA-LIGAND FREE ENERGY PREDICTED BY IDOCK:   -0.58 KCAL/MOL
REMARK 927      BINDING AFFINITY PREDICTED BY RF-SCORE:    0.00 PKD
ROOT
HETATM    1  C   UNL     1     -11.937  16.325  68.729  1.00  0.00     0.139 C  
HETATM    2  O   UNL     1     -10.897  16.920  67.967  1.00  0.00    -0.363 OA 
ENDROOT
BRANCH   2   3
HETATM    3  C   UNL     1      -9.737  16.202  67.833  1.00  0.00    -0.225 A  
HETATM    4  C   UNL     1      -8.737  16.365  66.865  1.00  0.00    -0.204 A  
HETATM    5  C   UNL     1      -7.632  15.503  66.876  1.00  0.00    -0.162 A  
HETATM    6  C   UNL     1      -9.637  15.149  68.754  1.00  0.00    -0.219 A  
HETATM    7  C   UNL     1      -8.554  14.269  68.730  1.00  0.00    -0.101 A  
HETATM    8  C   UNL     1      -7.567  14.425  67.762  1.00  0.00    -0.175 A  
BRANCH   4   9
HETATM    9  O   UNL     1      -8.846  17.358  65.925  1.00  0.00    -0.526 OA 
HETATM   10  C   UNL     1      -8.389  18.641  66.352  1.00  0.00    -0.276 C  
ENDBRANCH   4   9
BRANCH   8  11
HETATM   11  C   UNL     1      -6.438  13.439  67.655  1.00  0.00    -0.169 C  
BRANCH  11  12
HETATM   12  C   UNL     1      -6.831  12.169  66.924  1.00  0.00     0.007 C  
BRANCH  12  13
HETATM   13  O   UNL     1      -8.100  11.704  67.385  1.00  0.00    -0.138 OA 
BRANCH  13  14
HETATM   14  C   UNL     1      -8.811  10.824  66.492  1.00  0.00    -0.155 C  
HETATM   15  C   UNL     1      -8.005   9.540  66.241  1.00  0.00    -0.107 C  
HETATM   16  C   UNL     1      -8.575   8.683  65.121  1.00  0.00    -0.200 C  
HETATM   17  C   UNL     1      -8.740   9.517  63.859  1.00  0.00    -0.238 C  
HETATM   18  C   UNL     1      -9.771  10.617  64.100  1.00  0.00    -0.378 C  
HETATM   19  C   UNL     1      -9.314  11.573  65.211  1.00  0.00    -0.137 C  
BRANCH  19  20
HETATM   20  N   UNL     1     -10.238  12.663  65.604  1.00  0.00    -0.271 NA 
HETATM   21  C   UNL     1     -11.612  12.272  65.929  1.00  0.00    -0.393 C  
HETATM   22  C   UNL     1     -12.398  12.409  64.634  1.00  0.00    -0.518 C  
HETATM   23  C   UNL     1     -11.671  13.505  63.865  1.00  0.00    -0.368 C  
HETATM   24  C   UNL     1     -10.365  13.750  64.630  1.00  0.00    -0.368 C  
HETATM   25  O   UNL     1     -12.475  14.679  63.819  1.00  0.00    -1.041 OA 
HETATM   26  H   UNL     1     -12.021  15.363  63.339  1.00  0.00     0.000 HD 
ENDBRANCH  19  20
ENDBRANCH  13  14
ENDBRANCH  12  13
ENDBRANCH  11  12
ENDBRANCH   8  11
ENDBRANCH   2   3
TORSDOF 7
ENDMDL
MODEL      156
REMARK 921   NORMALIZED FREE ENERGY PREDICTED BY IDOCK:   -4.41 KCAL/MOL
REMARK 922        TOTAL FREE ENERGY PREDICTED BY IDOCK:   -7.14 KCAL/MOL
REMARK 923 INTER-LIGAND FREE ENERGY PREDICTED BY IDOCK:   -6.37 KCAL/MOL
REMARK 924 INTRA-LIGAND FREE ENERGY PREDICTED BY IDOCK:   -0.77 KCAL/MOL
REMARK 927      BINDING AFFINITY PREDICTED BY RF-SCORE:    0.00 PKD
ROOT
HETATM    1  C   UNL     1     -13.430  15.827  73.441  1.00  0.00    -0.393 C  
HETATM    2  O   UNL     1     -13.828  15.563  72.104  1.00  0.00    -0.478 OA 
ENDROOT
BRANCH   2   3
HETATM    3  C   UNL     1     -13.217  14.513  71.470  1.00  0.00    -0.358 A  
HETATM    4  C   UNL     1     -12.465  14.548  70.287  1.00  0.00    -0.348 A  
HETATM    5  C   UNL     1     -11.944  13.352  69.776  1.00  0.00    -0.396 A  
HETATM    6  C   UNL     1     -13.475  13.279  72.083  1.00  0.00    -0.655 A  
HETATM    7  C   UNL     1     -12.988  12.087  71.543  1.00  0.00    -0.407 A  
HETATM    8  C   UNL     1     -12.251  12.122  70.363  1.00  0.00    -0.378 A  
BRANCH   4   9
HETATM    9  O   UNL     1     -12.247  15.741  69.647  1.00  0.00    -0.336 OA 
HETATM   10  C   UNL     1     -11.715  15.626  68.327  1.00  0.00    -0.242 C  
ENDBRANCH   4   9
BRANCH   8  11
HETATM   11  C   UNL     1     -11.792  10.849  69.711  1.00  0.00    -0.419 C  
BRANCH  11  12
HETATM   12  C   UNL     1     -10.897  11.091  68.509  1.00  0.00    -0.213 C  
BRANCH  12  13
HETATM   13  O   UNL     1      -9.548  11.301  68.931  1.00  0.00    -0.183 OA 
BRANCH  13  14
HETATM   14  C   UNL     1      -8.570  11.413  67.878  1.00  0.00    -0.140 C  
HETATM   15  C   UNL     1      -7.829  10.081  67.683  1.00  0.00    -0.095 C  
HETATM   16  C   UNL     1      -6.620  10.198  66.766  1.00  0.00    -0.073 C  
HETATM   17  C   UNL     1      -5.699  11.305  67.256  1.00  0.00    -0.069 C  
HETATM   18  C   UNL     1      -6.415  12.649  67.162  1.00  0.00    -0.004 C  
HETATM   19  C   UNL     1      -7.663  12.678  68.056  1.00  0.00    -0.139 C  
BRANCH  19  20
HETATM   20  N   UNL     1      -8.501  13.900  68.028  1.00  0.00    -0.162 NA 
HETATM   21  C   UNL     1      -8.388  14.745  66.837  1.00  0.00    -0.151 C  
HETATM   22  C   UNL     1      -7.327  15.782  67.166  1.00  0.00    -0.257 C  
HETATM   23  C   UNL     1      -7.410  15.941  68.679  1.00  0.00    -0.141 C  
HETATM   24  C   UNL     1      -8.318  14.806  69.163  1.00  0.00    -0.104 C  
HETATM   25  O   UNL     1      -7.954  17.217  69.002  1.00  0.00    -0.229 OA 
HETATM   26  H   UNL     1      -8.006  17.316  69.946  1.00  0.00     0.000 HD 
ENDBRANCH  19  20
ENDBRANCH  13  14
ENDBRANCH  12  13
ENDBRANCH  11  12
ENDBRANCH   8  11
ENDBRANCH   2   3
TORSDOF 7
ENDMDL
MODEL      157
REMARK 921   NORMALIZED FREE ENERGY PREDICTED BY IDOCK:   -4.40 KCAL/MOL
REMARK 922        TOTAL FREE ENERGY PREDICTED BY IDOCK:   -7.13 KCAL/MOL
REMARK 923 INTER-LIGAND FREE ENERGY PREDICTED BY IDOCK:   -6.62 KCAL/MOL
REMARK 924 INTRA-LIGAND FREE ENERGY PREDICTED BY IDOCK:   -0.51 KCAL/MOL
REMARK 927      BINDING AFFINITY PREDICTED BY RF-SCORE:    0.00 PKD
ROOT
HETATM    1  C   UNL     1      -6.683   2.104  67.094  1.00  0.00    -0.039 C  
HETATM    2  O   UNL     1      -7.947   1.963  66.464  1.00  0.00    -0.073 OA 
ENDROOT
BRANCH   2   3
HETATM    3  C   UNL     1      -8.762   3.065  66.454  1.00  0.00    -0.133 A  
HETATM    4  C   UNL     1      -9.558   3.532  65.398  1.00  0.00    -0.132 A  
HETATM    5  C   UNL     1     -10.302   4.706  65.575  1.00  0.00    -0.225 A  
HETATM    6  C   UNL     1      -8.686   3.811  67.639  1.00  0.00    -0.121 A  
HETATM    7  C   UNL     1      -9.397   5.003  67.790  1.00  0.00    -0.146 A  
HETATM    8  C   UNL     1     -10.179   5.470  66.737  1.00  0.00    -0.277 A  
BRANCH   4   9
HETATM    9  O   UNL     1      -9.603   2.841  64.214  1.00  0.00    -0.146 OA 
HETATM   10  C   UNL     1     -10.856   2.900  63.533  1.00  0.00    -0.194 C  
ENDBRANCH   4   9
BRANCH   8  11
HETATM   11  C   UNL     1     -10.883   6.794  66.838  1.00  0.00    -0.402 C  
BRANCH  11  12
HETATM   12  C   UNL     1      -9.945   7.936  67.186  1.00  0.00    -0.230 C  
BRANCH  12  13
HETATM   13  O   UNL     1     -10.585   9.191  66.952  1.00  0.00    -0.238 OA 
BRANCH  13  14
HETATM   14  C   UNL     1     -10.608  10.103  68.068  1.00  0.00    -0.231 C  
HETATM   15  C   UNL     1     -10.893   9.352  69.378  1.00  0.00    -0.208 C  
HETATM   16  C   UNL     1     -11.178  10.279  70.550  1.00  0.00    -0.408 C  
HETATM   17  C   UNL     1     -12.290  11.252  70.189  1.00  0.00    -0.354 C  
HETATM   18  C   UNL     1     -11.830  12.160  69.052  1.00  0.00    -0.361 C  
HETATM   19  C   UNL     1     -11.516  11.349  67.785  1.00  0.00    -0.281 C  
BRANCH  19  20
HETATM   20  N   UNL     1     -10.998  12.085  66.608  1.00  0.00    -0.272 NA 
HETATM   21  C   UNL     1     -10.616  13.482  66.825  1.00  0.00    -0.272 C  
HETATM   22  C   UNL     1     -11.848  14.305  66.485  1.00  0.00    -0.433 C  
HETATM   23  C   UNL     1     -12.587  13.469  65.449  1.00  0.00    -0.483 C  
HETATM   24  C   UNL     1     -11.890  12.104  65.446  1.00  0.00    -0.295 C  
HETATM   25  O   UNL     1     -12.509  14.096  64.174  1.00  0.00    -0.668 OA 
HETATM   26  H   UNL     1     -12.970  13.574  63.528  1.00  0.00     0.000 HD 
ENDBRANCH  19  20
ENDBRANCH  13  14
ENDBRANCH  12  13
ENDBRANCH  11  12
ENDBRANCH   8  11
ENDBRANCH   2   3
TORSDOF 7
ENDMDL
MODEL      158
REMARK 921   NORMALIZED FREE ENERGY PREDICTED BY IDOCK:   -4.39 KCAL/MOL
REMARK 922        TOTAL FREE ENERGY PREDICTED BY IDOCK:   -7.10 KCAL/MOL
REMARK 923 INTER-LIGAND FREE ENERGY PREDICTED BY IDOCK:   -6.71 KCAL/MOL
REMARK 924 INTRA-LIGAND FREE ENERGY PREDICTED BY IDOCK:   -0.39 KCAL/MOL
REMARK 927      BINDING AFFINITY PREDICTED BY RF-SCORE:    0.00 PKD
ROOT
HETATM    1  C   UNL     1      -9.859   4.252  70.644  1.00  0.00    -0.195 C  
HETATM    2  O   UNL     1      -9.061   5.225  71.302  1.00  0.00    -0.140 OA 
ENDROOT
BRANCH   2   3
HETATM    3  C   UNL     1      -9.480   6.527  71.225  1.00  0.00    -0.166 A  
HETATM    4  C   UNL     1      -9.496   7.484  72.250  1.00  0.00    -0.153 A  
HETATM    5  C   UNL     1      -9.998   8.764  71.979  1.00  0.00    -0.391 A  
HETATM    6  C   UNL     1     -10.017   6.856  69.972  1.00  0.00    -0.190 A  
HETATM    7  C   UNL     1     -10.554   8.120  69.723  1.00  0.00    -0.231 A  
HETATM    8  C   UNL     1     -10.578   9.065  70.745  1.00  0.00    -0.300 A  
BRANCH   4   9
HETATM    9  O   UNL     1      -9.022   7.162  73.496  1.00  0.00    -0.136 OA 
HETATM   10  C   UNL     1     -10.010   6.682  74.408  1.00  0.00    -0.332 C  
ENDBRANCH   4   9
BRANCH   8  11
HETATM   11  C   UNL     1     -11.231  10.401  70.534  1.00  0.00    -0.395 C  
BRANCH  11  12
HETATM   12  C   UNL     1     -11.495  10.704  69.070  1.00  0.00    -0.274 C  
BRANCH  12  13
HETATM   13  O   UNL     1     -10.588  11.701  68.599  1.00  0.00    -0.197 OA 
BRANCH  13  14
HETATM   14  C   UNL     1     -11.116  12.623  67.625  1.00  0.00    -0.263 C  
HETATM   15  C   UNL     1     -11.675  11.867  66.409  1.00  0.00    -0.232 C  
HETATM   16  C   UNL     1     -12.017  12.780  65.242  1.00  0.00    -0.473 C  
HETATM   17  C   UNL     1     -10.816  13.642  64.883  1.00  0.00    -0.382 C  
HETATM   18  C   UNL     1     -10.485  14.572  66.047  1.00  0.00    -0.315 C  
HETATM   19  C   UNL     1     -10.104  13.776  67.304  1.00  0.00    -0.239 C  
BRANCH  19  20
HETATM   20  N   UNL     1      -9.812  14.540  68.539  1.00  0.00    -0.226 NA 
HETATM   21  C   UNL     1     -10.858  14.554  69.565  1.00  0.00    -0.184 C  
HETATM   22  C   UNL     1     -11.690  15.796  69.290  1.00  0.00    -0.384 C  
HETATM   23  C   UNL     1     -10.714  16.767  68.638  1.00  0.00    -0.352 C  
HETATM   24  C   UNL     1      -9.458  15.946  68.331  1.00  0.00    -0.201 C  
HETATM   25  O   UNL     1     -10.430  17.841  69.529  1.00  0.00    -0.360 OA 
HETATM   26  H   UNL     1      -9.822  18.446  69.121  1.00  0.00     0.000 HD 
ENDBRANCH  19  20
ENDBRANCH  13  14
ENDBRANCH  12  13
ENDBRANCH  11  12
ENDBRANCH   8  11
ENDBRANCH   2   3
TORSDOF 7
ENDMDL
MODEL      159
REMARK 921   NORMALIZED FREE ENERGY PREDICTED BY IDOCK:   -4.38 KCAL/MOL
REMARK 922        TOTAL FREE ENERGY PREDICTED BY IDOCK:   -7.09 KCAL/MOL
REMARK 923 INTER-LIGAND FREE ENERGY PREDICTED BY IDOCK:   -6.30 KCAL/MOL
REMARK 924 INTRA-LIGAND FREE ENERGY PREDICTED BY IDOCK:   -0.79 KCAL/MOL
REMARK 927      BINDING AFFINITY PREDICTED BY RF-SCORE:    0.00 PKD
ROOT
HETATM    1  C   UNL     1     -12.591  12.422  63.991  1.00  0.00    -0.412 C  
HETATM    2  O   UNL     1     -12.552  13.023  65.277  1.00  0.00    -0.486 OA 
ENDROOT
BRANCH   2   3
HETATM    3  C   UNL     1     -11.583  12.581  66.139  1.00  0.00    -0.395 A  
HETATM    4  C   UNL     1     -11.480  12.833  67.514  1.00  0.00    -0.336 A  
HETATM    5  C   UNL     1     -10.388  12.314  68.222  1.00  0.00    -0.227 A  
HETATM    6  C   UNL     1     -10.564  11.865  65.494  1.00  0.00    -0.313 A  
HETATM    7  C   UNL     1      -9.457  11.388  66.199  1.00  0.00    -0.237 A  
HETATM    8  C   UNL     1      -9.352  11.649  67.563  1.00  0.00    -0.168 A  
BRANCH   4   9
HETATM    9  O   UNL     1     -12.442  13.576  68.149  1.00  0.00    -0.062 OA 
HETATM   10  C   UNL     1     -12.137  13.923  69.500  1.00  0.00    -0.342 C  
ENDBRANCH   4   9
BRANCH   8  11
HETATM   11  C   UNL     1      -8.130  11.227  68.328  1.00  0.00    -0.137 C  
BRANCH  11  12
HETATM   12  C   UNL     1      -8.419  10.144  69.352  1.00  0.00    -0.171 C  
BRANCH  12  13
HETATM   13  O   UNL     1      -7.619   8.990  69.090  1.00  0.00    -0.071 OA 
BRANCH  13  14
HETATM   14  C   UNL     1      -8.299   7.879  68.472  1.00  0.00    -0.128 C  
HETATM   15  C   UNL     1      -8.412   8.089  66.954  1.00  0.00    -0.124 C  
HETATM   16  C   UNL     1      -9.332   7.084  66.278  1.00  0.00    -0.146 C  
HETATM   17  C   UNL     1     -10.691   7.076  66.962  1.00  0.00    -0.423 C  
HETATM   18  C   UNL     1     -10.539   6.589  68.401  1.00  0.00    -0.296 C  
HETATM   19  C   UNL     1      -9.635   7.528  69.213  1.00  0.00    -0.158 C  
BRANCH  19  20
HETATM   20  N   UNL     1      -9.342   7.156  70.617  1.00  0.00    -0.158 NA 
HETATM   21  C   UNL     1      -9.745   5.812  71.037  1.00  0.00    -0.170 C  
HETATM   22  C   UNL     1     -11.136   5.964  71.629  1.00  0.00    -0.319 C  
HETATM   23  C   UNL     1     -11.163   7.388  72.170  1.00  0.00    -0.262 C  
HETATM   24  C   UNL     1      -9.896   8.059  71.628  1.00  0.00    -0.170 C  
HETATM   25  O   UNL     1     -11.172   7.366  73.594  1.00  0.00    -0.588 OA 
HETATM   26  H   UNL     1     -11.189   8.254  73.930  1.00  0.00     0.000 HD 
ENDBRANCH  19  20
ENDBRANCH  13  14
ENDBRANCH  12  13
ENDBRANCH  11  12
ENDBRANCH   8  11
ENDBRANCH   2   3
TORSDOF 7
ENDMDL
MODEL      160
REMARK 921   NORMALIZED FREE ENERGY PREDICTED BY IDOCK:   -4.35 KCAL/MOL
REMARK 922        TOTAL FREE ENERGY PREDICTED BY IDOCK:   -7.06 KCAL/MOL
REMARK 923 INTER-LIGAND FREE ENERGY PREDICTED BY IDOCK:   -6.27 KCAL/MOL
REMARK 924 INTRA-LIGAND FREE ENERGY PREDICTED BY IDOCK:   -0.78 KCAL/MOL
REMARK 927      BINDING AFFINITY PREDICTED BY RF-SCORE:    0.00 PKD
ROOT
HETATM    1  C   UNL     1     -10.413   6.283  72.850  1.00  0.00    -0.218 C  
HETATM    2  O   UNL     1     -11.239   7.367  73.249  1.00  0.00    -0.324 OA 
ENDROOT
BRANCH   2   3
HETATM    3  C   UNL     1     -11.478   8.341  72.316  1.00  0.00    -0.384 A  
HETATM    4  C   UNL     1     -12.721   8.815  71.871  1.00  0.00    -0.374 A  
HETATM    5  C   UNL     1     -12.758   9.801  70.877  1.00  0.00    -0.329 A  
HETATM    6  C   UNL     1     -10.306   8.825  71.717  1.00  0.00    -0.413 A  
HETATM    7  C   UNL     1     -10.353   9.776  70.697  1.00  0.00    -0.330 A  
HETATM    8  C   UNL     1     -11.588  10.237  70.250  1.00  0.00    -0.396 A  
BRANCH   4   9
HETATM    9  O   UNL     1     -13.879   8.314  72.410  1.00  0.00    -0.252 OA 
HETATM   10  C   UNL     1     -14.388   7.149  71.761  1.00  0.00    -0.354 C  
ENDBRANCH   4   9
BRANCH   8  11
HETATM   11  C   UNL     1     -11.674  11.193  69.094  1.00  0.00    -0.408 C  
BRANCH  11  12
HETATM   12  C   UNL     1     -10.447  11.149  68.200  1.00  0.00    -0.189 C  
BRANCH  12  13
HETATM   13  O   UNL     1     -10.635  10.200  67.149  1.00  0.00    -0.244 OA 
BRANCH  13  14
HETATM   14  C   UNL     1      -9.493   9.970  66.299  1.00  0.00    -0.191 C  
HETATM   15  C   UNL     1      -9.600  10.801  65.011  1.00  0.00    -0.305 C  
HETATM   16  C   UNL     1      -8.563  10.420  63.965  1.00  0.00    -0.179 C  
HETATM   17  C   UNL     1      -8.621   8.925  63.693  1.00  0.00    -0.103 C  
HETATM   18  C   UNL     1      -8.232   8.157  64.953  1.00  0.00    -0.150 C  
HETATM   19  C   UNL     1      -9.212   8.441  66.101  1.00  0.00    -0.205 C  
BRANCH  19  20
HETATM   20  N   UNL     1      -8.933   7.813  67.414  1.00  0.00    -0.123 NA 
HETATM   21  C   UNL     1      -8.026   6.663  67.412  1.00  0.00    -0.114 C  
HETATM   22  C   UNL     1      -8.916   5.436  67.294  1.00  0.00    -0.111 C  
HETATM   23  C   UNL     1     -10.229   5.857  67.943  1.00  0.00    -0.184 C  
HETATM   24  C   UNL     1     -10.117   7.371  68.155  1.00  0.00    -0.179 C  
HETATM   25  O   UNL     1     -10.402   5.169  69.177  1.00  0.00    -0.213 OA 
HETATM   26  H   UNL     1     -11.221   5.432  69.581  1.00  0.00     0.000 HD 
ENDBRANCH  19  20
ENDBRANCH  13  14
ENDBRANCH  12  13
ENDBRANCH  11  12
ENDBRANCH   8  11
ENDBRANCH   2   3
TORSDOF 7
ENDMDL
MODEL      161
REMARK 921   NORMALIZED FREE ENERGY PREDICTED BY IDOCK:   -4.34 KCAL/MOL
REMARK 922        TOTAL FREE ENERGY PREDICTED BY IDOCK:   -7.04 KCAL/MOL
REMARK 923 INTER-LIGAND FREE ENERGY PREDICTED BY IDOCK:   -6.83 KCAL/MOL
REMARK 924 INTRA-LIGAND FREE ENERGY PREDICTED BY IDOCK:   -0.21 KCAL/MOL
REMARK 927      BINDING AFFINITY PREDICTED BY RF-SCORE:    0.00 PKD
ROOT
HETATM    1  C   UNL     1     -10.101   4.103  72.644  1.00  0.00    -0.165 C  
HETATM    2  O   UNL     1     -10.268   3.763  71.275  1.00  0.00    -0.067 OA 
ENDROOT
BRANCH   2   3
HETATM    3  C   UNL     1     -10.119   4.774  70.362  1.00  0.00    -0.231 A  
HETATM    4  C   UNL     1     -10.876   5.949  70.254  1.00  0.00    -0.320 A  
HETATM    5  C   UNL     1     -10.587   6.853  69.223  1.00  0.00    -0.250 A  
HETATM    6  C   UNL     1      -9.130   4.504  69.405  1.00  0.00    -0.167 A  
HETATM    7  C   UNL     1      -8.878   5.390  68.356  1.00  0.00    -0.102 A  
HETATM    8  C   UNL     1      -9.637   6.551  68.244  1.00  0.00    -0.131 A  
BRANCH   4   9
HETATM    9  O   UNL     1     -11.881   6.203  71.152  1.00  0.00    -0.244 OA 
HETATM   10  C   UNL     1     -12.067   7.582  71.470  1.00  0.00    -0.316 C  
ENDBRANCH   4   9
BRANCH   8  11
HETATM   11  C   UNL     1      -9.450   7.477  67.076  1.00  0.00    -0.206 C  
BRANCH  11  12
HETATM   12  C   UNL     1     -10.632   8.405  66.864  1.00  0.00    -0.215 C  
BRANCH  12  13
HETATM   13  O   UNL     1     -10.202   9.620  66.247  1.00  0.00    -0.260 OA 
BRANCH  13  14
HETATM   14  C   UNL     1     -10.194  10.787  67.094  1.00  0.00    -0.213 C  
HETATM   15  C   UNL     1     -10.103  10.383  68.574  1.00  0.00    -0.186 C  
HETATM   16  C   UNL     1     -10.340  11.544  69.528  1.00  0.00     0.203 C  
HETATM   17  C   UNL     1     -11.657  12.229  69.197  1.00  0.00    -0.373 C  
HETATM   18  C   UNL     1     -11.579  12.852  67.806  1.00  0.00    -0.391 C  
HETATM   19  C   UNL     1     -11.351  11.780  66.730  1.00  0.00    -0.320 C  
BRANCH  19  20
HETATM   20  N   UNL     1     -11.192  12.236  65.329  1.00  0.00    -0.318 NA 
HETATM   21  C   UNL     1     -10.145  13.229  65.077  1.00  0.00    -0.227 C  
HETATM   22  C   UNL     1     -10.829  14.584  65.177  1.00  0.00    -0.407 C  
HETATM   23  C   UNL     1     -12.270  14.310  64.767  1.00  0.00    -0.443 C  
HETATM   24  C   UNL     1     -12.402  12.785  64.713  1.00  0.00    -0.478 C  
HETATM   25  O   UNL     1     -12.534  14.902  63.499  1.00  0.00    -1.001 OA 
HETATM   26  H   UNL     1     -13.433  14.731  63.244  1.00  0.00     0.000 HD 
ENDBRANCH  19  20
ENDBRANCH  13  14
ENDBRANCH  12  13
ENDBRANCH  11  12
ENDBRANCH   8  11
ENDBRANCH   2   3
TORSDOF 7
ENDMDL
MODEL      162
REMARK 921   NORMALIZED FREE ENERGY PREDICTED BY IDOCK:   -4.33 KCAL/MOL
REMARK 922        TOTAL FREE ENERGY PREDICTED BY IDOCK:   -7.02 KCAL/MOL
REMARK 923 INTER-LIGAND FREE ENERGY PREDICTED BY IDOCK:   -6.34 KCAL/MOL
REMARK 924 INTRA-LIGAND FREE ENERGY PREDICTED BY IDOCK:   -0.68 KCAL/MOL
REMARK 927      BINDING AFFINITY PREDICTED BY RF-SCORE:    0.00 PKD
ROOT
HETATM    1  C   UNL     1      -5.787  17.441  70.292  1.00  0.00    -0.118 C  
HETATM    2  O   UNL     1      -5.768  17.406  68.872  1.00  0.00    -0.156 OA 
ENDROOT
BRANCH   2   3
HETATM    3  C   UNL     1      -6.893  16.935  68.248  1.00  0.00    -0.164 A  
HETATM    4  C   UNL     1      -7.052  15.715  67.575  1.00  0.00    -0.186 A  
HETATM    5  C   UNL     1      -8.282  15.428  66.968  1.00  0.00    -0.270 A  
HETATM    6  C   UNL     1      -7.948  17.859  68.251  1.00  0.00    -0.292 A  
HETATM    7  C   UNL     1      -9.155  17.582  67.607  1.00  0.00    -0.243 A  
HETATM    8  C   UNL     1      -9.307  16.375  66.930  1.00  0.00    -0.244 A  
BRANCH   4   9
HETATM    9  O   UNL     1      -6.013  14.822  67.518  1.00  0.00    -0.328 OA 
HETATM   10  C   UNL     1      -6.402  13.449  67.503  1.00  0.00    -0.101 C  
ENDBRANCH   4   9
BRANCH   8  11
HETATM   11  C   UNL     1     -10.560  16.088  66.153  1.00  0.00    -0.302 C  
BRANCH  11  12
HETATM   12  C   UNL     1     -11.579  15.293  66.949  1.00  0.00    -0.067 C  
BRANCH  12  13
HETATM   13  O   UNL     1     -12.040  14.176  66.187  1.00  0.00    -0.405 OA 
BRANCH  13  14
HETATM   14  C   UNL     1     -11.024  13.260  65.734  1.00  0.00    -0.270 C  
HETATM   15  C   UNL     1     -10.980  13.214  64.199  1.00  0.00    -0.418 C  
HETATM   16  C   UNL     1     -10.108  12.090  63.658  1.00  0.00    -0.439 C  
HETATM   17  C   UNL     1     -10.535  10.761  64.264  1.00  0.00    -0.330 C  
HETATM   18  C   UNL     1     -10.291  10.780  65.770  1.00  0.00    -0.295 C  
HETATM   19  C   UNL     1     -11.126  11.872  66.455  1.00  0.00    -0.309 C  
BRANCH  19  20
HETATM   20  N   UNL     1     -10.953  12.056  67.915  1.00  0.00    -0.208 NA 
HETATM   21  C   UNL     1      -9.576  12.114  68.410  1.00  0.00    -0.186 C  
HETATM   22  C   UNL     1      -9.217  10.689  68.799  1.00  0.00    -0.182 C  
HETATM   23  C   UNL     1     -10.547  10.057  69.187  1.00  0.00    -0.218 C  
HETATM   24  C   UNL     1     -11.623  11.057  68.750  1.00  0.00    -0.318 C  
HETATM   25  O   UNL     1     -10.585   9.832  70.593  1.00  0.00    -0.292 OA 
HETATM   26  H   UNL     1     -11.415   9.438  70.835  1.00  0.00     0.000 HD 
ENDBRANCH  19  20
ENDBRANCH  13  14
ENDBRANCH  12  13
ENDBRANCH  11  12
ENDBRANCH   8  11
ENDBRANCH   2   3
TORSDOF 7
ENDMDL
MODEL      163
REMARK 921   NORMALIZED FREE ENERGY PREDICTED BY IDOCK:   -4.31 KCAL/MOL
REMARK 922        TOTAL FREE ENERGY PREDICTED BY IDOCK:   -7.00 KCAL/MOL
REMARK 923 INTER-LIGAND FREE ENERGY PREDICTED BY IDOCK:   -6.49 KCAL/MOL
REMARK 924 INTRA-LIGAND FREE ENERGY PREDICTED BY IDOCK:   -0.51 KCAL/MOL
REMARK 927      BINDING AFFINITY PREDICTED BY RF-SCORE:    0.00 PKD
ROOT
HETATM    1  C   UNL     1     -13.013  14.105  65.282  1.00  0.00    -0.237 C  
HETATM    2  O   UNL     1     -12.641  12.741  65.415  1.00  0.00    -0.607 OA 
ENDROOT
BRANCH   2   3
HETATM    3  C   UNL     1     -11.452  12.480  66.043  1.00  0.00    -0.377 A  
HETATM    4  C   UNL     1     -10.276  11.972  65.473  1.00  0.00    -0.258 A  
HETATM    5  C   UNL     1      -9.165  11.742  66.296  1.00  0.00    -0.227 A  
HETATM    6  C   UNL     1     -11.507  12.694  67.428  1.00  0.00    -0.397 A  
HETATM    7  C   UNL     1     -10.410  12.422  68.246  1.00  0.00    -0.232 A  
HETATM    8  C   UNL     1      -9.247  11.907  67.681  1.00  0.00    -0.183 A  
BRANCH   4   9
HETATM    9  O   UNL     1     -10.222  11.709  64.128  1.00  0.00    -0.276 OA 
HETATM   10  C   UNL     1      -9.633  10.455  63.786  1.00  0.00    -0.310 C  
ENDBRANCH   4   9
BRANCH   8  11
HETATM   11  C   UNL     1      -8.083  11.519  68.548  1.00  0.00    -0.146 C  
BRANCH  11  12
HETATM   12  C   UNL     1      -8.433  10.442  69.558  1.00  0.00    -0.100 C  
BRANCH  12  13
HETATM   13  O   UNL     1      -9.672   9.822  69.212  1.00  0.00    -0.175 OA 
BRANCH  13  14
HETATM   14  C   UNL     1      -9.582   8.476  68.703  1.00  0.00    -0.149 C  
HETATM   15  C   UNL     1     -10.251   8.372  67.324  1.00  0.00    -0.349 C  
HETATM   16  C   UNL     1     -10.413   6.938  66.843  1.00  0.00    -0.349 C  
HETATM   17  C   UNL     1     -11.134   6.113  67.898  1.00  0.00    -0.311 C  
HETATM   18  C   UNL     1     -10.279   6.028  69.159  1.00  0.00    -0.258 C  
HETATM   19  C   UNL     1     -10.043   7.419  69.765  1.00  0.00    -0.193 C  
BRANCH  19  20
HETATM   20  N   UNL     1      -9.177   7.509  70.964  1.00  0.00    -0.152 NA 
HETATM   21  C   UNL     1      -8.650   6.247  71.488  1.00  0.00    -0.131 C  
HETATM   22  C   UNL     1      -9.642   5.792  72.546  1.00  0.00    -0.168 C  
HETATM   23  C   UNL     1     -10.252   7.086  73.073  1.00  0.00    -0.233 C  
HETATM   24  C   UNL     1      -9.779   8.185  72.115  1.00  0.00    -0.244 C  
HETATM   25  O   UNL     1      -9.804   7.325  74.403  1.00  0.00    -0.431 OA 
HETATM   26  H   UNL     1     -10.184   8.132  74.731  1.00  0.00     0.000 HD 
ENDBRANCH  19  20
ENDBRANCH  13  14
ENDBRANCH  12  13
ENDBRANCH  11  12
ENDBRANCH   8  11
ENDBRANCH   2   3
TORSDOF 7
ENDMDL
MODEL      164
REMARK 921   NORMALIZED FREE ENERGY PREDICTED BY IDOCK:   -4.30 KCAL/MOL
REMARK 922        TOTAL FREE ENERGY PREDICTED BY IDOCK:   -6.98 KCAL/MOL
REMARK 923 INTER-LIGAND FREE ENERGY PREDICTED BY IDOCK:   -6.28 KCAL/MOL
REMARK 924 INTRA-LIGAND FREE ENERGY PREDICTED BY IDOCK:   -0.70 KCAL/MOL
REMARK 927      BINDING AFFINITY PREDICTED BY RF-SCORE:    0.00 PKD
ROOT
HETATM    1  C   UNL     1     -12.558  13.923  65.622  1.00  0.00    -0.517 C  
HETATM    2  O   UNL     1     -12.565  12.505  65.553  1.00  0.00    -0.642 OA 
ENDROOT
BRANCH   2   3
HETATM    3  C   UNL     1     -11.398  11.862  65.873  1.00  0.00    -0.308 A  
HETATM    4  C   UNL     1     -10.437  11.344  64.993  1.00  0.00    -0.303 A  
HETATM    5  C   UNL     1      -9.317  10.687  65.519  1.00  0.00    -0.245 A  
HETATM    6  C   UNL     1     -11.244  11.663  67.253  1.00  0.00    -0.365 A  
HETATM    7  C   UNL     1     -10.146  10.969  67.765  1.00  0.00    -0.201 A  
HETATM    8  C   UNL     1      -9.199  10.446  66.890  1.00  0.00    -0.170 A  
BRANCH   4   9
HETATM    9  O   UNL     1     -10.599  11.485  63.639  1.00  0.00    -0.357 OA 
HETATM   10  C   UNL     1      -9.655  10.768  62.844  1.00  0.00    -0.338 C  
ENDBRANCH   4   9
BRANCH   8  11
HETATM   11  C   UNL     1      -8.056   9.619  67.407  1.00  0.00    -0.110 C  
BRANCH  11  12
HETATM   12  C   UNL     1      -7.607  10.035  68.796  1.00  0.00    -0.083 C  
BRANCH  12  13
HETATM   13  O   UNL     1      -7.335   8.882  69.594  1.00  0.00    -0.054 OA 
BRANCH  13  14
HETATM   14  C   UNL     1      -7.357   9.085  71.021  1.00  0.00    -0.112 C  
HETATM   15  C   UNL     1      -5.942   8.963  71.609  1.00  0.00    -0.063 C  
HETATM   16  C   UNL     1      -5.927   8.918  73.129  1.00  0.00    -0.053 C  
HETATM   17  C   UNL     1      -6.856   7.822  73.628  1.00  0.00    -0.107 C  
HETATM   18  C   UNL     1      -8.295   8.152  73.243  1.00  0.00    -0.277 C  
HETATM   19  C   UNL     1      -8.461   8.218  71.717  1.00  0.00    -0.158 C  
BRANCH  19  20
HETATM   20  N   UNL     1      -9.794   8.589  71.186  1.00  0.00    -0.191 NA 
HETATM   21  C   UNL     1     -10.897   8.627  72.149  1.00  0.00    -0.354 C  
HETATM   22  C   UNL     1     -11.536   7.248  72.099  1.00  0.00    -0.324 C  
HETATM   23  C   UNL     1     -11.272   6.761  70.680  1.00  0.00    -0.312 C  
HETATM   24  C   UNL     1     -10.275   7.758  70.080  1.00  0.00    -0.205 C  
HETATM   25  O   UNL     1     -12.489   6.734  69.943  1.00  0.00    -0.434 OA 
HETATM   26  H   UNL     1     -12.324   6.430  69.058  1.00  0.00     0.000 HD 
ENDBRANCH  19  20
ENDBRANCH  13  14
ENDBRANCH  12  13
ENDBRANCH  11  12
ENDBRANCH   8  11
ENDBRANCH   2   3
TORSDOF 7
ENDMDL
MODEL      165
REMARK 921   NORMALIZED FREE ENERGY PREDICTED BY IDOCK:   -4.29 KCAL/MOL
REMARK 922        TOTAL FREE ENERGY PREDICTED BY IDOCK:   -6.97 KCAL/MOL
REMARK 923 INTER-LIGAND FREE ENERGY PREDICTED BY IDOCK:   -6.47 KCAL/MOL
REMARK 924 INTRA-LIGAND FREE ENERGY PREDICTED BY IDOCK:   -0.50 KCAL/MOL
REMARK 927      BINDING AFFINITY PREDICTED BY RF-SCORE:    0.00 PKD
ROOT
HETATM    1  C   UNL     1     -14.312   7.320  71.531  1.00  0.00    -0.396 C  
HETATM    2  O   UNL     1     -13.099   6.652  71.842  1.00  0.00    -0.280 OA 
ENDROOT
BRANCH   2   3
HETATM    3  C   UNL     1     -11.940   7.225  71.388  1.00  0.00    -0.320 A  
HETATM    4  C   UNL     1     -10.794   6.576  70.907  1.00  0.00    -0.253 A  
HETATM    5  C   UNL     1      -9.690   7.345  70.516  1.00  0.00    -0.175 A  
HETATM    6  C   UNL     1     -11.935   8.622  71.518  1.00  0.00    -0.362 A  
HETATM    7  C   UNL     1     -10.814   9.377  71.167  1.00  0.00    -0.427 A  
HETATM    8  C   UNL     1      -9.674   8.730  70.699  1.00  0.00    -0.239 A  
BRANCH   4   9
HETATM    9  O   UNL     1     -10.765   5.208  70.822  1.00  0.00    -0.187 OA 
HETATM   10  C   UNL     1     -10.052   4.557  71.873  1.00  0.00    -0.188 C  
ENDBRANCH   4   9
BRANCH   8  11
HETATM   11  C   UNL     1      -8.424   9.507  70.400  1.00  0.00    -0.238 C  
BRANCH  11  12
HETATM   12  C   UNL     1      -8.413  10.089  68.998  1.00  0.00    -0.147 C  
BRANCH  12  13
HETATM   13  O   UNL     1      -9.049  11.368  68.987  1.00  0.00    -0.069 OA 
BRANCH  13  14
HETATM   14  C   UNL     1      -8.604  12.284  67.967  1.00  0.00    -0.176 C  
HETATM   15  C   UNL     1      -7.182  12.782  68.267  1.00  0.00    -0.114 C  
HETATM   16  C   UNL     1      -6.750  13.934  67.373  1.00  0.00     0.007 C  
HETATM   17  C   UNL     1      -7.778  15.054  67.431  1.00  0.00    -0.227 C  
HETATM   18  C   UNL     1      -9.104  14.565  66.856  1.00  0.00    -0.274 C  
HETATM   19  C   UNL     1      -9.669  13.396  67.678  1.00  0.00    -0.222 C  
BRANCH  19  20
HETATM   20  N   UNL     1     -10.928  12.771  67.208  1.00  0.00    -0.255 NA 
HETATM   21  C   UNL     1     -10.813  11.818  66.101  1.00  0.00    -0.291 C  
HETATM   22  C   UNL     1     -11.036  12.629  64.834  1.00  0.00    -0.326 C  
HETATM   23  C   UNL     1     -11.943  13.772  65.272  1.00  0.00    -0.374 C  
HETATM   24  C   UNL     1     -11.975  13.711  66.802  1.00  0.00    -0.414 C  
HETATM   25  O   UNL     1     -13.242  13.599  64.716  1.00  0.00    -0.522 OA 
HETATM   26  H   UNL     1     -13.807  14.312  64.989  1.00  0.00     0.000 HD 
ENDBRANCH  19  20
ENDBRANCH  13  14
ENDBRANCH  12  13
ENDBRANCH  11  12
ENDBRANCH   8  11
ENDBRANCH   2   3
TORSDOF 7
ENDMDL
MODEL      166
REMARK 921   NORMALIZED FREE ENERGY PREDICTED BY IDOCK:   -4.27 KCAL/MOL
REMARK 922        TOTAL FREE ENERGY PREDICTED BY IDOCK:   -6.94 KCAL/MOL
REMARK 923 INTER-LIGAND FREE ENERGY PREDICTED BY IDOCK:   -6.24 KCAL/MOL
REMARK 924 INTRA-LIGAND FREE ENERGY PREDICTED BY IDOCK:   -0.70 KCAL/MOL
REMARK 927      BINDING AFFINITY PREDICTED BY RF-SCORE:    0.00 PKD
ROOT
HETATM    1  C   UNL     1      -7.125   5.065  72.967  1.00  0.00    -0.084 C  
HETATM    2  O   UNL     1      -7.628   6.059  73.847  1.00  0.00    -0.092 OA 
ENDROOT
BRANCH   2   3
HETATM    3  C   UNL     1      -8.636   6.856  73.371  1.00  0.00    -0.125 A  
HETATM    4  C   UNL     1     -10.010   6.744  73.627  1.00  0.00    -0.266 A  
HETATM    5  C   UNL     1     -10.892   7.644  73.015  1.00  0.00    -0.457 A  
HETATM    6  C   UNL     1      -8.183   7.829  72.469  1.00  0.00    -0.165 A  
HETATM    7  C   UNL     1      -9.074   8.695  71.831  1.00  0.00    -0.326 A  
HETATM    8  C   UNL     1     -10.438   8.574  72.078  1.00  0.00    -0.407 A  
BRANCH   4   9
HETATM    9  O   UNL     1     -10.474   5.764  74.467  1.00  0.00    -0.252 OA 
HETATM   10  C   UNL     1     -10.932   4.581  73.813  1.00  0.00    -0.286 C  
ENDBRANCH   4   9
BRANCH   8  11
HETATM   11  C   UNL     1     -11.427   9.431  71.338  1.00  0.00    -0.449 C  
BRANCH  11  12
HETATM   12  C   UNL     1     -11.134   9.518  69.851  1.00  0.00    -0.216 C  
BRANCH  12  13
HETATM   13  O   UNL     1     -10.394  10.705  69.561  1.00  0.00    -0.223 OA 
BRANCH  13  14
HETATM   14  C   UNL     1      -9.370  10.578  68.555  1.00  0.00    -0.168 C  
HETATM   15  C   UNL     1      -7.974  10.604  69.196  1.00  0.00    -0.139 C  
HETATM   16  C   UNL     1      -6.849  10.725  68.179  1.00  0.00    -0.068 C  
HETATM   17  C   UNL     1      -7.091  11.924  67.274  1.00  0.00    -0.143 C  
HETATM   18  C   UNL     1      -8.361  11.704  66.457  1.00  0.00    -0.122 C  
HETATM   19  C   UNL     1      -9.592  11.575  67.366  1.00  0.00    -0.168 C  
BRANCH  19  20
HETATM   20  N   UNL     1     -10.897  11.297  66.721  1.00  0.00    -0.276 NA 
HETATM   21  C   UNL     1     -10.864  10.940  65.301  1.00  0.00    -0.052 C  
HETATM   22  C   UNL     1     -11.049  12.245  64.543  1.00  0.00    -0.368 C  
HETATM   23  C   UNL     1     -11.869  13.116  65.486  1.00  0.00    -0.380 C  
HETATM   24  C   UNL     1     -11.883  12.374  66.827  1.00  0.00    -0.315 C  
HETATM   25  O   UNL     1     -13.185  13.283  64.969  1.00  0.00    -0.698 OA 
HETATM   26  H   UNL     1     -13.697  13.826  65.557  1.00  0.00     0.000 HD 
ENDBRANCH  19  20
ENDBRANCH  13  14
ENDBRANCH  12  13
ENDBRANCH  11  12
ENDBRANCH   8  11
ENDBRANCH   2   3
TORSDOF 7
ENDMDL
MODEL      167
REMARK 921   NORMALIZED FREE ENERGY PREDICTED BY IDOCK:   -4.27 KCAL/MOL
REMARK 922        TOTAL FREE ENERGY PREDICTED BY IDOCK:   -6.93 KCAL/MOL
REMARK 923 INTER-LIGAND FREE ENERGY PREDICTED BY IDOCK:   -6.12 KCAL/MOL
REMARK 924 INTRA-LIGAND FREE ENERGY PREDICTED BY IDOCK:   -0.81 KCAL/MOL
REMARK 927      BINDING AFFINITY PREDICTED BY RF-SCORE:    0.00 PKD
ROOT
HETATM    1  C   UNL     1      -9.628  16.363  65.964  1.00  0.00    -0.319 C  
HETATM    2  O   UNL     1     -10.040  15.201  65.259  1.00  0.00    -0.348 OA 
ENDROOT
BRANCH   2   3
HETATM    3  C   UNL     1     -10.505  14.152  66.009  1.00  0.00    -0.304 A  
HETATM    4  C   UNL     1     -11.226  13.035  65.565  1.00  0.00    -0.288 A  
HETATM    5  C   UNL     1     -11.644  12.079  66.499  1.00  0.00    -0.384 A  
HETATM    6  C   UNL     1     -10.266  14.313  67.381  1.00  0.00    -0.247 A  
HETATM    7  C   UNL     1     -10.723  13.377  68.310  1.00  0.00    -0.273 A  
HETATM    8  C   UNL     1     -11.448  12.274  67.868  1.00  0.00    -0.390 A  
BRANCH   4   9
HETATM    9  O   UNL     1     -11.513  12.889  64.231  1.00  0.00    -0.336 OA 
HETATM   10  C   UNL     1     -11.149  11.626  63.674  1.00  0.00    -0.425 C  
ENDBRANCH   4   9
BRANCH   8  11
HETATM   11  C   UNL     1     -12.030  11.298  68.852  1.00  0.00    -0.378 C  
BRANCH  11  12
HETATM   12  C   UNL     1     -10.999  10.328  69.400  1.00  0.00    -0.247 C  
BRANCH  12  13
HETATM   13  O   UNL     1     -10.909   9.176  68.561  1.00  0.00    -0.157 OA 
BRANCH  13  14
HETATM   14  C   UNL     1      -9.575   8.710  68.273  1.00  0.00    -0.147 C  
HETATM   15  C   UNL     1      -8.568   9.868  68.348  1.00  0.00    -0.116 C  
HETATM   16  C   UNL     1      -7.192   9.501  67.813  1.00  0.00    -0.082 C  
HETATM   17  C   UNL     1      -7.313   8.932  66.408  1.00  0.00    -0.088 C  
HETATM   18  C   UNL     1      -8.099   7.624  66.448  1.00  0.00    -0.113 C  
HETATM   19  C   UNL     1      -9.528   7.851  66.963  1.00  0.00    -0.174 C  
BRANCH  19  20
HETATM   20  N   UNL     1     -10.399   6.662  67.117  1.00  0.00    -0.219 NA 
HETATM   21  C   UNL     1     -10.466   6.066  68.453  1.00  0.00    -0.238 C  
HETATM   22  C   UNL     1      -9.403   4.980  68.475  1.00  0.00    -0.167 C  
HETATM   23  C   UNL     1      -9.295   4.528  67.024  1.00  0.00    -0.146 C  
HETATM   24  C   UNL     1     -10.098   5.550  66.213  1.00  0.00    -0.145 C  
HETATM   25  O   UNL     1      -9.830   3.216  66.885  1.00  0.00    -0.390 OA 
HETATM   26  H   UNL     1      -9.763   2.934  65.980  1.00  0.00     0.000 HD 
ENDBRANCH  19  20
ENDBRANCH  13  14
ENDBRANCH  12  13
ENDBRANCH  11  12
ENDBRANCH   8  11
ENDBRANCH   2   3
TORSDOF 7
ENDMDL
MODEL      168
REMARK 921   NORMALIZED FREE ENERGY PREDICTED BY IDOCK:   -4.26 KCAL/MOL
REMARK 922        TOTAL FREE ENERGY PREDICTED BY IDOCK:   -6.92 KCAL/MOL
REMARK 923 INTER-LIGAND FREE ENERGY PREDICTED BY IDOCK:   -6.00 KCAL/MOL
REMARK 924 INTRA-LIGAND FREE ENERGY PREDICTED BY IDOCK:   -0.92 KCAL/MOL
REMARK 927      BINDING AFFINITY PREDICTED BY RF-SCORE:    0.00 PKD
ROOT
HETATM    1  C   UNL     1     -10.687  18.564  67.722  1.00  0.00    -0.339 C  
HETATM    2  O   UNL     1     -10.187  17.911  68.879  1.00  0.00    -0.374 OA 
ENDROOT
BRANCH   2   3
HETATM    3  C   UNL     1      -9.961  16.563  68.782  1.00  0.00    -0.255 A  
HETATM    4  C   UNL     1      -8.847  15.919  68.225  1.00  0.00    -0.179 A  
HETATM    5  C   UNL     1      -8.817  14.519  68.190  1.00  0.00    -0.177 A  
HETATM    6  C   UNL     1     -11.040  15.794  69.242  1.00  0.00    -0.297 A  
HETATM    7  C   UNL     1     -11.020  14.400  69.164  1.00  0.00    -0.288 A  
HETATM    8  C   UNL     1      -9.918  13.763  68.600  1.00  0.00    -0.175 A  
BRANCH   4   9
HETATM    9  O   UNL     1      -7.806  16.658  67.724  1.00  0.00    -0.159 OA 
HETATM   10  C   UNL     1      -6.685  15.893  67.283  1.00  0.00    -0.186 C  
ENDBRANCH   4   9
BRANCH   8  11
HETATM   11  C   UNL     1      -9.908  12.272  68.421  1.00  0.00    -0.199 C  
BRANCH  11  12
HETATM   12  C   UNL     1     -11.278  11.645  68.608  1.00  0.00    -0.250 C  
BRANCH  12  13
HETATM   13  O   UNL     1     -11.753  11.116  67.369  1.00  0.00    -0.564 OA 
BRANCH  13  14
HETATM   14  C   UNL     1     -10.957  11.424  66.207  1.00  0.00    -0.247 C  
HETATM   15  C   UNL     1     -11.686  12.430  65.301  1.00  0.00    -0.437 C  
HETATM   16  C   UNL     1     -11.021  12.606  63.945  1.00  0.00    -0.468 C  
HETATM   17  C   UNL     1     -10.836  11.254  63.274  1.00  0.00    -0.222 C  
HETATM   18  C   UNL     1      -9.873  10.400  64.095  1.00  0.00    -0.379 C  
HETATM   19  C   UNL     1     -10.430  10.129  65.500  1.00  0.00    -0.006 C  
BRANCH  19  20
HETATM   20  N   UNL     1      -9.580   9.360  66.440  1.00  0.00    -0.204 NA 
HETATM   21  C   UNL     1      -8.302   8.871  65.919  1.00  0.00    -0.127 C  
HETATM   22  C   UNL     1      -8.575   7.466  65.407  1.00  0.00    -0.058 C  
HETATM   23  C   UNL     1      -9.724   6.966  66.273  1.00  0.00     0.015 C  
HETATM   24  C   UNL     1     -10.223   8.192  67.045  1.00  0.00    -0.308 C  
HETATM   25  O   UNL     1      -9.260   5.948  67.154  1.00  0.00    -0.115 OA 
HETATM   26  H   UNL     1      -9.978   5.637  67.693  1.00  0.00     0.000 HD 
ENDBRANCH  19  20
ENDBRANCH  13  14
ENDBRANCH  12  13
ENDBRANCH  11  12
ENDBRANCH   8  11
ENDBRANCH   2   3
TORSDOF 7
ENDMDL
MODEL      169
REMARK 921   NORMALIZED FREE ENERGY PREDICTED BY IDOCK:   -4.25 KCAL/MOL
REMARK 922        TOTAL FREE ENERGY PREDICTED BY IDOCK:   -6.91 KCAL/MOL
REMARK 923 INTER-LIGAND FREE ENERGY PREDICTED BY IDOCK:   -6.26 KCAL/MOL
REMARK 924 INTRA-LIGAND FREE ENERGY PREDICTED BY IDOCK:   -0.65 KCAL/MOL
REMARK 927      BINDING AFFINITY PREDICTED BY RF-SCORE:    0.00 PKD
ROOT
HETATM    1  C   UNL     1      -9.457   6.614  67.602  1.00  0.00    -0.124 C  
HETATM    2  O   UNL     1     -10.640   7.384  67.447  1.00  0.00    -0.264 OA 
ENDROOT
BRANCH   2   3
HETATM    3  C   UNL     1     -10.508   8.746  67.522  1.00  0.00    -0.271 A  
HETATM    4  C   UNL     1     -10.142   9.629  66.496  1.00  0.00    -0.244 A  
HETATM    5  C   UNL     1     -10.030  10.996  66.783  1.00  0.00    -0.240 A  
HETATM    6  C   UNL     1     -10.700   9.243  68.820  1.00  0.00    -0.184 A  
HETATM    7  C   UNL     1     -10.544  10.600  69.105  1.00  0.00    -0.256 A  
HETATM    8  C   UNL     1     -10.170  11.474  68.088  1.00  0.00    -0.205 A  
BRANCH   4   9
HETATM    9  O   UNL     1      -9.901   9.152  65.233  1.00  0.00    -0.087 OA 
HETATM   10  C   UNL     1      -9.780  10.156  64.226  1.00  0.00    -0.258 C  
ENDBRANCH   4   9
BRANCH   8  11
HETATM   11  C   UNL     1      -9.907  12.923  68.384  1.00  0.00    -0.197 C  
BRANCH  11  12
HETATM   12  C   UNL     1      -8.459  13.319  68.155  1.00  0.00    -0.173 C  
BRANCH  12  13
HETATM   13  O   UNL     1      -8.327  14.018  66.916  1.00  0.00    -0.147 OA 
BRANCH  13  14
HETATM   14  C   UNL     1      -8.604  15.432  66.959  1.00  0.00    -0.234 C  
HETATM   15  C   UNL     1      -8.195  16.024  68.317  1.00  0.00    -0.159 C  
HETATM   16  C   UNL     1      -8.685  17.449  68.521  1.00  0.00    -0.277 C  
HETATM   17  C   UNL     1     -10.186  17.523  68.288  1.00  0.00    -0.365 C  
HETATM   18  C   UNL     1     -10.498  17.187  66.832  1.00  0.00    -0.274 C  
HETATM   19  C   UNL     1     -10.062  15.756  66.487  1.00  0.00    -0.282 C  
BRANCH  19  20
HETATM   20  N   UNL     1     -10.244  15.300  65.088  1.00  0.00    -0.362 NA 
HETATM   21  C   UNL     1     -11.196  16.056  64.271  1.00  0.00    -0.065 C  
HETATM   22  C   UNL     1     -12.527  15.337  64.415  1.00  0.00    -0.044 C  
HETATM   23  C   UNL     1     -12.145  13.886  64.680  1.00  0.00    -0.431 C  
HETATM   24  C   UNL     1     -10.635  13.897  64.938  1.00  0.00    -0.419 C  
HETATM   25  O   UNL     1     -12.475  13.084  63.551  1.00  0.00    -0.694 OA 
HETATM   26  H   UNL     1     -12.237  12.179  63.716  1.00  0.00     0.000 HD 
ENDBRANCH  19  20
ENDBRANCH  13  14
ENDBRANCH  12  13
ENDBRANCH  11  12
ENDBRANCH   8  11
ENDBRANCH   2   3
TORSDOF 7
ENDMDL
MODEL      170
REMARK 921   NORMALIZED FREE ENERGY PREDICTED BY IDOCK:   -4.20 KCAL/MOL
REMARK 922        TOTAL FREE ENERGY PREDICTED BY IDOCK:   -6.84 KCAL/MOL
REMARK 923 INTER-LIGAND FREE ENERGY PREDICTED BY IDOCK:   -6.90 KCAL/MOL
REMARK 924 INTRA-LIGAND FREE ENERGY PREDICTED BY IDOCK:    0.06 KCAL/MOL
REMARK 927      BINDING AFFINITY PREDICTED BY RF-SCORE:    0.00 PKD
ROOT
HETATM    1  C   UNL     1     -13.160   7.164  71.667  1.00  0.00    -0.361 C  
HETATM    2  O   UNL     1     -12.310   8.186  72.165  1.00  0.00    -0.319 OA 
ENDROOT
BRANCH   2   3
HETATM    3  C   UNL     1     -12.068   9.251  71.337  1.00  0.00    -0.348 A  
HETATM    4  C   UNL     1     -11.130   9.332  70.298  1.00  0.00    -0.251 A  
HETATM    5  C   UNL     1     -11.011  10.530  69.581  1.00  0.00    -0.333 A  
HETATM    6  C   UNL     1     -12.826  10.384  71.668  1.00  0.00    -0.579 A  
HETATM    7  C   UNL     1     -12.670  11.586  70.975  1.00  0.00    -0.426 A  
HETATM    8  C   UNL     1     -11.730  11.668  69.952  1.00  0.00    -0.414 A  
BRANCH   4   9
HETATM    9  O   UNL     1     -10.344   8.249  69.996  1.00  0.00    -0.202 OA 
HETATM   10  C   UNL     1     -10.193   7.989  68.601  1.00  0.00    -0.206 C  
ENDBRANCH   4   9
BRANCH   8  11
HETATM   11  C   UNL     1     -11.477  12.972  69.251  1.00  0.00    -0.348 C  
BRANCH  11  12
HETATM   12  C   UNL     1     -11.741  12.900  67.757  1.00  0.00    -0.362 C  
BRANCH  12  13
HETATM   13  O   UNL     1     -10.716  13.589  67.040  1.00  0.00    -0.273 OA 
BRANCH  13  14
HETATM   14  C   UNL     1      -9.679  12.763  66.476  1.00  0.00    -0.255 C  
HETATM   15  C   UNL     1     -10.230  11.378  66.104  1.00  0.00    -0.282 C  
HETATM   16  C   UNL     1      -9.143  10.378  65.739  1.00  0.00    -0.197 C  
HETATM   17  C   UNL     1      -8.106  10.307  66.849  1.00  0.00    -0.119 C  
HETATM   18  C   UNL     1      -7.398  11.653  66.978  1.00  0.00    -0.143 C  
HETATM   19  C   UNL     1      -8.385  12.765  67.360  1.00  0.00    -0.189 C  
BRANCH  19  20
HETATM   20  N   UNL     1      -7.858  14.146  67.466  1.00  0.00    -0.181 NA 
HETATM   21  C   UNL     1      -7.576  14.640  68.816  1.00  0.00    -0.138 C  
HETATM   22  C   UNL     1      -8.839  15.354  69.267  1.00  0.00    -0.258 C  
HETATM   23  C   UNL     1      -9.472  15.855  67.974  1.00  0.00    -0.206 C  
HETATM   24  C   UNL     1      -8.690  15.178  66.843  1.00  0.00    -0.259 C  
HETATM   25  O   UNL     1      -9.371  17.273  67.903  1.00  0.00    -0.249 OA 
HETATM   26  H   UNL     1      -9.765  17.584  67.096  1.00  0.00     0.000 HD 
ENDBRANCH  19  20
ENDBRANCH  13  14
ENDBRANCH  12  13
ENDBRANCH  11  12
ENDBRANCH   8  11
ENDBRANCH   2   3
TORSDOF 7
ENDMDL
MODEL      171
REMARK 921   NORMALIZED FREE ENERGY PREDICTED BY IDOCK:   -4.19 KCAL/MOL
REMARK 922        TOTAL FREE ENERGY PREDICTED BY IDOCK:   -6.83 KCAL/MOL
REMARK 923 INTER-LIGAND FREE ENERGY PREDICTED BY IDOCK:   -6.30 KCAL/MOL
REMARK 924 INTRA-LIGAND FREE ENERGY PREDICTED BY IDOCK:   -0.53 KCAL/MOL
REMARK 927      BINDING AFFINITY PREDICTED BY RF-SCORE:    0.00 PKD
ROOT
HETATM    1  C   UNL     1      -9.896   4.857  71.841  1.00  0.00    -0.184 C  
HETATM    2  O   UNL     1     -10.688   5.122  70.693  1.00  0.00    -0.195 OA 
ENDROOT
BRANCH   2   3
HETATM    3  C   UNL     1     -10.564   6.363  70.125  1.00  0.00    -0.240 A  
HETATM    4  C   UNL     1     -11.087   7.576  70.595  1.00  0.00    -0.265 A  
HETATM    5  C   UNL     1     -10.877   8.742  69.849  1.00  0.00    -0.211 A  
HETATM    6  C   UNL     1      -9.892   6.336  68.894  1.00  0.00    -0.155 A  
HETATM    7  C   UNL     1      -9.724   7.496  68.136  1.00  0.00    -0.167 A  
HETATM    8  C   UNL     1     -10.254   8.697  68.600  1.00  0.00    -0.214 A  
BRANCH   4   9
HETATM    9  O   UNL     1     -11.792   7.609  71.771  1.00  0.00    -0.271 OA 
HETATM   10  C   UNL     1     -11.035   8.011  72.913  1.00  0.00    -0.330 C  
ENDBRANCH   4   9
BRANCH   8  11
HETATM   11  C   UNL     1     -10.168   9.942  67.763  1.00  0.00    -0.241 C  
BRANCH  11  12
HETATM   12  C   UNL     1     -11.461  10.737  67.754  1.00  0.00    -0.202 C  
BRANCH  12  13
HETATM   13  O   UNL     1     -11.185  12.129  67.592  1.00  0.00    -0.250 OA 
BRANCH  13  14
HETATM   14  C   UNL     1     -11.255  12.928  68.790  1.00  0.00    -0.279 C  
HETATM   15  C   UNL     1     -12.133  12.243  69.848  1.00  0.00    -0.319 C  
HETATM   16  C   UNL     1     -12.452  13.141  71.034  1.00  0.00    -0.406 C  
HETATM   17  C   UNL     1     -13.049  14.453  70.550  1.00  0.00    -0.198 C  
HETATM   18  C   UNL     1     -12.016  15.216  69.725  1.00  0.00    -0.367 C  
HETATM   19  C   UNL     1     -11.607  14.422  68.475  1.00  0.00    -0.314 C  
BRANCH  19  20
HETATM   20  N   UNL     1     -10.563  15.006  67.601  1.00  0.00    -0.262 NA 
HETATM   21  C   UNL     1      -9.174  14.673  67.926  1.00  0.00    -0.197 C  
HETATM   22  C   UNL     1      -8.684  15.788  68.836  1.00  0.00    -0.217 C  
HETATM   23  C   UNL     1      -9.501  17.003  68.418  1.00  0.00    -0.269 C  
HETATM   24  C   UNL     1     -10.593  16.466  67.487  1.00  0.00    -0.309 C  
HETATM   25  O   UNL     1      -8.666  17.944  67.752  1.00  0.00    -0.243 OA 
HETATM   26  H   UNL     1      -9.176  18.702  67.492  1.00  0.00     0.000 HD 
ENDBRANCH  19  20
ENDBRANCH  13  14
ENDBRANCH  12  13
ENDBRANCH  11  12
ENDBRANCH   8  11
ENDBRANCH   2   3
TORSDOF 7
ENDMDL
MODEL      172
REMARK 921   NORMALIZED FREE ENERGY PREDICTED BY IDOCK:   -4.19 KCAL/MOL
REMARK 922        TOTAL FREE ENERGY PREDICTED BY IDOCK:   -6.83 KCAL/MOL
REMARK 923 INTER-LIGAND FREE ENERGY PREDICTED BY IDOCK:   -6.11 KCAL/MOL
REMARK 924 INTRA-LIGAND FREE ENERGY PREDICTED BY IDOCK:   -0.72 KCAL/MOL
REMARK 927      BINDING AFFINITY PREDICTED BY RF-SCORE:    0.00 PKD
ROOT
HETATM    1  C   UNL     1     -11.272   7.554  72.155  1.00  0.00    -0.270 C  
HETATM    2  O   UNL     1     -10.411   8.682  72.098  1.00  0.00    -0.322 OA 
ENDROOT
BRANCH   2   3
HETATM    3  C   UNL     1     -10.572   9.532  71.035  1.00  0.00    -0.322 A  
HETATM    4  C   UNL     1      -9.645   9.828  70.026  1.00  0.00    -0.241 A  
HETATM    5  C   UNL     1      -9.989  10.757  69.036  1.00  0.00    -0.214 A  
HETATM    6  C   UNL     1     -11.799  10.212  71.061  1.00  0.00    -0.475 A  
HETATM    7  C   UNL     1     -12.116  11.168  70.094  1.00  0.00    -0.443 A  
HETATM    8  C   UNL     1     -11.189  11.468  69.100  1.00  0.00    -0.337 A  
BRANCH   4   9
HETATM    9  O   UNL     1      -8.420   9.209  70.017  1.00  0.00    -0.127 OA 
HETATM   10  C   UNL     1      -7.391   9.926  69.336  1.00  0.00    -0.091 C  
ENDBRANCH   4   9
BRANCH   8  11
HETATM   11  C   UNL     1     -11.466  12.556  68.101  1.00  0.00    -0.368 C  
BRANCH  11  12
HETATM   12  C   UNL     1     -10.763  13.859  68.437  1.00  0.00    -0.257 C  
BRANCH  12  13
HETATM   13  O   UNL     1      -9.972  14.294  67.331  1.00  0.00    -0.238 OA 
BRANCH  13  14
HETATM   14  C   UNL     1      -8.639  14.741  67.648  1.00  0.00    -0.174 C  
HETATM   15  C   UNL     1      -7.891  13.679  68.470  1.00  0.00    -0.131 C  
HETATM   16  C   UNL     1      -6.578  14.184  69.048  1.00  0.00    -0.104 C  
HETATM   17  C   UNL     1      -6.813  15.464  69.836  1.00  0.00    -0.116 C  
HETATM   18  C   UNL     1      -7.297  16.565  68.897  1.00  0.00    -0.219 C  
HETATM   19  C   UNL     1      -8.636  16.190  68.245  1.00  0.00    -0.182 C  
BRANCH  19  20
HETATM   20  N   UNL     1      -9.208  17.136  67.258  1.00  0.00    -0.227 NA 
HETATM   21  C   UNL     1      -8.673  17.066  65.896  1.00  0.00     0.002 C  
HETATM   22  C   UNL     1      -7.544  18.084  65.844  1.00  0.00    -0.171 C  
HETATM   23  C   UNL     1      -7.942  19.142  66.865  1.00  0.00    -0.259 C  
HETATM   24  C   UNL     1      -9.128  18.549  67.633  1.00  0.00    -0.281 C  
HETATM   25  O   UNL     1      -8.303  20.347  66.198  1.00  0.00    -0.540 OA 
HETATM   26  H   UNL     1      -8.551  21.007  66.835  1.00  0.00     0.000 HD 
ENDBRANCH  19  20
ENDBRANCH  13  14
ENDBRANCH  12  13
ENDBRANCH  11  12
ENDBRANCH   8  11
ENDBRANCH   2   3
TORSDOF 7
ENDMDL
MODEL      173
REMARK 921   NORMALIZED FREE ENERGY PREDICTED BY IDOCK:   -4.19 KCAL/MOL
REMARK 922        TOTAL FREE ENERGY PREDICTED BY IDOCK:   -6.83 KCAL/MOL
REMARK 923 INTER-LIGAND FREE ENERGY PREDICTED BY IDOCK:   -6.10 KCAL/MOL
REMARK 924 INTRA-LIGAND FREE ENERGY PREDICTED BY IDOCK:   -0.73 KCAL/MOL
REMARK 927      BINDING AFFINITY PREDICTED BY RF-SCORE:    0.00 PKD
ROOT
HETATM    1  C   UNL     1      -6.179   7.815  68.630  1.00  0.00    -0.036 C  
HETATM    2  O   UNL     1      -7.347   7.007  68.634  1.00  0.00    -0.091 OA 
ENDROOT
BRANCH   2   3
HETATM    3  C   UNL     1      -8.444   7.505  69.287  1.00  0.00    -0.136 A  
HETATM    4  C   UNL     1      -8.787   7.337  70.635  1.00  0.00    -0.148 A  
HETATM    5  C   UNL     1      -9.978   7.902  71.110  1.00  0.00    -0.198 A  
HETATM    6  C   UNL     1      -9.324   8.187  68.434  1.00  0.00    -0.135 A  
HETATM    7  C   UNL     1     -10.529   8.710  68.906  1.00  0.00    -0.211 A  
HETATM    8  C   UNL     1     -10.873   8.533  70.243  1.00  0.00    -0.249 A  
BRANCH   4   9
HETATM    9  O   UNL     1      -7.962   6.628  71.471  1.00  0.00    -0.102 OA 
HETATM   10  C   UNL     1      -8.286   5.244  71.602  1.00  0.00    -0.118 C  
ENDBRANCH   4   9
BRANCH   8  11
HETATM   11  C   UNL     1     -12.203   9.006  70.759  1.00  0.00    -0.119 C  
BRANCH  11  12
HETATM   12  C   UNL     1     -12.169  10.442  71.249  1.00  0.00    -0.389 C  
BRANCH  12  13
HETATM   13  O   UNL     1     -12.395  11.341  70.163  1.00  0.00    -0.296 OA 
BRANCH  13  14
HETATM   14  C   UNL     1     -11.951  12.698  70.366  1.00  0.00    -0.248 C  
HETATM   15  C   UNL     1     -12.677  13.333  71.562  1.00  0.00    -0.376 C  
HETATM   16  C   UNL     1     -12.442  14.831  71.678  1.00  0.00    -0.398 C  
HETATM   17  C   UNL     1     -12.787  15.517  70.365  1.00  0.00    -0.327 C  
HETATM   18  C   UNL     1     -11.837  15.037  69.270  1.00  0.00    -0.344 C  
HETATM   19  C   UNL     1     -11.977  13.526  69.036  1.00  0.00    -0.335 C  
BRANCH  19  20
HETATM   20  N   UNL     1     -11.075  12.898  68.041  1.00  0.00    -0.241 NA 
HETATM   21  C   UNL     1     -10.273  13.805  67.219  1.00  0.00    -0.253 C  
HETATM   22  C   UNL     1     -11.086  14.049  65.958  1.00  0.00    -0.303 C  
HETATM   23  C   UNL     1     -11.911  12.779  65.790  1.00  0.00    -0.449 C  
HETATM   24  C   UNL     1     -11.730  11.994  67.093  1.00  0.00    -0.273 C  
HETATM   25  O   UNL     1     -11.440  12.041  64.667  1.00  0.00    -0.324 OA 
HETATM   26  H   UNL     1     -11.955  11.249  64.562  1.00  0.00     0.000 HD 
ENDBRANCH  19  20
ENDBRANCH  13  14
ENDBRANCH  12  13
ENDBRANCH  11  12
ENDBRANCH   8  11
ENDBRANCH   2   3
TORSDOF 7
ENDMDL
MODEL      174
REMARK 921   NORMALIZED FREE ENERGY PREDICTED BY IDOCK:   -4.17 KCAL/MOL
REMARK 922        TOTAL FREE ENERGY PREDICTED BY IDOCK:   -6.80 KCAL/MOL
REMARK 923 INTER-LIGAND FREE ENERGY PREDICTED BY IDOCK:   -6.08 KCAL/MOL
REMARK 924 INTRA-LIGAND FREE ENERGY PREDICTED BY IDOCK:   -0.72 KCAL/MOL
REMARK 927      BINDING AFFINITY PREDICTED BY RF-SCORE:    0.00 PKD
ROOT
HETATM    1  C   UNL     1     -12.959   7.476  71.385  1.00  0.00    -0.335 C  
HETATM    2  O   UNL     1     -11.567   7.239  71.534  1.00  0.00    -0.257 OA 
ENDROOT
BRANCH   2   3
HETATM    3  C   UNL     1     -10.736   7.819  70.611  1.00  0.00    -0.231 A  
HETATM    4  C   UNL     1     -10.537   7.436  69.277  1.00  0.00    -0.213 A  
HETATM    5  C   UNL     1      -9.613   8.143  68.497  1.00  0.00    -0.153 A  
HETATM    6  C   UNL     1      -9.968   8.862  71.148  1.00  0.00    -0.342 A  
HETATM    7  C   UNL     1      -9.018   9.533  70.375  1.00  0.00    -0.291 A  
HETATM    8  C   UNL     1      -8.814   9.144  69.054  1.00  0.00    -0.139 A  
BRANCH   4   9
HETATM    9  O   UNL     1     -11.244   6.385  68.752  1.00  0.00    -0.333 OA 
HETATM   10  C   UNL     1     -10.999   6.128  67.370  1.00  0.00    -0.314 C  
ENDBRANCH   4   9
BRANCH   8  11
HETATM   11  C   UNL     1      -7.737   9.786  68.227  1.00  0.00    -0.085 C  
BRANCH  11  12
HETATM   12  C   UNL     1      -7.889  11.293  68.127  1.00  0.00    -0.127 C  
BRANCH  12  13
HETATM   13  O   UNL     1      -9.194  11.628  67.652  1.00  0.00    -0.170 OA 
BRANCH  13  14
HETATM   14  C   UNL     1      -9.843  12.728  68.321  1.00  0.00    -0.224 C  
HETATM   15  C   UNL     1     -10.948  12.218  69.259  1.00  0.00    -0.155 C  
HETATM   16  C   UNL     1     -11.834  13.329  69.802  1.00  0.00    -0.394 C  
HETATM   17  C   UNL     1     -12.389  14.161  68.656  1.00  0.00    -0.053 C  
HETATM   18  C   UNL     1     -11.246  14.866  67.931  1.00  0.00    -0.324 C  
HETATM   19  C   UNL     1     -10.269  13.853  67.316  1.00  0.00    -0.249 C  
BRANCH  19  20
HETATM   20  N   UNL     1      -9.070  14.385  66.627  1.00  0.00    -0.259 NA 
HETATM   21  C   UNL     1      -7.957  14.806  67.481  1.00  0.00    -0.188 C  
HETATM   22  C   UNL     1      -8.166  16.291  67.730  1.00  0.00    -0.158 C  
HETATM   23  C   UNL     1      -8.909  16.780  66.493  1.00  0.00    -0.277 C  
HETATM   24  C   UNL     1      -9.319  15.516  65.731  1.00  0.00    -0.257 C  
HETATM   25  O   UNL     1      -8.054  17.607  65.710  1.00  0.00    -0.550 OA 
HETATM   26  H   UNL     1      -8.517  17.912  64.939  1.00  0.00     0.000 HD 
ENDBRANCH  19  20
ENDBRANCH  13  14
ENDBRANCH  12  13
ENDBRANCH  11  12
ENDBRANCH   8  11
ENDBRANCH   2   3
TORSDOF 7
ENDMDL
MODEL      175
REMARK 921   NORMALIZED FREE ENERGY PREDICTED BY IDOCK:   -4.16 KCAL/MOL
REMARK 922        TOTAL FREE ENERGY PREDICTED BY IDOCK:   -6.79 KCAL/MOL
REMARK 923 INTER-LIGAND FREE ENERGY PREDICTED BY IDOCK:   -5.95 KCAL/MOL
REMARK 924 INTRA-LIGAND FREE ENERGY PREDICTED BY IDOCK:   -0.84 KCAL/MOL
REMARK 927      BINDING AFFINITY PREDICTED BY RF-SCORE:    0.00 PKD
ROOT
HETATM    1  C   UNL     1     -10.603   5.905  67.525  1.00  0.00    -0.273 C  
HETATM    2  O   UNL     1      -9.727   6.072  66.420  1.00  0.00    -0.158 OA 
ENDROOT
BRANCH   2   3
HETATM    3  C   UNL     1      -9.134   7.299  66.278  1.00  0.00    -0.149 A  
HETATM    4  C   UNL     1      -8.280   7.723  65.250  1.00  0.00    -0.140 A  
HETATM    5  C   UNL     1      -7.744   9.017  65.301  1.00  0.00    -0.100 A  
HETATM    6  C   UNL     1      -9.388   8.157  67.358  1.00  0.00    -0.171 A  
HETATM    7  C   UNL     1      -8.815   9.429  67.421  1.00  0.00    -0.135 A  
HETATM    8  C   UNL     1      -7.960   9.844  66.406  1.00  0.00    -0.111 A  
BRANCH   4   9
HETATM    9  O   UNL     1      -7.980   6.877  64.213  1.00  0.00    -0.121 OA 
HETATM   10  C   UNL     1      -7.413   7.511  63.067  1.00  0.00    -0.107 C  
ENDBRANCH   4   9
BRANCH   8  11
HETATM   11  C   UNL     1      -7.259  11.170  66.492  1.00  0.00    -0.124 C  
BRANCH  11  12
HETATM   12  C   UNL     1      -7.904  12.114  67.491  1.00  0.00    -0.162 C  
BRANCH  12  13
HETATM   13  O   UNL     1      -8.642  13.128  66.809  1.00  0.00    -0.155 OA 
BRANCH  13  14
HETATM   14  C   UNL     1     -10.055  12.884  66.657  1.00  0.00    -0.245 C  
HETATM   15  C   UNL     1     -10.392  12.536  65.199  1.00  0.00    -0.312 C  
HETATM   16  C   UNL     1     -11.887  12.512  64.919  1.00  0.00    -0.438 C  
HETATM   17  C   UNL     1     -12.522  13.822  65.362  1.00  0.00    -0.532 C  
HETATM   18  C   UNL     1     -12.391  13.972  66.875  1.00  0.00    -0.321 C  
HETATM   19  C   UNL     1     -10.916  14.023  67.302  1.00  0.00    -0.295 C  
BRANCH  19  20
HETATM   20  N   UNL     1     -10.624  14.107  68.753  1.00  0.00    -0.250 NA 
HETATM   21  C   UNL     1     -11.618  13.524  69.657  1.00  0.00    -0.275 C  
HETATM   22  C   UNL     1     -12.552  14.663  70.033  1.00  0.00    -0.276 C  
HETATM   23  C   UNL     1     -11.683  15.911  69.938  1.00  0.00    -0.322 C  
HETATM   24  C   UNL     1     -10.385  15.459  69.261  1.00  0.00    -0.253 C  
HETATM   25  O   UNL     1     -11.438  16.431  71.241  1.00  0.00    -0.521 OA 
HETATM   26  H   UNL     1     -10.896  17.209  71.181  1.00  0.00     0.000 HD 
ENDBRANCH  19  20
ENDBRANCH  13  14
ENDBRANCH  12  13
ENDBRANCH  11  12
ENDBRANCH   8  11
ENDBRANCH   2   3
TORSDOF 7
ENDMDL
MODEL      176
REMARK 921   NORMALIZED FREE ENERGY PREDICTED BY IDOCK:   -4.15 KCAL/MOL
REMARK 922        TOTAL FREE ENERGY PREDICTED BY IDOCK:   -6.77 KCAL/MOL
REMARK 923 INTER-LIGAND FREE ENERGY PREDICTED BY IDOCK:   -5.99 KCAL/MOL
REMARK 924 INTRA-LIGAND FREE ENERGY PREDICTED BY IDOCK:   -0.78 KCAL/MOL
REMARK 927      BINDING AFFINITY PREDICTED BY RF-SCORE:    0.00 PKD
ROOT
HETATM    1  C   UNL     1      -9.267  11.137  62.660  1.00  0.00    -0.323 C  
HETATM    2  O   UNL     1      -8.065  10.525  63.104  1.00  0.00    -0.155 OA 
ENDROOT
BRANCH   2   3
HETATM    3  C   UNL     1      -8.121   9.833  64.286  1.00  0.00    -0.152 A  
HETATM    4  C   UNL     1      -7.070   9.184  64.949  1.00  0.00    -0.096 A  
HETATM    5  C   UNL     1      -7.338   8.497  66.140  1.00  0.00    -0.081 A  
HETATM    6  C   UNL     1      -9.422   9.734  64.800  1.00  0.00    -0.318 A  
HETATM    7  C   UNL     1      -9.687   9.011  65.964  1.00  0.00    -0.339 A  
HETATM    8  C   UNL     1      -8.644   8.358  66.615  1.00  0.00    -0.127 A  
BRANCH   4   9
HETATM    9  O   UNL     1      -5.801   9.228  64.431  1.00  0.00    -0.068 OA 
HETATM   10  C   UNL     1      -5.423   8.082  63.669  1.00  0.00    -0.053 C  
ENDBRANCH   4   9
BRANCH   8  11
HETATM   11  C   UNL     1      -8.913   7.499  67.818  1.00  0.00    -0.131 C  
BRANCH  11  12
HETATM   12  C   UNL     1      -9.977   8.080  68.732  1.00  0.00    -0.189 C  
BRANCH  12  13
HETATM   13  O   UNL     1      -9.594   9.384  69.172  1.00  0.00    -0.156 OA 
BRANCH  13  14
HETATM   14  C   UNL     1     -10.414   9.966  70.204  1.00  0.00    -0.285 C  
HETATM   15  C   UNL     1     -11.033   8.872  71.088  1.00  0.00    -0.356 C  
HETATM   16  C   UNL     1     -12.101   9.398  72.034  1.00  0.00    -0.379 C  
HETATM   17  C   UNL     1     -13.153  10.172  71.254  1.00  0.00    -0.490 C  
HETATM   18  C   UNL     1     -12.519  11.409  70.624  1.00  0.00    -0.419 C  
HETATM   19  C   UNL     1     -11.418  11.022  69.625  1.00  0.00    -0.303 C  
BRANCH  19  20
HETATM   20  N   UNL     1     -10.665  12.118  68.973  1.00  0.00    -0.169 NA 
HETATM   21  C   UNL     1     -11.062  13.484  69.321  1.00  0.00    -0.179 C  
HETATM   22  C   UNL     1     -12.083  13.898  68.273  1.00  0.00    -0.322 C  
HETATM   23  C   UNL     1     -11.698  13.098  67.035  1.00  0.00    -0.377 C  
HETATM   24  C   UNL     1     -10.656  12.080  67.509  1.00  0.00    -0.221 C  
HETATM   25  O   UNL     1     -11.164  13.968  66.043  1.00  0.00    -0.304 OA 
HETATM   26  H   UNL     1     -10.924  13.469  65.271  1.00  0.00     0.000 HD 
ENDBRANCH  19  20
ENDBRANCH  13  14
ENDBRANCH  12  13
ENDBRANCH  11  12
ENDBRANCH   8  11
ENDBRANCH   2   3
TORSDOF 7
ENDMDL
MODEL      177
REMARK 921   NORMALIZED FREE ENERGY PREDICTED BY IDOCK:   -4.14 KCAL/MOL
REMARK 922        TOTAL FREE ENERGY PREDICTED BY IDOCK:   -6.75 KCAL/MOL
REMARK 923 INTER-LIGAND FREE ENERGY PREDICTED BY IDOCK:   -6.34 KCAL/MOL
REMARK 924 INTRA-LIGAND FREE ENERGY PREDICTED BY IDOCK:   -0.41 KCAL/MOL
REMARK 927      BINDING AFFINITY PREDICTED BY RF-SCORE:    0.00 PKD
ROOT
HETATM    1  C   UNL     1      -7.338   8.439  64.981  1.00  0.00    -0.086 C  
HETATM    2  O   UNL     1      -8.698   8.176  65.293  1.00  0.00    -0.147 OA 
ENDROOT
BRANCH   2   3
HETATM    3  C   UNL     1      -9.464   9.244  65.678  1.00  0.00    -0.256 A  
HETATM    4  C   UNL     1      -9.910  10.309  64.882  1.00  0.00    -0.336 A  
HETATM    5  C   UNL     1     -10.664  11.332  65.474  1.00  0.00    -0.283 A  
HETATM    6  C   UNL     1      -9.736   9.254  67.054  1.00  0.00    -0.241 A  
HETATM    7  C   UNL     1     -10.451  10.299  67.642  1.00  0.00    -0.285 A  
HETATM    8  C   UNL     1     -10.883  11.361  66.853  1.00  0.00    -0.335 A  
BRANCH   4   9
HETATM    9  O   UNL     1      -9.609  10.340  63.545  1.00  0.00    -0.293 OA 
HETATM   10  C   UNL     1     -10.074  11.498  62.852  1.00  0.00    -0.179 C  
ENDBRANCH   4   9
BRANCH   8  11
HETATM   11  C   UNL     1     -11.575  12.541  67.474  1.00  0.00    -0.424 C  
BRANCH  11  12
HETATM   12  C   UNL     1     -10.961  12.956  68.799  1.00  0.00    -0.254 C  
BRANCH  12  13
HETATM   13  O   UNL     1     -10.672  14.355  68.795  1.00  0.00    -0.239 OA 
BRANCH  13  14
HETATM   14  C   UNL     1      -9.425  14.738  68.182  1.00  0.00    -0.208 C  
HETATM   15  C   UNL     1      -8.478  13.532  68.079  1.00  0.00    -0.176 C  
HETATM   16  C   UNL     1      -7.062  13.915  67.675  1.00  0.00    -0.190 C  
HETATM   17  C   UNL     1      -6.526  14.991  68.607  1.00  0.00    -0.087 C  
HETATM   18  C   UNL     1      -7.355  16.264  68.453  1.00  0.00    -0.158 C  
HETATM   19  C   UNL     1      -8.820  16.023  68.844  1.00  0.00    -0.233 C  
BRANCH  19  20
HETATM   20  N   UNL     1      -9.767  17.153  68.690  1.00  0.00    -0.282 NA 
HETATM   21  C   UNL     1     -10.640  17.122  67.515  1.00  0.00    -0.323 C  
HETATM   22  C   UNL     1      -9.913  17.911  66.438  1.00  0.00    -0.358 C  
HETATM   23  C   UNL     1      -9.070  18.917  67.211  1.00  0.00    -0.280 C  
HETATM   24  C   UNL     1      -9.151  18.482  68.679  1.00  0.00    -0.298 C  
HETATM   25  O   UNL     1      -9.592  20.229  67.027  1.00  0.00    -0.390 OA 
HETATM   26  H   UNL     1      -9.066  20.856  67.510  1.00  0.00     0.000 HD 
ENDBRANCH  19  20
ENDBRANCH  13  14
ENDBRANCH  12  13
ENDBRANCH  11  12
ENDBRANCH   8  11
ENDBRANCH   2   3
TORSDOF 7
ENDMDL
MODEL      178
REMARK 921   NORMALIZED FREE ENERGY PREDICTED BY IDOCK:   -4.09 KCAL/MOL
REMARK 922        TOTAL FREE ENERGY PREDICTED BY IDOCK:   -6.69 KCAL/MOL
REMARK 923 INTER-LIGAND FREE ENERGY PREDICTED BY IDOCK:   -6.56 KCAL/MOL
REMARK 924 INTRA-LIGAND FREE ENERGY PREDICTED BY IDOCK:   -0.13 KCAL/MOL
REMARK 927      BINDING AFFINITY PREDICTED BY RF-SCORE:    0.00 PKD
ROOT
HETATM    1  C   UNL     1     -12.528  12.214  63.343  1.00  0.00    -0.512 C  
HETATM    2  O   UNL     1     -11.226  12.599  63.758  1.00  0.00    -0.403 OA 
ENDROOT
BRANCH   2   3
HETATM    3  C   UNL     1     -10.912  12.404  65.077  1.00  0.00    -0.298 A  
HETATM    4  C   UNL     1     -10.861  13.365  66.097  1.00  0.00    -0.281 A  
HETATM    5  C   UNL     1     -10.484  12.970  67.387  1.00  0.00    -0.235 A  
HETATM    6  C   UNL     1     -10.534  11.083  65.360  1.00  0.00    -0.306 A  
HETATM    7  C   UNL     1     -10.119  10.707  66.638  1.00  0.00    -0.270 A  
HETATM    8  C   UNL     1     -10.058  11.665  67.646  1.00  0.00    -0.204 A  
BRANCH   4   9
HETATM    9  O   UNL     1     -11.178  14.671  65.825  1.00  0.00    -0.326 OA 
HETATM   10  C   UNL     1     -10.578  15.628  66.697  1.00  0.00    -0.307 C  
ENDBRANCH   4   9
BRANCH   8  11
HETATM   11  C   UNL     1      -9.529  11.309  69.007  1.00  0.00    -0.030 C  
BRANCH  11  12
HETATM   12  C   UNL     1     -10.335  10.217  69.686  1.00  0.00    -0.247 C  
BRANCH  12  13
HETATM   13  O   UNL     1      -9.590   8.998  69.716  1.00  0.00    -0.165 OA 
BRANCH  13  14
HETATM   14  C   UNL     1     -10.352   7.801  69.972  1.00  0.00    -0.221 C  
HETATM   15  C   UNL     1     -11.089   7.904  71.316  1.00  0.00    -0.278 C  
HETATM   16  C   UNL     1     -11.706   6.587  71.763  1.00  0.00    -0.373 C  
HETATM   17  C   UNL     1     -10.652   5.491  71.765  1.00  0.00    -0.296 C  
HETATM   18  C   UNL     1     -10.157   5.249  70.341  1.00  0.00    -0.324 C  
HETATM   19  C   UNL     1      -9.493   6.508  69.763  1.00  0.00    -0.150 C  
BRANCH  19  20
HETATM   20  N   UNL     1      -9.013   6.449  68.362  1.00  0.00    -0.121 NA 
HETATM   21  C   UNL     1      -9.533   7.469  67.448  1.00  0.00    -0.142 C  
HETATM   22  C   UNL     1     -10.757   6.850  66.792  1.00  0.00    -0.296 C  
HETATM   23  C   UNL     1     -10.471   5.353  66.795  1.00  0.00    -0.289 C  
HETATM   24  C   UNL     1      -9.235   5.171  67.682  1.00  0.00    -0.117 C  
HETATM   25  O   UNL     1     -10.228   4.904  65.466  1.00  0.00    -0.369 OA 
HETATM   26  H   UNL     1     -10.050   3.971  65.468  1.00  0.00     0.000 HD 
ENDBRANCH  19  20
ENDBRANCH  13  14
ENDBRANCH  12  13
ENDBRANCH  11  12
ENDBRANCH   8  11
ENDBRANCH   2   3
TORSDOF 7
ENDMDL
MODEL      179
REMARK 921   NORMALIZED FREE ENERGY PREDICTED BY IDOCK:   -4.07 KCAL/MOL
REMARK 922        TOTAL FREE ENERGY PREDICTED BY IDOCK:   -6.66 KCAL/MOL
REMARK 923 INTER-LIGAND FREE ENERGY PREDICTED BY IDOCK:   -6.34 KCAL/MOL
REMARK 924 INTRA-LIGAND FREE ENERGY PREDICTED BY IDOCK:   -0.33 KCAL/MOL
REMARK 927      BINDING AFFINITY PREDICTED BY RF-SCORE:    0.00 PKD
ROOT
HETATM    1  C   UNL     1     -10.340  19.278  67.056  1.00  0.00    -0.426 C  
HETATM    2  O   UNL     1      -9.264  18.475  66.592  1.00  0.00    -0.289 OA 
ENDROOT
BRANCH   2   3
HETATM    3  C   UNL     1      -9.563  17.189  66.226  1.00  0.00    -0.252 A  
HETATM    4  C   UNL     1      -8.828  16.027  66.501  1.00  0.00    -0.305 A  
HETATM    5  C   UNL     1      -9.286  14.798  66.008  1.00  0.00    -0.249 A  
HETATM    6  C   UNL     1     -10.707  17.102  65.419  1.00  0.00    -0.097 A  
HETATM    7  C   UNL     1     -11.132  15.879  64.896  1.00  0.00    -0.400 A  
HETATM    8  C   UNL     1     -10.395  14.729  65.162  1.00  0.00    -0.439 A  
BRANCH   4   9
HETATM    9  O   UNL     1      -7.679  16.103  67.246  1.00  0.00    -0.148 OA 
HETATM   10  C   UNL     1      -7.856  15.889  68.646  1.00  0.00    -0.164 C  
ENDBRANCH   4   9
BRANCH   8  11
HETATM   11  C   UNL     1     -10.777  13.416  64.539  1.00  0.00    -0.434 C  
BRANCH  11  12
HETATM   12  C   UNL     1     -11.631  12.556  65.452  1.00  0.00    -0.375 C  
BRANCH  12  13
HETATM   13  O   UNL     1     -11.160  12.644  66.798  1.00  0.00    -0.258 OA 
BRANCH  13  14
HETATM   14  C   UNL     1     -11.396  11.487  67.624  1.00  0.00    -0.291 C  
HETATM   15  C   UNL     1     -12.148  11.879  68.906  1.00  0.00    -0.213 C  
HETATM   16  C   UNL     1     -12.208  10.757  69.932  1.00  0.00    -0.384 C  
HETATM   17  C   UNL     1     -10.808  10.238  70.220  1.00  0.00    -0.349 C  
HETATM   18  C   UNL     1     -10.223   9.608  68.959  1.00  0.00    -0.209 C  
HETATM   19  C   UNL     1     -10.093  10.642  67.831  1.00  0.00    -0.168 C  
BRANCH  19  20
HETATM   20  N   UNL     1      -9.594  10.168  66.518  1.00  0.00    -0.179 NA 
HETATM   21  C   UNL     1      -9.768   8.743  66.226  1.00  0.00    -0.272 C  
HETATM   22  C   UNL     1      -8.483   8.069  66.677  1.00  0.00    -0.133 C  
HETATM   23  C   UNL     1      -7.417   9.147  66.524  1.00  0.00    -0.093 C  
HETATM   24  C   UNL     1      -8.182  10.447  66.252  1.00  0.00    -0.144 C  
HETATM   25  O   UNL     1      -6.547   8.819  65.446  1.00  0.00    -0.066 OA 
HETATM   26  H   UNL     1      -5.883   9.491  65.351  1.00  0.00     0.000 HD 
ENDBRANCH  19  20
ENDBRANCH  13  14
ENDBRANCH  12  13
ENDBRANCH  11  12
ENDBRANCH   8  11
ENDBRANCH   2   3
TORSDOF 7
ENDMDL
MODEL      180
REMARK 921   NORMALIZED FREE ENERGY PREDICTED BY IDOCK:   -4.06 KCAL/MOL
REMARK 922        TOTAL FREE ENERGY PREDICTED BY IDOCK:   -6.64 KCAL/MOL
REMARK 923 INTER-LIGAND FREE ENERGY PREDICTED BY IDOCK:   -5.97 KCAL/MOL
REMARK 924 INTRA-LIGAND FREE ENERGY PREDICTED BY IDOCK:   -0.67 KCAL/MOL
REMARK 927      BINDING AFFINITY PREDICTED BY RF-SCORE:    0.00 PKD
ROOT
HETATM    1  C   UNL     1     -11.498  11.877  65.120  1.00  0.00    -0.243 C  
HETATM    2  O   UNL     1     -12.032  12.463  66.299  1.00  0.00    -0.553 OA 
ENDROOT
BRANCH   2   3
HETATM    3  C   UNL     1     -11.728  11.853  67.487  1.00  0.00    -0.265 A  
HETATM    4  C   UNL     1     -11.870  12.378  68.780  1.00  0.00    -0.311 A  
HETATM    5  C   UNL     1     -11.469  11.604  69.876  1.00  0.00    -0.308 A  
HETATM    6  C   UNL     1     -11.139  10.591  67.320  1.00  0.00    -0.284 A  
HETATM    7  C   UNL     1     -10.703   9.845  68.416  1.00  0.00    -0.271 A  
HETATM    8  C   UNL     1     -10.835  10.372  69.697  1.00  0.00    -0.320 A  
BRANCH   4   9
HETATM    9  O   UNL     1     -12.396  13.632  68.958  1.00  0.00    -0.280 OA 
HETATM   10  C   UNL     1     -11.432  14.680  69.050  1.00  0.00    -0.291 C  
ENDBRANCH   4   9
BRANCH   8  11
HETATM   11  C   UNL     1     -10.293   9.632  70.887  1.00  0.00    -0.334 C  
BRANCH  11  12
HETATM   12  C   UNL     1      -8.811   9.325  70.766  1.00  0.00    -0.225 C  
BRANCH  12  13
HETATM   13  O   UNL     1      -8.451   8.264  71.652  1.00  0.00    -0.122 OA 
BRANCH  13  14
HETATM   14  C   UNL     1      -9.477   7.284  71.909  1.00  0.00    -0.148 C  
HETATM   15  C   UNL     1      -9.577   6.985  73.413  1.00  0.00    -0.225 C  
HETATM   16  C   UNL     1     -10.459   5.787  73.728  1.00  0.00    -0.291 C  
HETATM   17  C   UNL     1     -10.000   4.576  72.929  1.00  0.00    -0.198 C  
HETATM   18  C   UNL     1     -10.189   4.843  71.438  1.00  0.00    -0.257 C  
HETATM   19  C   UNL     1      -9.337   6.034  70.974  1.00  0.00    -0.161 C  
BRANCH  19  20
HETATM   20  N   UNL     1      -9.457   6.455  69.558  1.00  0.00    -0.145 NA 
HETATM   21  C   UNL     1     -10.523   5.826  68.775  1.00  0.00    -0.242 C  
HETATM   22  C   UNL     1      -9.886   4.621  68.103  1.00  0.00    -0.170 C  
HETATM   23  C   UNL     1      -8.422   5.010  67.938  1.00  0.00    -0.104 C  
HETATM   24  C   UNL     1      -8.242   6.293  68.757  1.00  0.00    -0.120 C  
HETATM   25  O   UNL     1      -8.130   5.225  66.562  1.00  0.00    -0.107 OA 
HETATM   26  H   UNL     1      -7.217   5.468  66.459  1.00  0.00     0.000 HD 
ENDBRANCH  19  20
ENDBRANCH  13  14
ENDBRANCH  12  13
ENDBRANCH  11  12
ENDBRANCH   8  11
ENDBRANCH   2   3
TORSDOF 7
ENDMDL
MODEL      181
REMARK 921   NORMALIZED FREE ENERGY PREDICTED BY IDOCK:   -4.05 KCAL/MOL
REMARK 922        TOTAL FREE ENERGY PREDICTED BY IDOCK:   -6.63 KCAL/MOL
REMARK 923 INTER-LIGAND FREE ENERGY PREDICTED BY IDOCK:   -5.87 KCAL/MOL
REMARK 924 INTRA-LIGAND FREE ENERGY PREDICTED BY IDOCK:   -0.76 KCAL/MOL
REMARK 927      BINDING AFFINITY PREDICTED BY RF-SCORE:    0.00 PKD
ROOT
HETATM    1  C   UNL     1     -11.144   4.518  73.570  1.00  0.00    -0.314 C  
HETATM    2  O   UNL     1     -11.601   5.429  72.583  1.00  0.00    -0.282 OA 
ENDROOT
BRANCH   2   3
HETATM    3  C   UNL     1     -10.679   6.301  72.067  1.00  0.00    -0.228 A  
HETATM    4  C   UNL     1      -9.689   6.034  71.110  1.00  0.00    -0.177 A  
HETATM    5  C   UNL     1      -8.813   7.060  70.734  1.00  0.00    -0.149 A  
HETATM    6  C   UNL     1     -10.733   7.569  72.664  1.00  0.00    -0.354 A  
HETATM    7  C   UNL     1      -9.828   8.573  72.314  1.00  0.00    -0.383 A  
HETATM    8  C   UNL     1      -8.839   8.303  71.371  1.00  0.00    -0.204 A  
BRANCH   4   9
HETATM    9  O   UNL     1      -9.590   4.784  70.555  1.00  0.00    -0.156 OA 
HETATM   10  C   UNL     1     -10.009   4.698  69.193  1.00  0.00    -0.138 C  
ENDBRANCH   4   9
BRANCH   8  11
HETATM   11  C   UNL     1      -7.797   9.333  71.041  1.00  0.00    -0.109 C  
BRANCH  11  12
HETATM   12  C   UNL     1      -7.776   9.700  69.568  1.00  0.00    -0.109 C  
BRANCH  12  13
HETATM   13  O   UNL     1      -8.890  10.534  69.250  1.00  0.00    -0.166 OA 
BRANCH  13  14
HETATM   14  C   UNL     1      -9.574  10.228  68.018  1.00  0.00    -0.145 C  
HETATM   15  C   UNL     1      -9.359   8.756  67.630  1.00  0.00    -0.157 C  
HETATM   16  C   UNL     1      -9.840   8.431  66.224  1.00  0.00    -0.257 C  
HETATM   17  C   UNL     1      -9.212   9.388  65.223  1.00  0.00    -0.299 C  
HETATM   18  C   UNL     1      -9.691  10.811  65.501  1.00  0.00    -0.290 C  
HETATM   19  C   UNL     1      -9.260  11.279  66.899  1.00  0.00    -0.175 C  
BRANCH  19  20
HETATM   20  N   UNL     1      -9.703  12.623  67.341  1.00  0.00    -0.196 NA 
HETATM   21  C   UNL     1     -11.085  12.735  67.814  1.00  0.00    -0.253 C  
HETATM   22  C   UNL     1     -11.906  13.137  66.599  1.00  0.00    -0.449 C  
HETATM   23  C   UNL     1     -10.929  13.912  65.723  1.00  0.00    -0.285 C  
HETATM   24  C   UNL     1      -9.548  13.686  66.346  1.00  0.00    -0.268 C  
HETATM   25  O   UNL     1     -11.277  15.292  65.714  1.00  0.00    -0.325 OA 
HETATM   26  H   UNL     1     -10.668  15.775  65.167  1.00  0.00     0.000 HD 
ENDBRANCH  19  20
ENDBRANCH  13  14
ENDBRANCH  12  13
ENDBRANCH  11  12
ENDBRANCH   8  11
ENDBRANCH   2   3
TORSDOF 7
ENDMDL
MODEL      182
REMARK 921   NORMALIZED FREE ENERGY PREDICTED BY IDOCK:   -4.04 KCAL/MOL
REMARK 922        TOTAL FREE ENERGY PREDICTED BY IDOCK:   -6.62 KCAL/MOL
REMARK 923 INTER-LIGAND FREE ENERGY PREDICTED BY IDOCK:   -5.91 KCAL/MOL
REMARK 924 INTRA-LIGAND FREE ENERGY PREDICTED BY IDOCK:   -0.71 KCAL/MOL
REMARK 927      BINDING AFFINITY PREDICTED BY RF-SCORE:    0.00 PKD
ROOT
HETATM    1  C   UNL     1      -7.686   8.328  63.413  1.00  0.00    -0.142 C  
HETATM    2  O   UNL     1      -8.859   9.095  63.637  1.00  0.00    -0.178 OA 
ENDROOT
BRANCH   2   3
HETATM    3  C   UNL     1      -8.839   9.967  64.694  1.00  0.00    -0.200 A  
HETATM    4  C   UNL     1      -9.737  11.010  64.962  1.00  0.00    -0.254 A  
HETATM    5  C   UNL     1      -9.526  11.818  66.086  1.00  0.00    -0.240 A  
HETATM    6  C   UNL     1      -7.722   9.793  65.524  1.00  0.00    -0.121 A  
HETATM    7  C   UNL     1      -7.496  10.631  66.618  1.00  0.00    -0.129 A  
HETATM    8  C   UNL     1      -8.383  11.672  66.876  1.00  0.00    -0.169 A  
BRANCH   4   9
HETATM    9  O   UNL     1     -10.806  11.226  64.130  1.00  0.00    -0.357 OA 
HETATM   10  C   UNL     1     -11.777  12.146  64.627  1.00  0.00    -0.332 C  
ENDBRANCH   4   9
BRANCH   8  11
HETATM   11  C   UNL     1      -8.117  12.643  67.990  1.00  0.00    -0.161 C  
BRANCH  11  12
HETATM   12  C   UNL     1      -7.437  13.914  67.515  1.00  0.00    -0.169 C  
BRANCH  12  13
HETATM   13  O   UNL     1      -7.915  15.038  68.255  1.00  0.00    -0.120 OA 
BRANCH  13  14
HETATM   14  C   UNL     1      -9.116  15.658  67.752  1.00  0.00    -0.181 C  
HETATM   15  C   UNL     1      -8.807  16.512  66.512  1.00  0.00    -0.317 C  
HETATM   16  C   UNL     1      -9.975  17.387  66.082  1.00  0.00    -0.281 C  
HETATM   17  C   UNL     1     -10.457  18.226  67.255  1.00  0.00    -0.419 C  
HETATM   18  C   UNL     1     -11.010  17.315  68.347  1.00  0.00    -0.171 C  
HETATM   19  C   UNL     1      -9.923  16.374  68.888  1.00  0.00    -0.257 C  
BRANCH  19  20
HETATM   20  N   UNL     1     -10.321  15.383  69.916  1.00  0.00    -0.293 NA 
HETATM   21  C   UNL     1     -10.972  14.163  69.434  1.00  0.00    -0.179 C  
HETATM   22  C   UNL     1     -12.465  14.445  69.485  1.00  0.00    -0.164 C  
HETATM   23  C   UNL     1     -12.621  15.456  70.614  1.00  0.00    -0.439 C  
HETATM   24  C   UNL     1     -11.197  15.899  70.970  1.00  0.00    -0.326 C  
HETATM   25  O   UNL     1     -13.269  14.845  71.725  1.00  0.00    -0.308 OA 
HETATM   26  H   UNL     1     -13.365  15.476  72.429  1.00  0.00     0.000 HD 
ENDBRANCH  19  20
ENDBRANCH  13  14
ENDBRANCH  12  13
ENDBRANCH  11  12
ENDBRANCH   8  11
ENDBRANCH   2   3
TORSDOF 7
ENDMDL
MODEL      183
REMARK 921   NORMALIZED FREE ENERGY PREDICTED BY IDOCK:   -4.03 KCAL/MOL
REMARK 922        TOTAL FREE ENERGY PREDICTED BY IDOCK:   -6.60 KCAL/MOL
REMARK 923 INTER-LIGAND FREE ENERGY PREDICTED BY IDOCK:   -5.34 KCAL/MOL
REMARK 924 INTRA-LIGAND FREE ENERGY PREDICTED BY IDOCK:   -1.26 KCAL/MOL
REMARK 927      BINDING AFFINITY PREDICTED BY RF-SCORE:    0.00 PKD
ROOT
HETATM    1  C   UNL     1     -14.239   7.424  71.359  1.00  0.00    -0.364 C  
HETATM    2  O   UNL     1     -13.404   8.139  72.257  1.00  0.00    -0.251 OA 
ENDROOT
BRANCH   2   3
HETATM    3  C   UNL     1     -12.051   8.013  72.080  1.00  0.00    -0.331 A  
HETATM    4  C   UNL     1     -11.248   6.903  72.377  1.00  0.00    -0.266 A  
HETATM    5  C   UNL     1      -9.867   6.982  72.153  1.00  0.00    -0.168 A  
HETATM    6  C   UNL     1     -11.448   9.192  71.617  1.00  0.00    -0.451 A  
HETATM    7  C   UNL     1     -10.066   9.276  71.437  1.00  0.00    -0.348 A  
HETATM    8  C   UNL     1      -9.270   8.176  71.743  1.00  0.00    -0.232 A  
BRANCH   4   9
HETATM    9  O   UNL     1     -11.815   5.760  72.880  1.00  0.00    -0.179 OA 
HETATM   10  C   UNL     1     -10.949   4.966  73.690  1.00  0.00    -0.318 C  
ENDBRANCH   4   9
BRANCH   8  11
HETATM   11  C   UNL     1      -7.773   8.267  71.645  1.00  0.00    -0.122 C  
BRANCH  11  12
HETATM   12  C   UNL     1      -7.305   8.948  70.372  1.00  0.00    -0.070 C  
BRANCH  12  13
HETATM   13  O   UNL     1      -7.357   8.035  69.274  1.00  0.00    -0.077 OA 
BRANCH  13  14
HETATM   14  C   UNL     1      -8.122   8.468  68.132  1.00  0.00    -0.119 C  
HETATM   15  C   UNL     1      -8.615   9.911  68.323  1.00  0.00    -0.115 C  
HETATM   16  C   UNL     1      -9.631  10.341  67.276  1.00  0.00    -0.186 C  
HETATM   17  C   UNL     1     -10.777   9.343  67.220  1.00  0.00    -0.258 C  
HETATM   18  C   UNL     1     -10.256   7.987  66.752  1.00  0.00    -0.367 C  
HETATM   19  C   UNL     1      -9.219   7.422  67.734  1.00  0.00    -0.131 C  
BRANCH  19  20
HETATM   20  N   UNL     1      -8.574   6.133  67.386  1.00  0.00    -0.107 NA 
HETATM   21  C   UNL     1      -8.797   5.634  66.027  1.00  0.00    -0.146 C  
HETATM   22  C   UNL     1     -10.007   4.718  66.118  1.00  0.00    -0.261 C  
HETATM   23  C   UNL     1      -9.968   4.181  67.543  1.00  0.00    -0.004 C  
HETATM   24  C   UNL     1      -8.906   5.014  68.269  1.00  0.00    -0.102 C  
HETATM   25  O   UNL     1      -9.628   2.799  67.531  1.00  0.00    -0.370 OA 
HETATM   26  H   UNL     1      -9.604   2.464  68.420  1.00  0.00     0.000 HD 
ENDBRANCH  19  20
ENDBRANCH  13  14
ENDBRANCH  12  13
ENDBRANCH  11  12
ENDBRANCH   8  11
ENDBRANCH   2   3
TORSDOF 7
ENDMDL
MODEL      184
REMARK 921   NORMALIZED FREE ENERGY PREDICTED BY IDOCK:   -3.99 KCAL/MOL
REMARK 922        TOTAL FREE ENERGY PREDICTED BY IDOCK:   -6.55 KCAL/MOL
REMARK 923 INTER-LIGAND FREE ENERGY PREDICTED BY IDOCK:   -5.69 KCAL/MOL
REMARK 924 INTRA-LIGAND FREE ENERGY PREDICTED BY IDOCK:   -0.86 KCAL/MOL
REMARK 927      BINDING AFFINITY PREDICTED BY RF-SCORE:    0.00 PKD
ROOT
HETATM    1  C   UNL     1     -12.642  13.291  63.062  1.00  0.00     0.403 C  
HETATM    2  O   UNL     1     -12.299  11.978  63.480  1.00  0.00    -0.544 OA 
ENDROOT
BRANCH   2   3
HETATM    3  C   UNL     1     -11.478  11.869  64.572  1.00  0.00    -0.294 A  
HETATM    4  C   UNL     1     -10.310  11.103  64.692  1.00  0.00    -0.330 A  
HETATM    5  C   UNL     1      -9.622  11.097  65.912  1.00  0.00    -0.250 A  
HETATM    6  C   UNL     1     -11.960  12.566  65.689  1.00  0.00    -0.492 A  
HETATM    7  C   UNL     1     -11.292  12.520  66.914  1.00  0.00    -0.383 A  
HETATM    8  C   UNL     1     -10.138  11.750  67.034  1.00  0.00    -0.232 A  
BRANCH   4   9
HETATM    9  O   UNL     1      -9.854  10.374  63.623  1.00  0.00    -0.310 OA 
HETATM   10  C   UNL     1      -9.104  11.120  62.665  1.00  0.00    -0.330 C  
ENDBRANCH   4   9
BRANCH   8  11
HETATM   11  C   UNL     1      -9.449  11.610  68.361  1.00  0.00    -0.193 C  
BRANCH  11  12
HETATM   12  C   UNL     1      -7.952  11.848  68.277  1.00  0.00    -0.148 C  
BRANCH  12  13
HETATM   13  O   UNL     1      -7.576  12.938  69.120  1.00  0.00     0.075 OA 
BRANCH  13  14
HETATM   14  C   UNL     1      -7.302  14.185  68.450  1.00  0.00    -0.115 C  
HETATM   15  C   UNL     1      -5.793  14.478  68.446  1.00  0.00    -0.105 C  
HETATM   16  C   UNL     1      -5.459  15.888  67.981  1.00  0.00    -0.132 C  
HETATM   17  C   UNL     1      -6.242  16.906  68.796  1.00  0.00    -0.157 C  
HETATM   18  C   UNL     1      -7.736  16.733  68.536  1.00  0.00    -0.223 C  
HETATM   19  C   UNL     1      -8.219  15.342  68.975  1.00  0.00    -0.217 C  
BRANCH  19  20
HETATM   20  N   UNL     1      -9.640  15.000  68.731  1.00  0.00    -0.214 NA 
HETATM   21  C   UNL     1     -10.361  15.837  67.770  1.00  0.00    -0.275 C  
HETATM   22  C   UNL     1     -11.024  16.931  68.591  1.00  0.00    -0.262 C  
HETATM   23  C   UNL     1     -11.259  16.291  69.954  1.00  0.00    -0.317 C  
HETATM   24  C   UNL     1     -10.485  14.969  69.927  1.00  0.00    -0.154 C  
HETATM   25  O   UNL     1     -12.652  16.076  70.154  1.00  0.00    -0.494 OA 
HETATM   26  H   UNL     1     -12.798  15.677  71.004  1.00  0.00     0.000 HD 
ENDBRANCH  19  20
ENDBRANCH  13  14
ENDBRANCH  12  13
ENDBRANCH  11  12
ENDBRANCH   8  11
ENDBRANCH   2   3
TORSDOF 7
ENDMDL
MODEL      185
REMARK 921   NORMALIZED FREE ENERGY PREDICTED BY IDOCK:   -3.98 KCAL/MOL
REMARK 922        TOTAL FREE ENERGY PREDICTED BY IDOCK:   -6.53 KCAL/MOL
REMARK 923 INTER-LIGAND FREE ENERGY PREDICTED BY IDOCK:   -6.25 KCAL/MOL
REMARK 924 INTRA-LIGAND FREE ENERGY PREDICTED BY IDOCK:   -0.28 KCAL/MOL
REMARK 927      BINDING AFFINITY PREDICTED BY RF-SCORE:    0.00 PKD
ROOT
HETATM    1  C   UNL     1      -7.376   7.115  70.990  1.00  0.00    -0.075 C  
HETATM    2  O   UNL     1      -8.568   6.989  71.750  1.00  0.00    -0.115 OA 
ENDROOT
BRANCH   2   3
HETATM    3  C   UNL     1      -9.554   7.913  71.516  1.00  0.00    -0.151 A  
HETATM    4  C   UNL     1     -10.812   7.997  72.130  1.00  0.00    -0.279 A  
HETATM    5  C   UNL     1     -11.700   9.003  71.726  1.00  0.00    -0.440 A  
HETATM    6  C   UNL     1      -9.235   8.800  70.478  1.00  0.00    -0.218 A  
HETATM    7  C   UNL     1     -10.143   9.772  70.054  1.00  0.00    -0.301 A  
HETATM    8  C   UNL     1     -11.395   9.847  70.656  1.00  0.00    -0.413 A  
BRANCH   4   9
HETATM    9  O   UNL     1     -11.158   7.103  73.111  1.00  0.00    -0.307 OA 
HETATM   10  C   UNL     1     -11.515   5.804  72.640  1.00  0.00    -0.287 C  
ENDBRANCH   4   9
BRANCH   8  11
HETATM   11  C   UNL     1     -12.424  10.822  70.160  1.00  0.00    -0.357 C  
BRANCH  11  12
HETATM   12  C   UNL     1     -11.812  12.102  69.619  1.00  0.00    -0.322 C  
BRANCH  12  13
HETATM   13  O   UNL     1     -11.462  11.941  68.244  1.00  0.00    -0.262 OA 
BRANCH  13  14
HETATM   14  C   UNL     1     -11.249  13.159  67.503  1.00  0.00    -0.282 C  
HETATM   15  C   UNL     1     -12.305  13.314  66.398  1.00  0.00    -0.347 C  
HETATM   16  C   UNL     1     -11.993  14.440  65.424  1.00  0.00    -0.369 C  
HETATM   17  C   UNL     1     -10.590  14.270  64.861  1.00  0.00    -0.452 C  
HETATM   18  C   UNL     1      -9.565  14.404  65.985  1.00  0.00    -0.292 C  
HETATM   19  C   UNL     1      -9.758  13.310  67.045  1.00  0.00    -0.238 C  
BRANCH  19  20
HETATM   20  N   UNL     1      -8.873  13.342  68.234  1.00  0.00    -0.181 NA 
HETATM   21  C   UNL     1      -7.792  14.330  68.221  1.00  0.00    -0.141 C  
HETATM   22  C   UNL     1      -6.581  13.610  67.650  1.00  0.00    -0.176 C  
HETATM   23  C   UNL     1      -6.794  12.151  68.033  1.00  0.00    -0.081 C  
HETATM   24  C   UNL     1      -8.229  12.069  68.564  1.00  0.00    -0.113 C  
HETATM   25  O   UNL     1      -5.849  11.768  69.026  1.00  0.00    -0.051 OA 
HETATM   26  H   UNL     1      -5.982  10.858  69.265  1.00  0.00     0.000 HD 
ENDBRANCH  19  20
ENDBRANCH  13  14
ENDBRANCH  12  13
ENDBRANCH  11  12
ENDBRANCH   8  11
ENDBRANCH   2   3
TORSDOF 7
ENDMDL
MODEL      186
REMARK 921   NORMALIZED FREE ENERGY PREDICTED BY IDOCK:   -3.98 KCAL/MOL
REMARK 922        TOTAL FREE ENERGY PREDICTED BY IDOCK:   -6.52 KCAL/MOL
REMARK 923 INTER-LIGAND FREE ENERGY PREDICTED BY IDOCK:   -6.00 KCAL/MOL
REMARK 924 INTRA-LIGAND FREE ENERGY PREDICTED BY IDOCK:   -0.52 KCAL/MOL
REMARK 927      BINDING AFFINITY PREDICTED BY RF-SCORE:    0.00 PKD
ROOT
HETATM    1  C   UNL     1     -11.153  18.201  64.960  1.00  0.00     1.283 C  
HETATM    2  O   UNL     1     -11.315  16.962  64.285  1.00  0.00    -1.202 OA 
ENDROOT
BRANCH   2   3
HETATM    3  C   UNL     1     -11.000  15.828  64.985  1.00  0.00    -0.417 A  
HETATM    4  C   UNL     1     -11.501  14.533  64.789  1.00  0.00    -0.408 A  
HETATM    5  C   UNL     1     -11.076  13.503  65.638  1.00  0.00    -0.299 A  
HETATM    6  C   UNL     1     -10.129  16.072  66.058  1.00  0.00    -0.362 A  
HETATM    7  C   UNL     1      -9.745  15.047  66.925  1.00  0.00    -0.247 A  
HETATM    8  C   UNL     1     -10.252  13.765  66.735  1.00  0.00    -0.268 A  
BRANCH   4   9
HETATM    9  O   UNL     1     -12.393  14.288  63.777  1.00  0.00    -0.735 OA 
HETATM   10  C   UNL     1     -12.318  12.979  63.214  1.00  0.00    -0.306 C  
ENDBRANCH   4   9
BRANCH   8  11
HETATM   11  C   UNL     1      -9.927  12.664  67.704  1.00  0.00    -0.216 C  
BRANCH  11  12
HETATM   12  C   UNL     1     -10.844  11.463  67.562  1.00  0.00    -0.244 C  
BRANCH  12  13
HETATM   13  O   UNL     1     -10.177  10.277  67.995  1.00  0.00    -0.156 OA 
BRANCH  13  14
HETATM   14  C   UNL     1     -10.182   9.177  67.063  1.00  0.00    -0.263 C  
HETATM   15  C   UNL     1     -10.729   7.904  67.729  1.00  0.00    -0.189 C  
HETATM   16  C   UNL     1     -10.530   6.654  66.886  1.00  0.00    -0.349 C  
HETATM   17  C   UNL     1      -9.067   6.517  66.492  1.00  0.00    -0.166 C  
HETATM   18  C   UNL     1      -8.664   7.684  65.596  1.00  0.00    -0.119 C  
HETATM   19  C   UNL     1      -8.805   9.025  66.332  1.00  0.00    -0.146 C  
BRANCH  19  20
HETATM   20  N   UNL     1      -8.506  10.261  65.571  1.00  0.00    -0.156 NA 
HETATM   21  C   UNL     1      -9.374  10.554  64.428  1.00  0.00    -0.262 C  
HETATM   22  C   UNL     1      -8.686   9.942  63.219  1.00  0.00    -0.227 C  
HETATM   23  C   UNL     1      -7.204   9.978  63.570  1.00  0.00    -0.135 C  
HETATM   24  C   UNL     1      -7.140  10.357  65.053  1.00  0.00    -0.062 C  
HETATM   25  O   UNL     1      -6.537  10.939  62.757  1.00  0.00    -0.351 OA 
HETATM   26  H   UNL     1      -5.613  10.961  62.977  1.00  0.00     0.000 HD 
ENDBRANCH  19  20
ENDBRANCH  13  14
ENDBRANCH  12  13
ENDBRANCH  11  12
ENDBRANCH   8  11
ENDBRANCH   2   3
TORSDOF 7
ENDMDL
MODEL      187
REMARK 921   NORMALIZED FREE ENERGY PREDICTED BY IDOCK:   -3.97 KCAL/MOL
REMARK 922        TOTAL FREE ENERGY PREDICTED BY IDOCK:   -6.51 KCAL/MOL
REMARK 923 INTER-LIGAND FREE ENERGY PREDICTED BY IDOCK:   -5.72 KCAL/MOL
REMARK 924 INTRA-LIGAND FREE ENERGY PREDICTED BY IDOCK:   -0.79 KCAL/MOL
REMARK 927      BINDING AFFINITY PREDICTED BY RF-SCORE:    0.00 PKD
ROOT
HETATM    1  C   UNL     1     -14.407   8.456  71.977  1.00  0.00    -0.464 C  
HETATM    2  O   UNL     1     -13.149   8.945  72.419  1.00  0.00    -0.407 OA 
ENDROOT
BRANCH   2   3
HETATM    3  C   UNL     1     -12.085   8.777  71.572  1.00  0.00    -0.329 A  
HETATM    4  C   UNL     1     -11.276   7.641  71.428  1.00  0.00    -0.246 A  
HETATM    5  C   UNL     1     -10.207   7.677  70.523  1.00  0.00    -0.201 A  
HETATM    6  C   UNL     1     -11.773   9.938  70.850  1.00  0.00    -0.449 A  
HETATM    7  C   UNL     1     -10.680   9.978  69.982  1.00  0.00    -0.348 A  
HETATM    8  C   UNL     1      -9.872   8.853  69.848  1.00  0.00    -0.190 A  
BRANCH   4   9
HETATM    9  O   UNL     1     -11.537   6.514  72.165  1.00  0.00    -0.281 OA 
HETATM   10  C   UNL     1     -10.626   5.436  71.956  1.00  0.00    -0.224 C  
ENDBRANCH   4   9
BRANCH   8  11
HETATM   11  C   UNL     1      -8.638   8.896  68.992  1.00  0.00    -0.138 C  
BRANCH  11  12
HETATM   12  C   UNL     1      -7.660   9.975  69.421  1.00  0.00    -0.123 C  
BRANCH  12  13
HETATM   13  O   UNL     1      -7.268  10.763  68.295  1.00  0.00    -0.079 OA 
BRANCH  13  14
HETATM   14  C   UNL     1      -7.023  10.037  67.074  1.00  0.00    -0.088 C  
HETATM   15  C   UNL     1      -5.517   9.813  66.869  1.00  0.00    -0.046 C  
HETATM   16  C   UNL     1      -5.173   9.278  65.487  1.00  0.00    -0.036 C  
HETATM   17  C   UNL     1      -5.775  10.175  64.416  1.00  0.00    -0.122 C  
HETATM   18  C   UNL     1      -7.298  10.133  64.505  1.00  0.00    -0.121 C  
HETATM   19  C   UNL     1      -7.790  10.662  65.860  1.00  0.00    -0.150 C  
BRANCH  19  20
HETATM   20  N   UNL     1      -9.249  10.629  66.122  1.00  0.00    -0.167 NA 
HETATM   21  C   UNL     1     -10.114  10.323  64.980  1.00  0.00    -0.283 C  
HETATM   22  C   UNL     1     -10.504  11.667  64.386  1.00  0.00    -0.374 C  
HETATM   23  C   UNL     1     -10.465  12.628  65.568  1.00  0.00    -0.281 C  
HETATM   24  C   UNL     1      -9.802  11.851  66.710  1.00  0.00    -0.197 C  
HETATM   25  O   UNL     1     -11.787  13.030  65.910  1.00  0.00    -0.372 OA 
HETATM   26  H   UNL     1     -11.762  13.629  66.647  1.00  0.00     0.000 HD 
ENDBRANCH  19  20
ENDBRANCH  13  14
ENDBRANCH  12  13
ENDBRANCH  11  12
ENDBRANCH   8  11
ENDBRANCH   2   3
TORSDOF 7
ENDMDL
MODEL      188
REMARK 921   NORMALIZED FREE ENERGY PREDICTED BY IDOCK:   -3.94 KCAL/MOL
REMARK 922        TOTAL FREE ENERGY PREDICTED BY IDOCK:   -6.48 KCAL/MOL
REMARK 923 INTER-LIGAND FREE ENERGY PREDICTED BY IDOCK:   -5.89 KCAL/MOL
REMARK 924 INTRA-LIGAND FREE ENERGY PREDICTED BY IDOCK:   -0.59 KCAL/MOL
REMARK 927      BINDING AFFINITY PREDICTED BY RF-SCORE:    0.00 PKD
ROOT
HETATM    1  C   UNL     1      -9.801   8.861  67.200  1.00  0.00    -0.207 C  
HETATM    2  O   UNL     1     -10.509   9.800  66.405  1.00  0.00    -0.204 OA 
ENDROOT
BRANCH   2   3
HETATM    3  C   UNL     1     -10.184  11.121  66.567  1.00  0.00    -0.231 A  
HETATM    4  C   UNL     1     -10.626  12.212  65.806  1.00  0.00    -0.260 A  
HETATM    5  C   UNL     1     -10.150  13.493  66.111  1.00  0.00    -0.307 A  
HETATM    6  C   UNL     1      -9.236  11.330  67.579  1.00  0.00    -0.159 A  
HETATM    7  C   UNL     1      -8.734  12.604  67.849  1.00  0.00    -0.181 A  
HETATM    8  C   UNL     1      -9.166  13.684  67.084  1.00  0.00    -0.244 A  
BRANCH   4   9
HETATM    9  O   UNL     1     -11.515  12.017  64.779  1.00  0.00    -0.322 OA 
HETATM   10  C   UNL     1     -10.917  11.838  63.495  1.00  0.00    -0.424 C  
ENDBRANCH   4   9
BRANCH   8  11
HETATM   11  C   UNL     1      -8.577  15.050  67.292  1.00  0.00    -0.226 C  
BRANCH  11  12
HETATM   12  C   UNL     1      -7.082  15.015  67.554  1.00  0.00    -0.197 C  
BRANCH  12  13
HETATM   13  O   UNL     1      -6.589  16.335  67.786  1.00  0.00    -0.120 OA 
BRANCH  13  14
HETATM   14  C   UNL     1      -6.685  17.247  66.674  1.00  0.00    -0.233 C  
HETATM   15  C   UNL     1      -5.341  17.346  65.935  1.00  0.00    -0.013 C  
HETATM   16  C   UNL     1      -5.300  18.471  64.913  1.00  0.00    -0.201 C  
HETATM   17  C   UNL     1      -5.696  19.786  65.567  1.00  0.00    -0.199 C  
HETATM   18  C   UNL     1      -7.147  19.711  66.036  1.00  0.00    -0.293 C  
HETATM   19  C   UNL     1      -7.333  18.611  67.093  1.00  0.00    -0.210 C  
BRANCH  19  20
HETATM   20  N   UNL     1      -8.704  18.374  67.604  1.00  0.00    -0.258 NA 
HETATM   21  C   UNL     1      -9.807  18.875  66.781  1.00  0.00    -0.348 C  
HETATM   22  C   UNL     1     -10.118  20.266  67.310  1.00  0.00    -0.545 C  
HETATM   23  C   UNL     1      -9.721  20.209  68.780  1.00  0.00    -0.069 C  
HETATM   24  C   UNL     1      -8.962  18.889  68.951  1.00  0.00    -0.230 C  
HETATM   25  O   UNL     1     -10.885  20.250  69.598  1.00  0.00    -0.211 OA 
HETATM   26  H   UNL     1     -10.637  20.214  70.515  1.00  0.00     0.000 HD 
ENDBRANCH  19  20
ENDBRANCH  13  14
ENDBRANCH  12  13
ENDBRANCH  11  12
ENDBRANCH   8  11
ENDBRANCH   2   3
TORSDOF 7
ENDMDL
MODEL      189
REMARK 921   NORMALIZED FREE ENERGY PREDICTED BY IDOCK:   -3.94 KCAL/MOL
REMARK 922        TOTAL FREE ENERGY PREDICTED BY IDOCK:   -6.47 KCAL/MOL
REMARK 923 INTER-LIGAND FREE ENERGY PREDICTED BY IDOCK:   -6.19 KCAL/MOL
REMARK 924 INTRA-LIGAND FREE ENERGY PREDICTED BY IDOCK:   -0.28 KCAL/MOL
REMARK 927      BINDING AFFINITY PREDICTED BY RF-SCORE:    0.00 PKD
ROOT
HETATM    1  C   UNL     1      -5.987   4.276  65.323  1.00  0.00    -0.023 C  
HETATM    2  O   UNL     1      -7.404   4.208  65.294  1.00  0.00    -0.070 OA 
ENDROOT
BRANCH   2   3
HETATM    3  C   UNL     1      -8.088   5.323  65.701  1.00  0.00    -0.117 A  
HETATM    4  C   UNL     1      -9.443   5.418  66.050  1.00  0.00    -0.146 A  
HETATM    5  C   UNL     1      -9.967   6.666  66.412  1.00  0.00    -0.076 A  
HETATM    6  C   UNL     1      -7.305   6.486  65.670  1.00  0.00    -0.076 A  
HETATM    7  C   UNL     1      -7.846   7.732  65.990  1.00  0.00    -0.100 A  
HETATM    8  C   UNL     1      -9.193   7.826  66.326  1.00  0.00    -0.217 A  
BRANCH   4   9
HETATM    9  O   UNL     1     -10.235   4.299  66.036  1.00  0.00    -0.224 OA 
HETATM   10  C   UNL     1     -10.884   4.039  64.791  1.00  0.00    -0.068 C  
ENDBRANCH   4   9
BRANCH   8  11
HETATM   11  C   UNL     1      -9.824   9.164  66.588  1.00  0.00    -0.307 C  
BRANCH  11  12
HETATM   12  C   UNL     1      -8.855  10.318  66.408  1.00  0.00    -0.145 C  
BRANCH  12  13
HETATM   13  O   UNL     1      -9.197  11.076  65.246  1.00  0.00    -0.204 OA 
BRANCH  13  14
HETATM   14  C   UNL     1     -10.555  11.555  65.185  1.00  0.00    -0.293 C  
HETATM   15  C   UNL     1     -11.070  11.546  63.737  1.00  0.00    -0.471 C  
HETATM   16  C   UNL     1     -12.397  12.269  63.569  1.00  0.00    -0.670 C  
HETATM   17  C   UNL     1     -12.301  13.676  64.138  1.00  0.00    -0.385 C  
HETATM   18  C   UNL     1     -12.061  13.607  65.644  1.00  0.00    -0.457 C  
HETATM   19  C   UNL     1     -10.733  12.904  65.963  1.00  0.00    -0.277 C  
BRANCH  19  20
HETATM   20  N   UNL     1     -10.386  12.706  67.390  1.00  0.00    -0.220 NA 
HETATM   21  C   UNL     1     -11.501  12.461  68.308  1.00  0.00    -0.310 C  
HETATM   22  C   UNL     1     -11.895  13.825  68.851  1.00  0.00    -0.396 C  
HETATM   23  C   UNL     1     -10.606  14.637  68.806  1.00  0.00    -0.248 C  
HETATM   24  C   UNL     1      -9.615  13.792  67.998  1.00  0.00    -0.214 C  
HETATM   25  O   UNL     1     -10.134  14.871  70.128  1.00  0.00    -0.479 OA 
HETATM   26  H   UNL     1      -9.330  15.377  70.099  1.00  0.00     0.000 HD 
ENDBRANCH  19  20
ENDBRANCH  13  14
ENDBRANCH  12  13
ENDBRANCH  11  12
ENDBRANCH   8  11
ENDBRANCH   2   3
TORSDOF 7
ENDMDL
MODEL      190
REMARK 921   NORMALIZED FREE ENERGY PREDICTED BY IDOCK:   -3.94 KCAL/MOL
REMARK 922        TOTAL FREE ENERGY PREDICTED BY IDOCK:   -6.47 KCAL/MOL
REMARK 923 INTER-LIGAND FREE ENERGY PREDICTED BY IDOCK:   -5.82 KCAL/MOL
REMARK 924 INTRA-LIGAND FREE ENERGY PREDICTED BY IDOCK:   -0.65 KCAL/MOL
REMARK 927      BINDING AFFINITY PREDICTED BY RF-SCORE:    0.00 PKD
ROOT
HETATM    1  C   UNL     1     -11.975  14.140  68.160  1.00  0.00    -0.332 C  
HETATM    2  O   UNL     1     -11.257  13.972  66.947  1.00  0.00    -0.297 OA 
ENDROOT
BRANCH   2   3
HETATM    3  C   UNL     1     -10.822  12.706  66.654  1.00  0.00    -0.258 A  
HETATM    4  C   UNL     1     -10.857  12.054  65.413  1.00  0.00    -0.291 A  
HETATM    5  C   UNL     1     -10.390  10.736  65.323  1.00  0.00    -0.327 A  
HETATM    6  C   UNL     1     -10.373  12.007  67.784  1.00  0.00    -0.210 A  
HETATM    7  C   UNL     1      -9.951  10.680  67.693  1.00  0.00    -0.197 A  
HETATM    8  C   UNL     1      -9.996  10.031  66.462  1.00  0.00    -0.286 A  
BRANCH   4   9
HETATM    9  O   UNL     1     -11.341  12.707  64.308  1.00  0.00    -0.321 OA 
HETATM   10  C   UNL     1     -12.299  11.971  63.548  1.00  0.00    -0.551 C  
ENDBRANCH   4   9
BRANCH   8  11
HETATM   11  C   UNL     1      -9.633   8.577  66.352  1.00  0.00    -0.314 C  
BRANCH  11  12
HETATM   12  C   UNL     1     -10.319   7.717  67.397  1.00  0.00    -0.277 C  
BRANCH  12  13
HETATM   13  O   UNL     1      -9.364   7.231  68.342  1.00  0.00    -0.143 OA 
BRANCH  13  14
HETATM   14  C   UNL     1      -9.736   7.351  69.730  1.00  0.00    -0.170 C  
HETATM   15  C   UNL     1     -11.258   7.223  69.897  1.00  0.00    -0.195 C  
HETATM   16  C   UNL     1     -11.740   7.587  71.293  1.00  0.00    -0.312 C  
HETATM   17  C   UNL     1     -11.232   8.969  71.677  1.00  0.00    -0.431 C  
HETATM   18  C   UNL     1      -9.708   8.952  71.761  1.00  0.00    -0.365 C  
HETATM   19  C   UNL     1      -9.080   8.606  70.403  1.00  0.00    -0.159 C  
BRANCH  19  20
HETATM   20  N   UNL     1      -7.604   8.491  70.337  1.00  0.00    -0.070 NA 
HETATM   21  C   UNL     1      -6.835   9.650  70.794  1.00  0.00    -0.086 C  
HETATM   22  C   UNL     1      -6.576  10.489  69.553  1.00  0.00    -0.080 C  
HETATM   23  C   UNL     1      -6.556   9.479  68.412  1.00  0.00    -0.053 C  
HETATM   24  C   UNL     1      -7.065   8.166  69.015  1.00  0.00    -0.062 C  
HETATM   25  O   UNL     1      -5.231   9.342  67.910  1.00  0.00    -0.037 OA 
HETATM   26  H   UNL     1      -5.219   8.713  67.198  1.00  0.00     0.000 HD 
ENDBRANCH  19  20
ENDBRANCH  13  14
ENDBRANCH  12  13
ENDBRANCH  11  12
ENDBRANCH   8  11
ENDBRANCH   2   3
TORSDOF 7
ENDMDL
MODEL      191
REMARK 921   NORMALIZED FREE ENERGY PREDICTED BY IDOCK:   -3.93 KCAL/MOL
REMARK 922        TOTAL FREE ENERGY PREDICTED BY IDOCK:   -6.46 KCAL/MOL
REMARK 923 INTER-LIGAND FREE ENERGY PREDICTED BY IDOCK:   -5.73 KCAL/MOL
REMARK 924 INTRA-LIGAND FREE ENERGY PREDICTED BY IDOCK:   -0.73 KCAL/MOL
REMARK 927      BINDING AFFINITY PREDICTED BY RF-SCORE:    0.00 PKD
ROOT
HETATM    1  C   UNL     1     -11.851  12.476  67.832  1.00  0.00    -0.323 C  
HETATM    2  O   UNL     1     -11.238  11.204  67.682  1.00  0.00    -0.267 OA 
ENDROOT
BRANCH   2   3
HETATM    3  C   UNL     1     -10.797  10.589  68.824  1.00  0.00    -0.231 A  
HETATM    4  C   UNL     1      -9.608   9.868  69.005  1.00  0.00    -0.186 A  
HETATM    5  C   UNL     1      -9.350   9.281  70.251  1.00  0.00    -0.277 A  
HETATM    6  C   UNL     1     -11.723  10.661  69.875  1.00  0.00    -0.395 A  
HETATM    7  C   UNL     1     -11.477  10.037  71.100  1.00  0.00    -0.432 A  
HETATM    8  C   UNL     1     -10.301   9.313  71.273  1.00  0.00    -0.397 A  
BRANCH   4   9
HETATM    9  O   UNL     1      -8.716   9.745  67.970  1.00  0.00    -0.119 OA 
HETATM   10  C   UNL     1      -8.832   8.537  67.219  1.00  0.00    -0.130 C  
ENDBRANCH   4   9
BRANCH   8  11
HETATM   11  C   UNL     1     -10.051   8.557  72.548  1.00  0.00    -0.320 C  
BRANCH  11  12
HETATM   12  C   UNL     1     -11.242   7.721  72.981  1.00  0.00    -0.321 C  
BRANCH  12  13
HETATM   13  O   UNL     1     -11.643   6.845  71.926  1.00  0.00    -0.262 OA 
BRANCH  13  14
HETATM   14  C   UNL     1     -11.141   5.496  72.003  1.00  0.00    -0.184 C  
HETATM   15  C   UNL     1     -11.559   4.836  73.327  1.00  0.00    -0.286 C  
HETATM   16  C   UNL     1     -10.859   3.511  73.583  1.00  0.00    -0.324 C  
HETATM   17  C   UNL     1      -9.352   3.688  73.478  1.00  0.00    -0.119 C  
HETATM   18  C   UNL     1      -8.978   4.079  72.051  1.00  0.00    -0.152 C  
HETATM   19  C   UNL     1      -9.614   5.421  71.658  1.00  0.00    -0.150 C  
BRANCH  19  20
HETATM   20  N   UNL     1      -9.392   5.908  70.276  1.00  0.00    -0.156 NA 
HETATM   21  C   UNL     1     -10.237   5.325  69.232  1.00  0.00    -0.231 C  
HETATM   22  C   UNL     1      -9.453   4.147  68.676  1.00  0.00    -0.221 C  
HETATM   23  C   UNL     1      -7.994   4.532  68.886  1.00  0.00    -0.074 C  
HETATM   24  C   UNL     1      -8.020   5.774  69.783  1.00  0.00    -0.100 C  
HETATM   25  O   UNL     1      -7.380   4.808  67.631  1.00  0.00    -0.072 OA 
HETATM   26  H   UNL     1      -6.470   5.047  67.763  1.00  0.00     0.000 HD 
ENDBRANCH  19  20
ENDBRANCH  13  14
ENDBRANCH  12  13
ENDBRANCH  11  12
ENDBRANCH   8  11
ENDBRANCH   2   3
TORSDOF 7
ENDMDL
MODEL      192
REMARK 921   NORMALIZED FREE ENERGY PREDICTED BY IDOCK:   -3.91 KCAL/MOL
REMARK 922        TOTAL FREE ENERGY PREDICTED BY IDOCK:   -6.44 KCAL/MOL
REMARK 923 INTER-LIGAND FREE ENERGY PREDICTED BY IDOCK:   -5.76 KCAL/MOL
REMARK 924 INTRA-LIGAND FREE ENERGY PREDICTED BY IDOCK:   -0.68 KCAL/MOL
REMARK 927      BINDING AFFINITY PREDICTED BY RF-SCORE:    0.00 PKD
ROOT
HETATM    1  C   UNL     1      -7.390   5.084  66.448  1.00  0.00    -0.085 C  
HETATM    2  O   UNL     1      -8.066   6.100  65.723  1.00  0.00    -0.112 OA 
ENDROOT
BRANCH   2   3
HETATM    3  C   UNL     1      -8.506   7.183  66.437  1.00  0.00    -0.130 A  
HETATM    4  C   UNL     1      -9.724   7.323  67.119  1.00  0.00    -0.168 A  
HETATM    5  C   UNL     1     -10.005   8.532  67.768  1.00  0.00    -0.241 A  
HETATM    6  C   UNL     1      -7.626   8.273  66.374  1.00  0.00    -0.091 A  
HETATM    7  C   UNL     1      -7.934   9.488  66.988  1.00  0.00    -0.109 A  
HETATM    8  C   UNL     1      -9.147   9.629  67.655  1.00  0.00    -0.141 A  
BRANCH   4   9
HETATM    9  O   UNL     1     -10.619   6.284  67.145  1.00  0.00    -0.229 OA 
HETATM   10  C   UNL     1     -11.013   5.866  68.452  1.00  0.00    -0.178 C  
ENDBRANCH   4   9
BRANCH   8  11
HETATM   11  C   UNL     1      -9.545  10.951  68.247  1.00  0.00    -0.169 C  
BRANCH  11  12
HETATM   12  C   UNL     1      -8.606  12.079  67.856  1.00  0.00    -0.165 C  
BRANCH  12  13
HETATM   13  O   UNL     1      -8.922  12.554  66.546  1.00  0.00    -0.207 OA 
BRANCH  13  14
HETATM   14  C   UNL     1     -10.287  12.969  66.340  1.00  0.00    -0.281 C  
HETATM   15  C   UNL     1     -10.969  12.086  65.283  1.00  0.00    -0.356 C  
HETATM   16  C   UNL     1     -12.321  12.622  64.837  1.00  0.00    -0.563 C  
HETATM   17  C   UNL     1     -12.187  14.067  64.383  1.00  0.00    -0.457 C  
HETATM   18  C   UNL     1     -11.769  14.941  65.563  1.00  0.00    -0.211 C  
HETATM   19  C   UNL     1     -10.399  14.515  66.112  1.00  0.00    -0.297 C  
BRANCH  19  20
HETATM   20  N   UNL     1      -9.882  15.232  67.301  1.00  0.00    -0.220 NA 
HETATM   21  C   UNL     1     -10.802  16.167  67.954  1.00  0.00    -0.332 C  
HETATM   22  C   UNL     1     -10.527  17.524  67.326  1.00  0.00    -0.327 C  
HETATM   23  C   UNL     1      -9.061  17.459  66.914  1.00  0.00    -0.245 C  
HETATM   24  C   UNL     1      -8.650  15.992  67.081  1.00  0.00    -0.194 C  
HETATM   25  O   UNL     1      -8.286  18.316  67.746  1.00  0.00    -0.248 OA 
HETATM   26  H   UNL     1      -7.372  18.275  67.488  1.00  0.00     0.000 HD 
ENDBRANCH  19  20
ENDBRANCH  13  14
ENDBRANCH  12  13
ENDBRANCH  11  12
ENDBRANCH   8  11
ENDBRANCH   2   3
TORSDOF 7
ENDMDL
MODEL      193
REMARK 921   NORMALIZED FREE ENERGY PREDICTED BY IDOCK:   -3.91 KCAL/MOL
REMARK 922        TOTAL FREE ENERGY PREDICTED BY IDOCK:   -6.43 KCAL/MOL
REMARK 923 INTER-LIGAND FREE ENERGY PREDICTED BY IDOCK:   -6.15 KCAL/MOL
REMARK 924 INTRA-LIGAND FREE ENERGY PREDICTED BY IDOCK:   -0.28 KCAL/MOL
REMARK 927      BINDING AFFINITY PREDICTED BY RF-SCORE:    0.00 PKD
ROOT
HETATM    1  C   UNL     1      -6.767  10.343  70.085  1.00  0.00    -0.150 C  
HETATM    2  O   UNL     1      -5.644  11.065  70.569  1.00  0.00    -0.099 OA 
ENDROOT
BRANCH   2   3
HETATM    3  C   UNL     1      -5.642  12.420  70.363  1.00  0.00    -0.162 A  
HETATM    4  C   UNL     1      -5.492  13.432  71.322  1.00  0.00    -0.198 A  
HETATM    5  C   UNL     1      -5.551  14.771  70.914  1.00  0.00    -0.140 A  
HETATM    6  C   UNL     1      -5.901  12.770  69.030  1.00  0.00    -0.076 A  
HETATM    7  C   UNL     1      -6.001  14.107  68.640  1.00  0.00    -0.089 A  
HETATM    8  C   UNL     1      -5.863  15.110  69.595  1.00  0.00    -0.112 A  
BRANCH   4   9
HETATM    9  O   UNL     1      -5.290  13.105  72.639  1.00  0.00    -0.397 OA 
HETATM   10  C   UNL     1      -5.280  14.214  73.537  1.00  0.00    -0.345 C  
ENDBRANCH   4   9
BRANCH   8  11
HETATM   11  C   UNL     1      -6.055  16.552  69.221  1.00  0.00    -0.174 C  
BRANCH  11  12
HETATM   12  C   UNL     1      -6.112  16.770  67.720  1.00  0.00    -0.138 C  
BRANCH  12  13
HETATM   13  O   UNL     1      -7.304  16.196  67.181  1.00  0.00    -0.173 OA 
BRANCH  13  14
HETATM   14  C   UNL     1      -8.153  17.093  66.438  1.00  0.00    -0.302 C  
HETATM   15  C   UNL     1      -7.945  18.544  66.898  1.00  0.00    -0.250 C  
HETATM   16  C   UNL     1      -8.981  19.506  66.336  1.00  0.00    -0.410 C  
HETATM   17  C   UNL     1     -10.383  18.999  66.640  1.00  0.00    -0.501 C  
HETATM   18  C   UNL     1     -10.619  17.674  65.920  1.00  0.00    -0.203 C  
HETATM   19  C   UNL     1      -9.639  16.596  66.404  1.00  0.00    -0.285 C  
BRANCH  19  20
HETATM   20  N   UNL     1      -9.703  15.266  65.752  1.00  0.00    -0.347 NA 
HETATM   21  C   UNL     1     -10.784  15.061  64.785  1.00  0.00    -0.330 C  
HETATM   22  C   UNL     1     -11.934  14.455  65.573  1.00  0.00    -0.358 C  
HETATM   23  C   UNL     1     -11.257  13.699  66.709  1.00  0.00    -0.314 C  
HETATM   24  C   UNL     1      -9.786  14.128  66.671  1.00  0.00    -0.288 C  
HETATM   25  O   UNL     1     -11.396  12.296  66.509  1.00  0.00    -0.311 OA 
HETATM   26  H   UNL     1     -10.973  11.826  67.218  1.00  0.00     0.000 HD 
ENDBRANCH  19  20
ENDBRANCH  13  14
ENDBRANCH  12  13
ENDBRANCH  11  12
ENDBRANCH   8  11
ENDBRANCH   2   3
TORSDOF 7
ENDMDL
MODEL      194
REMARK 921   NORMALIZED FREE ENERGY PREDICTED BY IDOCK:   -3.90 KCAL/MOL
REMARK 922        TOTAL FREE ENERGY PREDICTED BY IDOCK:   -6.41 KCAL/MOL
REMARK 923 INTER-LIGAND FREE ENERGY PREDICTED BY IDOCK:   -5.83 KCAL/MOL
REMARK 924 INTRA-LIGAND FREE ENERGY PREDICTED BY IDOCK:   -0.58 KCAL/MOL
REMARK 927      BINDING AFFINITY PREDICTED BY RF-SCORE:    0.00 PKD
ROOT
HETATM    1  C   UNL     1     -10.489  18.239  66.488  1.00  0.00    -0.356 C  
HETATM    2  O   UNL     1     -10.302  17.203  65.535  1.00  0.00    -0.599 OA 
ENDROOT
BRANCH   2   3
HETATM    3  C   UNL     1      -9.917  15.979  66.016  1.00  0.00    -0.339 A  
HETATM    4  C   UNL     1     -10.701  14.823  66.144  1.00  0.00    -0.314 A  
HETATM    5  C   UNL     1     -10.128  13.669  66.693  1.00  0.00    -0.277 A  
HETATM    6  C   UNL     1      -8.598  15.969  66.491  1.00  0.00    -0.344 A  
HETATM    7  C   UNL     1      -8.048  14.827  67.077  1.00  0.00    -0.177 A  
HETATM    8  C   UNL     1      -8.831  13.685  67.212  1.00  0.00    -0.227 A  
BRANCH   4   9
HETATM    9  O   UNL     1     -12.009  14.832  65.731  1.00  0.00    -0.281 OA 
HETATM   10  C   UNL     1     -12.212  14.452  64.370  1.00  0.00    -0.458 C  
ENDBRANCH   4   9
BRANCH   8  11
HETATM   11  C   UNL     1      -8.296  12.472  67.919  1.00  0.00    -0.167 C  
BRANCH  11  12
HETATM   12  C   UNL     1      -8.195  11.258  67.014  1.00  0.00    -0.151 C  
BRANCH  12  13
HETATM   13  O   UNL     1      -8.175  10.060  67.792  1.00  0.00    -0.113 OA 
BRANCH  13  14
HETATM   14  C   UNL     1      -7.607   8.902  67.150  1.00  0.00    -0.092 C  
HETATM   15  C   UNL     1      -7.013   9.276  65.783  1.00  0.00    -0.085 C  
HETATM   16  C   UNL     1      -6.623   8.066  64.948  1.00  0.00    -0.051 C  
HETATM   17  C   UNL     1      -7.804   7.115  64.823  1.00  0.00    -0.126 C  
HETATM   18  C   UNL     1      -8.167   6.563  66.199  1.00  0.00    -0.123 C  
HETATM   19  C   UNL     1      -8.597   7.688  67.153  1.00  0.00    -0.121 C  
BRANCH  19  20
HETATM   20  N   UNL     1      -8.925   7.316  68.550  1.00  0.00    -0.131 NA 
HETATM   21  C   UNL     1      -8.926   5.886  68.865  1.00  0.00    -0.118 C  
HETATM   22  C   UNL     1     -10.360   5.420  68.669  1.00  0.00    -0.229 C  
HETATM   23  C   UNL     1     -11.201   6.657  68.958  1.00  0.00    -0.220 C  
HETATM   24  C   UNL     1     -10.209   7.821  69.042  1.00  0.00    -0.208 C  
HETATM   25  O   UNL     1     -11.909   6.486  70.181  1.00  0.00    -0.525 OA 
HETATM   26  H   UNL     1     -12.434   7.258  70.361  1.00  0.00     0.000 HD 
ENDBRANCH  19  20
ENDBRANCH  13  14
ENDBRANCH  12  13
ENDBRANCH  11  12
ENDBRANCH   8  11
ENDBRANCH   2   3
TORSDOF 7
ENDMDL
MODEL      195
REMARK 921   NORMALIZED FREE ENERGY PREDICTED BY IDOCK:   -3.90 KCAL/MOL
REMARK 922        TOTAL FREE ENERGY PREDICTED BY IDOCK:   -6.41 KCAL/MOL
REMARK 923 INTER-LIGAND FREE ENERGY PREDICTED BY IDOCK:   -6.01 KCAL/MOL
REMARK 924 INTRA-LIGAND FREE ENERGY PREDICTED BY IDOCK:   -0.41 KCAL/MOL
REMARK 927      BINDING AFFINITY PREDICTED BY RF-SCORE:    0.00 PKD
ROOT
HETATM    1  C   UNL     1      -7.656   8.537  66.050  1.00  0.00    -0.089 C  
HETATM    2  O   UNL     1      -8.498   8.565  64.906  1.00  0.00    -0.173 OA 
ENDROOT
BRANCH   2   3
HETATM    3  C   UNL     1      -9.280   9.678  64.739  1.00  0.00    -0.238 A  
HETATM    4  C   UNL     1      -9.524  10.383  63.553  1.00  0.00    -0.312 A  
HETATM    5  C   UNL     1     -10.335  11.525  63.594  1.00  0.00    -0.467 A  
HETATM    6  C   UNL     1      -9.807  10.161  65.946  1.00  0.00    -0.308 A  
HETATM    7  C   UNL     1     -10.579  11.324  65.984  1.00  0.00    -0.314 A  
HETATM    8  C   UNL     1     -10.810  12.029  64.807  1.00  0.00    -0.354 A  
BRANCH   4   9
HETATM    9  O   UNL     1      -8.973   9.953  62.373  1.00  0.00    -0.227 OA 
HETATM   10  C   UNL     1      -7.564   9.728  62.415  1.00  0.00    -0.109 C  
ENDBRANCH   4   9
BRANCH   8  11
HETATM   11  C   UNL     1     -11.560  13.331  64.831  1.00  0.00    -0.353 C  
BRANCH  11  12
HETATM   12  C   UNL     1     -10.679  14.512  65.197  1.00  0.00    -0.406 C  
BRANCH  12  13
HETATM   13  O   UNL     1     -11.186  15.166  66.361  1.00  0.00    -0.339 OA 
BRANCH  13  14
HETATM   14  C   UNL     1     -10.376  16.237  66.884  1.00  0.00    -0.299 C  
HETATM   15  C   UNL     1     -10.468  17.478  65.981  1.00  0.00    -0.274 C  
HETATM   16  C   UNL     1      -9.450  18.552  66.334  1.00  0.00    -0.304 C  
HETATM   17  C   UNL     1      -8.050  17.957  66.357  1.00  0.00    -0.296 C  
HETATM   18  C   UNL     1      -7.951  16.918  67.470  1.00  0.00    -0.186 C  
HETATM   19  C   UNL     1      -8.926  15.755  67.233  1.00  0.00    -0.196 C  
BRANCH  19  20
HETATM   20  N   UNL     1      -8.990  14.691  68.262  1.00  0.00    -0.178 NA 
HETATM   21  C   UNL     1      -8.508  15.043  69.600  1.00  0.00     0.001 C  
HETATM   22  C   UNL     1      -7.043  14.639  69.631  1.00  0.00    -0.125 C  
HETATM   23  C   UNL     1      -6.951  13.476  68.650  1.00  0.00    -0.100 C  
HETATM   24  C   UNL     1      -8.296  13.449  67.915  1.00  0.00    -0.166 C  
HETATM   25  O   UNL     1      -6.719  12.263  69.357  1.00  0.00    -0.192 OA 
HETATM   26  H   UNL     1      -6.661  11.538  68.745  1.00  0.00     0.000 HD 
ENDBRANCH  19  20
ENDBRANCH  13  14
ENDBRANCH  12  13
ENDBRANCH  11  12
ENDBRANCH   8  11
ENDBRANCH   2   3
TORSDOF 7
ENDMDL
MODEL      196
REMARK 921   NORMALIZED FREE ENERGY PREDICTED BY IDOCK:   -3.90 KCAL/MOL
REMARK 922        TOTAL FREE ENERGY PREDICTED BY IDOCK:   -6.41 KCAL/MOL
REMARK 923 INTER-LIGAND FREE ENERGY PREDICTED BY IDOCK:   -5.64 KCAL/MOL
REMARK 924 INTRA-LIGAND FREE ENERGY PREDICTED BY IDOCK:   -0.77 KCAL/MOL
REMARK 927      BINDING AFFINITY PREDICTED BY RF-SCORE:    0.00 PKD
ROOT
HETATM    1  C   UNL     1     -14.189  13.854  71.964  1.00  0.00    -0.446 C  
HETATM    2  O   UNL     1     -12.787  13.880  71.741  1.00  0.00    -0.328 OA 
ENDROOT
BRANCH   2   3
HETATM    3  C   UNL     1     -12.349  13.495  70.501  1.00  0.00    -0.342 A  
HETATM    4  C   UNL     1     -11.892  12.229  70.108  1.00  0.00    -0.272 A  
HETATM    5  C   UNL     1     -11.452  12.042  68.791  1.00  0.00    -0.355 A  
HETATM    6  C   UNL     1     -12.304  14.555  69.584  1.00  0.00    -0.284 A  
HETATM    7  C   UNL     1     -11.824  14.370  68.286  1.00  0.00    -0.361 A  
HETATM    8  C   UNL     1     -11.361  13.115  67.902  1.00  0.00    -0.321 A  
BRANCH   4   9
HETATM    9  O   UNL     1     -11.881  11.194  71.008  1.00  0.00    -0.250 OA 
HETATM   10  C   UNL     1     -12.692  10.077  70.647  1.00  0.00    -0.206 C  
ENDBRANCH   4   9
BRANCH   8  11
HETATM   11  C   UNL     1     -10.756  12.908  66.542  1.00  0.00    -0.285 C  
BRANCH  11  12
HETATM   12  C   UNL     1      -9.539  12.000  66.570  1.00  0.00    -0.224 C  
BRANCH  12  13
HETATM   13  O   UNL     1      -9.814  10.783  65.876  1.00  0.00    -0.217 OA 
BRANCH  13  14
HETATM   14  C   UNL     1      -8.809   9.755  65.986  1.00  0.00    -0.147 C  
HETATM   15  C   UNL     1      -8.015   9.629  64.676  1.00  0.00    -0.135 C  
HETATM   16  C   UNL     1      -7.114   8.404  64.638  1.00  0.00    -0.080 C  
HETATM   17  C   UNL     1      -7.921   7.152  64.946  1.00  0.00    -0.127 C  
HETATM   18  C   UNL     1      -8.455   7.223  66.374  1.00  0.00    -0.129 C  
HETATM   19  C   UNL     1      -9.400   8.420  66.556  1.00  0.00    -0.201 C  
BRANCH  19  20
HETATM   20  N   UNL     1      -9.955   8.659  67.909  1.00  0.00    -0.178 NA 
HETATM   21  C   UNL     1      -9.021   9.158  68.922  1.00  0.00    -0.139 C  
HETATM   22  C   UNL     1      -8.484   7.926  69.631  1.00  0.00    -0.132 C  
HETATM   23  C   UNL     1      -9.607   6.903  69.515  1.00  0.00    -0.148 C  
HETATM   24  C   UNL     1     -10.610   7.503  68.524  1.00  0.00    -0.136 C  
HETATM   25  O   UNL     1     -10.200   6.687  70.791  1.00  0.00    -0.194 OA 
HETATM   26  H   UNL     1     -10.900   6.049  70.718  1.00  0.00     0.000 HD 
ENDBRANCH  19  20
ENDBRANCH  13  14
ENDBRANCH  12  13
ENDBRANCH  11  12
ENDBRANCH   8  11
ENDBRANCH   2   3
TORSDOF 7
ENDMDL
MODEL      197
REMARK 921   NORMALIZED FREE ENERGY PREDICTED BY IDOCK:   -3.89 KCAL/MOL
REMARK 922        TOTAL FREE ENERGY PREDICTED BY IDOCK:   -6.40 KCAL/MOL
REMARK 923 INTER-LIGAND FREE ENERGY PREDICTED BY IDOCK:   -5.70 KCAL/MOL
REMARK 924 INTRA-LIGAND FREE ENERGY PREDICTED BY IDOCK:   -0.71 KCAL/MOL
REMARK 927      BINDING AFFINITY PREDICTED BY RF-SCORE:    0.00 PKD
ROOT
HETATM    1  C   UNL     1      -7.767   5.783  70.960  1.00  0.00    -0.101 C  
HETATM    2  O   UNL     1      -9.061   6.242  70.597  1.00  0.00    -0.149 OA 
ENDROOT
BRANCH   2   3
HETATM    3  C   UNL     1      -9.168   7.551  70.208  1.00  0.00    -0.157 A  
HETATM    4  C   UNL     1      -9.650   8.632  70.960  1.00  0.00    -0.209 A  
HETATM    5  C   UNL     1      -9.712   9.900  70.368  1.00  0.00    -0.151 A  
HETATM    6  C   UNL     1      -8.813   7.753  68.866  1.00  0.00    -0.135 A  
HETATM    7  C   UNL     1      -8.918   9.011  68.271  1.00  0.00    -0.133 A  
HETATM    8  C   UNL     1      -9.407  10.081  69.017  1.00  0.00    -0.183 A  
BRANCH   4   9
HETATM    9  O   UNL     1     -10.050   8.440  72.258  1.00  0.00    -0.263 OA 
HETATM   10  C   UNL     1     -11.429   8.109  72.417  1.00  0.00    -0.397 C  
ENDBRANCH   4   9
BRANCH   8  11
HETATM   11  C   UNL     1      -9.616  11.424  68.378  1.00  0.00    -0.197 C  
BRANCH  11  12
HETATM   12  C   UNL     1      -9.776  11.342  66.871  1.00  0.00    -0.192 C  
BRANCH  12  13
HETATM   13  O   UNL     1      -9.360  12.566  66.262  1.00  0.00    -0.232 OA 
BRANCH  13  14
HETATM   14  C   UNL     1     -10.372  13.586  66.144  1.00  0.00    -0.296 C  
HETATM   15  C   UNL     1     -11.101  13.472  64.796  1.00  0.00    -0.368 C  
HETATM   16  C   UNL     1     -12.003  14.661  64.501  1.00  0.00    -0.473 C  
HETATM   17  C   UNL     1     -11.215  15.957  64.623  1.00  0.00    -0.361 C  
HETATM   18  C   UNL     1     -10.751  16.142  66.066  1.00  0.00    -0.245 C  
HETATM   19  C   UNL     1      -9.813  15.006  66.498  1.00  0.00    -0.260 C  
BRANCH  19  20
HETATM   20  N   UNL     1      -9.324  15.013  67.897  1.00  0.00    -0.182 NA 
HETATM   21  C   UNL     1      -9.772  16.122  68.743  1.00  0.00    -0.233 C  
HETATM   22  C   UNL     1      -8.698  17.192  68.625  1.00  0.00    -0.266 C  
HETATM   23  C   UNL     1      -7.420  16.414  68.340  1.00  0.00    -0.171 C  
HETATM   24  C   UNL     1      -7.867  14.978  68.046  1.00  0.00    -0.125 C  
HETATM   25  O   UNL     1      -6.557  16.469  69.471  1.00  0.00    -0.216 OA 
HETATM   26  H   UNL     1      -5.759  15.984  69.292  1.00  0.00     0.000 HD 
ENDBRANCH  19  20
ENDBRANCH  13  14
ENDBRANCH  12  13
ENDBRANCH  11  12
ENDBRANCH   8  11
ENDBRANCH   2   3
TORSDOF 7
ENDMDL
MODEL      198
REMARK 921   NORMALIZED FREE ENERGY PREDICTED BY IDOCK:   -3.87 KCAL/MOL
REMARK 922        TOTAL FREE ENERGY PREDICTED BY IDOCK:   -6.38 KCAL/MOL
REMARK 923 INTER-LIGAND FREE ENERGY PREDICTED BY IDOCK:   -5.75 KCAL/MOL
REMARK 924 INTRA-LIGAND FREE ENERGY PREDICTED BY IDOCK:   -0.63 KCAL/MOL
REMARK 927      BINDING AFFINITY PREDICTED BY RF-SCORE:    0.00 PKD
ROOT
HETATM    1  C   UNL     1      -9.712   3.133  72.974  1.00  0.00    -0.106 C  
HETATM    2  O   UNL     1      -9.535   4.266  73.812  1.00  0.00    -0.108 OA 
ENDROOT
BRANCH   2   3
HETATM    3  C   UNL     1      -9.809   5.492  73.265  1.00  0.00    -0.164 A  
HETATM    4  C   UNL     1      -9.204   6.720  73.568  1.00  0.00    -0.140 A  
HETATM    5  C   UNL     1      -9.651   7.877  72.918  1.00  0.00    -0.329 A  
HETATM    6  C   UNL     1     -10.880   5.459  72.361  1.00  0.00    -0.297 A  
HETATM    7  C   UNL     1     -11.347   6.624  71.750  1.00  0.00    -0.320 A  
HETATM    8  C   UNL     1     -10.753   7.844  72.060  1.00  0.00    -0.299 A  
BRANCH   4   9
HETATM    9  O   UNL     1      -8.189   6.776  74.489  1.00  0.00    -0.129 OA 
HETATM   10  C   UNL     1      -6.993   7.403  74.026  1.00  0.00    -0.088 C  
ENDBRANCH   4   9
BRANCH   8  11
HETATM   11  C   UNL     1     -11.292   9.124  71.488  1.00  0.00    -0.439 C  
BRANCH  11  12
HETATM   12  C   UNL     1     -11.305   9.132  69.970  1.00  0.00    -0.090 C  
BRANCH  12  13
HETATM   13  O   UNL     1     -11.050  10.449  69.480  1.00  0.00    -0.231 OA 
BRANCH  13  14
HETATM   14  C   UNL     1      -9.905  10.588  68.615  1.00  0.00    -0.178 C  
HETATM   15  C   UNL     1      -8.601  10.402  69.406  1.00  0.00    -0.143 C  
HETATM   16  C   UNL     1      -7.360  10.781  68.613  1.00  0.00    -0.097 C  
HETATM   17  C   UNL     1      -7.503  12.191  68.061  1.00  0.00    -0.116 C  
HETATM   18  C   UNL     1      -8.657  12.238  67.063  1.00  0.00    -0.191 C  
HETATM   19  C   UNL     1      -9.990  11.884  67.738  1.00  0.00    -0.186 C  
BRANCH  19  20
HETATM   20  N   UNL     1     -11.200  11.828  66.883  1.00  0.00    -0.314 NA 
HETATM   21  C   UNL     1     -10.983  11.886  65.436  1.00  0.00    -0.301 C  
HETATM   22  C   UNL     1     -11.091  13.355  65.061  1.00  0.00    -0.332 C  
HETATM   23  C   UNL     1     -12.036  13.942  66.101  1.00  0.00    -0.448 C  
HETATM   24  C   UNL     1     -12.207  12.852  67.165  1.00  0.00    -0.065 C  
HETATM   25  O   UNL     1     -13.279  14.276  65.493  1.00  0.00    -0.641 OA 
HETATM   26  H   UNL     1     -13.869  14.642  66.142  1.00  0.00     0.000 HD 
ENDBRANCH  19  20
ENDBRANCH  13  14
ENDBRANCH  12  13
ENDBRANCH  11  12
ENDBRANCH   8  11
ENDBRANCH   2   3
TORSDOF 7
ENDMDL
MODEL      199
REMARK 921   NORMALIZED FREE ENERGY PREDICTED BY IDOCK:   -3.85 KCAL/MOL
REMARK 922        TOTAL FREE ENERGY PREDICTED BY IDOCK:   -6.35 KCAL/MOL
REMARK 923 INTER-LIGAND FREE ENERGY PREDICTED BY IDOCK:   -5.61 KCAL/MOL
REMARK 924 INTRA-LIGAND FREE ENERGY PREDICTED BY IDOCK:   -0.74 KCAL/MOL
REMARK 927      BINDING AFFINITY PREDICTED BY RF-SCORE:    0.00 PKD
ROOT
HETATM    1  C   UNL     1     -10.903   5.980  73.232  1.00  0.00    -0.252 C  
HETATM    2  O   UNL     1     -10.995   7.355  73.574  1.00  0.00    -0.344 OA 
ENDROOT
BRANCH   2   3
HETATM    3  C   UNL     1     -11.011   8.252  72.539  1.00  0.00    -0.354 A  
HETATM    4  C   UNL     1     -12.130   8.825  71.919  1.00  0.00    -0.363 A  
HETATM    5  C   UNL     1     -11.937   9.704  70.845  1.00  0.00    -0.391 A  
HETATM    6  C   UNL     1      -9.731   8.529  72.036  1.00  0.00    -0.377 A  
HETATM    7  C   UNL     1      -9.551   9.372  70.939  1.00  0.00    -0.301 A  
HETATM    8  C   UNL     1     -10.664   9.932  70.318  1.00  0.00    -0.367 A  
BRANCH   4   9
HETATM    9  O   UNL     1     -13.391   8.524  72.365  1.00  0.00    -0.336 OA 
HETATM   10  C   UNL     1     -14.099   7.575  71.569  1.00  0.00    -0.427 C  
ENDBRANCH   4   9
BRANCH   8  11
HETATM   11  C   UNL     1     -10.508  10.770  69.081  1.00  0.00    -0.243 C  
BRANCH  11  12
HETATM   12  C   UNL     1      -9.252  10.436  68.297  1.00  0.00    -0.149 C  
BRANCH  12  13
HETATM   13  O   UNL     1      -9.379   9.152  67.682  1.00  0.00    -0.134 OA 
BRANCH  13  14
HETATM   14  C   UNL     1      -8.274   8.248  67.880  1.00  0.00    -0.128 C  
HETATM   15  C   UNL     1      -7.048   9.000  68.422  1.00  0.00    -0.076 C  
HETATM   16  C   UNL     1      -5.779   8.160  68.416  1.00  0.00    -0.033 C  
HETATM   17  C   UNL     1      -5.538   7.588  67.027  1.00  0.00    -0.031 C  
HETATM   18  C   UNL     1      -6.667   6.627  66.663  1.00  0.00    -0.056 C  
HETATM   19  C   UNL     1      -8.021   7.352  66.619  1.00  0.00    -0.121 C  
BRANCH  19  20
HETATM   20  N   UNL     1      -9.227   6.538  66.338  1.00  0.00    -0.158 NA 
HETATM   21  C   UNL     1      -9.969   6.042  67.498  1.00  0.00    -0.137 C  
HETATM   22  C   UNL     1      -9.409   4.658  67.786  1.00  0.00    -0.171 C  
HETATM   23  C   UNL     1      -8.934   4.153  66.429  1.00  0.00    -0.124 C  
HETATM   24  C   UNL     1      -9.001   5.364  65.492  1.00  0.00    -0.144 C  
HETATM   25  O   UNL     1      -9.781   3.100  65.981  1.00  0.00    -0.392 OA 
HETATM   26  H   UNL     1      -9.485   2.786  65.135  1.00  0.00     0.000 HD 
ENDBRANCH  19  20
ENDBRANCH  13  14
ENDBRANCH  12  13
ENDBRANCH  11  12
ENDBRANCH   8  11
ENDBRANCH   2   3
TORSDOF 7
ENDMDL
MODEL      200
REMARK 921   NORMALIZED FREE ENERGY PREDICTED BY IDOCK:   -3.85 KCAL/MOL
REMARK 922        TOTAL FREE ENERGY PREDICTED BY IDOCK:   -6.35 KCAL/MOL
REMARK 923 INTER-LIGAND FREE ENERGY PREDICTED BY IDOCK:   -5.20 KCAL/MOL
REMARK 924 INTRA-LIGAND FREE ENERGY PREDICTED BY IDOCK:   -1.15 KCAL/MOL
REMARK 927      BINDING AFFINITY PREDICTED BY RF-SCORE:    0.00 PKD
ROOT
HETATM    1  C   UNL     1      -8.939   6.611  70.192  1.00  0.00    -0.152 C  
HETATM    2  O   UNL     1      -8.507   7.723  70.961  1.00  0.00    -0.118 OA 
ENDROOT
BRANCH   2   3
HETATM    3  C   UNL     1      -7.923   8.759  70.281  1.00  0.00    -0.106 A  
HETATM    4  C   UNL     1      -6.574   9.142  70.297  1.00  0.00    -0.052 A  
HETATM    5  C   UNL     1      -6.176  10.260  69.552  1.00  0.00    -0.051 A  
HETATM    6  C   UNL     1      -8.848   9.533  69.565  1.00  0.00    -0.185 A  
HETATM    7  C   UNL     1      -8.449  10.670  68.861  1.00  0.00    -0.154 A  
HETATM    8  C   UNL     1      -7.111  11.055  68.886  1.00  0.00    -0.098 A  
BRANCH   4   9
HETATM    9  O   UNL     1      -5.666   8.426  71.033  1.00  0.00    -0.032 OA 
HETATM   10  C   UNL     1      -5.465   8.901  72.364  1.00  0.00    -0.062 C  
ENDBRANCH   4   9
BRANCH   8  11
HETATM   11  C   UNL     1      -6.669  12.323  68.213  1.00  0.00    -0.064 C  
BRANCH  11  12
HETATM   12  C   UNL     1      -7.570  13.504  68.527  1.00  0.00    -0.129 C  
BRANCH  12  13
HETATM   13  O   UNL     1      -8.298  13.894  67.363  1.00  0.00    -0.178 OA 
BRANCH  13  14
HETATM   14  C   UNL     1      -9.735  13.850  67.475  1.00  0.00    -0.232 C  
HETATM   15  C   UNL     1     -10.166  13.907  68.949  1.00  0.00    -0.135 C  
HETATM   16  C   UNL     1     -11.645  13.614  69.152  1.00  0.00    -0.356 C  
HETATM   17  C   UNL     1     -12.010  12.292  68.495  1.00  0.00    -0.272 C  
HETATM   18  C   UNL     1     -11.818  12.398  66.984  1.00  0.00    -0.368 C  
HETATM   19  C   UNL     1     -10.351  12.683  66.630  1.00  0.00    -0.236 C  
BRANCH  19  20
HETATM   20  N   UNL     1     -10.014  12.874  65.199  1.00  0.00    -0.208 NA 
HETATM   21  C   UNL     1     -11.095  13.336  64.327  1.00  0.00    -0.388 C  
HETATM   22  C   UNL     1     -11.729  12.080  63.753  1.00  0.00    -0.575 C  
HETATM   23  C   UNL     1     -10.596  11.062  63.730  1.00  0.00    -0.295 C  
HETATM   24  C   UNL     1      -9.454  11.697  64.531  1.00  0.00    -0.036 C  
HETATM   25  O   UNL     1     -10.207  10.800  62.385  1.00  0.00    -0.717 OA 
HETATM   26  H   UNL     1      -9.500  10.165  62.371  1.00  0.00     0.000 HD 
ENDBRANCH  19  20
ENDBRANCH  13  14
ENDBRANCH  12  13
ENDBRANCH  11  12
ENDBRANCH   8  11
ENDBRANCH   2   3
TORSDOF 7
ENDMDL
MODEL      201
REMARK 921   NORMALIZED FREE ENERGY PREDICTED BY IDOCK:   -3.84 KCAL/MOL
REMARK 922        TOTAL FREE ENERGY PREDICTED BY IDOCK:   -6.34 KCAL/MOL
REMARK 923 INTER-LIGAND FREE ENERGY PREDICTED BY IDOCK:   -5.74 KCAL/MOL
REMARK 924 INTRA-LIGAND FREE ENERGY PREDICTED BY IDOCK:   -0.60 KCAL/MOL
REMARK 927      BINDING AFFINITY PREDICTED BY RF-SCORE:    0.00 PKD
ROOT
HETATM    1  C   UNL     1     -10.258   6.493  69.656  1.00  0.00    -0.187 C  
HETATM    2  O   UNL     1      -9.410   7.421  70.316  1.00  0.00    -0.161 OA 
ENDROOT
BRANCH   2   3
HETATM    3  C   UNL     1      -8.800   8.368  69.535  1.00  0.00    -0.145 A  
HETATM    4  C   UNL     1      -7.608   8.240  68.809  1.00  0.00    -0.101 A  
HETATM    5  C   UNL     1      -7.126   9.343  68.092  1.00  0.00    -0.076 A  
HETATM    6  C   UNL     1      -9.453   9.609  69.571  1.00  0.00    -0.211 A  
HETATM    7  C   UNL     1      -8.943  10.714  68.888  1.00  0.00    -0.172 A  
HETATM    8  C   UNL     1      -7.753  10.588  68.177  1.00  0.00    -0.096 A  
BRANCH   4   9
HETATM    9  O   UNL     1      -6.930   7.048  68.807  1.00  0.00    -0.073 OA 
HETATM   10  C   UNL     1      -5.525   7.156  69.038  1.00  0.00    -0.018 C  
ENDBRANCH   4   9
BRANCH   8  11
HETATM   11  C   UNL     1      -7.134  11.783  67.507  1.00  0.00    -0.113 C  
BRANCH  11  12
HETATM   12  C   UNL     1      -7.780  13.092  67.922  1.00  0.00    -0.147 C  
BRANCH  12  13
HETATM   13  O   UNL     1      -8.533  13.638  66.838  1.00  0.00    -0.164 OA 
BRANCH  13  14
HETATM   14  C   UNL     1      -9.861  13.103  66.663  1.00  0.00    -0.261 C  
HETATM   15  C   UNL     1     -10.112  12.747  65.189  1.00  0.00    -0.246 C  
HETATM   16  C   UNL     1     -11.567  12.415  64.893  1.00  0.00    -0.392 C  
HETATM   17  C   UNL     1     -12.468  13.541  65.376  1.00  0.00    -0.540 C  
HETATM   18  C   UNL     1     -12.376  13.659  66.895  1.00  0.00    -0.309 C  
HETATM   19  C   UNL     1     -10.947  14.007  67.339  1.00  0.00    -0.293 C  
BRANCH  19  20
HETATM   20  N   UNL     1     -10.683  14.097  68.795  1.00  0.00    -0.251 NA 
HETATM   21  C   UNL     1     -11.663  13.462  69.680  1.00  0.00    -0.310 C  
HETATM   22  C   UNL     1     -12.657  14.553  70.045  1.00  0.00    -0.281 C  
HETATM   23  C   UNL     1     -11.848  15.842  69.971  1.00  0.00    -0.354 C  
HETATM   24  C   UNL     1     -10.518  15.457  69.313  1.00  0.00    -0.251 C  
HETATM   25  O   UNL     1     -11.650  16.366  71.280  1.00  0.00    -0.587 OA 
HETATM   26  H   UNL     1     -11.145  17.169  71.233  1.00  0.00     0.000 HD 
ENDBRANCH  19  20
ENDBRANCH  13  14
ENDBRANCH  12  13
ENDBRANCH  11  12
ENDBRANCH   8  11
ENDBRANCH   2   3
TORSDOF 7
ENDMDL
MODEL      202
REMARK 921   NORMALIZED FREE ENERGY PREDICTED BY IDOCK:   -3.84 KCAL/MOL
REMARK 922        TOTAL FREE ENERGY PREDICTED BY IDOCK:   -6.34 KCAL/MOL
REMARK 923 INTER-LIGAND FREE ENERGY PREDICTED BY IDOCK:   -5.64 KCAL/MOL
REMARK 924 INTRA-LIGAND FREE ENERGY PREDICTED BY IDOCK:   -0.70 KCAL/MOL
REMARK 927      BINDING AFFINITY PREDICTED BY RF-SCORE:    0.00 PKD
ROOT
HETATM    1  C   UNL     1     -10.463   4.650  74.158  1.00  0.00    -0.278 C  
HETATM    2  O   UNL     1     -10.931   4.648  72.817  1.00  0.00    -0.208 OA 
ENDROOT
BRANCH   2   3
HETATM    3  C   UNL     1     -10.839   5.827  72.125  1.00  0.00    -0.244 A  
HETATM    4  C   UNL     1     -10.131   6.073  70.941  1.00  0.00    -0.196 A  
HETATM    5  C   UNL     1     -10.134   7.366  70.401  1.00  0.00    -0.193 A  
HETATM    6  C   UNL     1     -11.487   6.890  72.771  1.00  0.00    -0.183 A  
HETATM    7  C   UNL     1     -11.449   8.184  72.249  1.00  0.00    -0.435 A  
HETATM    8  C   UNL     1     -10.737   8.428  71.078  1.00  0.00    -0.267 A  
BRANCH   4   9
HETATM    9  O   UNL     1      -9.449   5.054  70.325  1.00  0.00    -0.149 OA 
HETATM   10  C   UNL     1      -9.757   4.876  68.943  1.00  0.00    -0.173 C  
ENDBRANCH   4   9
BRANCH   8  11
HETATM   11  C   UNL     1     -10.603   9.826  70.543  1.00  0.00    -0.376 C  
BRANCH  11  12
HETATM   12  C   UNL     1      -9.777   9.894  69.271  1.00  0.00    -0.208 C  
BRANCH  12  13
HETATM   13  O   UNL     1     -10.632   9.952  68.128  1.00  0.00    -0.200 OA 
BRANCH  13  14
HETATM   14  C   UNL     1     -10.503  11.129  67.306  1.00  0.00    -0.226 C  
HETATM   15  C   UNL     1     -11.738  12.032  67.455  1.00  0.00    -0.352 C  
HETATM   16  C   UNL     1     -11.782  13.159  66.434  1.00  0.00    -0.429 C  
HETATM   17  C   UNL     1     -11.646  12.595  65.028  1.00  0.00    -0.384 C  
HETATM   18  C   UNL     1     -10.274  11.947  64.864  1.00  0.00    -0.310 C  
HETATM   19  C   UNL     1     -10.094  10.772  65.836  1.00  0.00    -0.256 C  
BRANCH  19  20
HETATM   20  N   UNL     1      -8.785  10.077  65.839  1.00  0.00    -0.136 NA 
HETATM   21  C   UNL     1      -7.801  10.526  64.852  1.00  0.00    -0.037 C  
HETATM   22  C   UNL     1      -7.994   9.629  63.639  1.00  0.00    -0.142 C  
HETATM   23  C   UNL     1      -8.521   8.322  64.217  1.00  0.00     0.017 C  
HETATM   24  C   UNL     1      -8.855   8.622  65.682  1.00  0.00    -0.187 C  
HETATM   25  O   UNL     1      -7.528   7.308  64.106  1.00  0.00    -0.084 OA 
HETATM   26  H   UNL     1      -7.858   6.492  64.466  1.00  0.00     0.000 HD 
ENDBRANCH  19  20
ENDBRANCH  13  14
ENDBRANCH  12  13
ENDBRANCH  11  12
ENDBRANCH   8  11
ENDBRANCH   2   3
TORSDOF 7
ENDMDL
MODEL      203
REMARK 921   NORMALIZED FREE ENERGY PREDICTED BY IDOCK:   -3.84 KCAL/MOL
REMARK 922        TOTAL FREE ENERGY PREDICTED BY IDOCK:   -6.33 KCAL/MOL
REMARK 923 INTER-LIGAND FREE ENERGY PREDICTED BY IDOCK:   -5.74 KCAL/MOL
REMARK 924 INTRA-LIGAND FREE ENERGY PREDICTED BY IDOCK:   -0.59 KCAL/MOL
REMARK 927      BINDING AFFINITY PREDICTED BY RF-SCORE:    0.00 PKD
ROOT
HETATM    1  C   UNL     1     -13.842  15.298  72.506  1.00  0.00    -0.527 C  
HETATM    2  O   UNL     1     -12.689  14.494  72.307  1.00  0.00    -0.321 OA 
ENDROOT
BRANCH   2   3
HETATM    3  C   UNL     1     -12.516  13.957  71.058  1.00  0.00    -0.377 A  
HETATM    4  C   UNL     1     -12.400  12.602  70.717  1.00  0.00    -0.283 A  
HETATM    5  C   UNL     1     -12.192  12.252  69.377  1.00  0.00    -0.120 A  
HETATM    6  C   UNL     1     -12.366  14.931  70.060  1.00  0.00    -0.358 A  
HETATM    7  C   UNL     1     -12.117  14.575  68.734  1.00  0.00    -0.256 A  
HETATM    8  C   UNL     1     -11.991  13.230  68.399  1.00  0.00    -0.336 A  
BRANCH   4   9
HETATM    9  O   UNL     1     -12.492  11.639  71.690  1.00  0.00    -0.200 OA 
HETATM   10  C   UNL     1     -12.050  10.341  71.293  1.00  0.00    -0.382 C  
ENDBRANCH   4   9
BRANCH   8  11
HETATM   11  C   UNL     1     -11.633  12.821  66.998  1.00  0.00    -0.422 C  
BRANCH  11  12
HETATM   12  C   UNL     1     -10.202  12.331  66.874  1.00  0.00    -0.213 C  
BRANCH  12  13
HETATM   13  O   UNL     1     -10.153  11.141  66.086  1.00  0.00    -0.222 OA 
BRANCH  13  14
HETATM   14  C   UNL     1      -9.338  11.207  64.898  1.00  0.00    -0.194 C  
HETATM   15  C   UNL     1     -10.217  11.337  63.644  1.00  0.00    -0.446 C  
HETATM   16  C   UNL     1      -9.440  11.161  62.348  1.00  0.00    -0.120 C  
HETATM   17  C   UNL     1      -8.667   9.851  62.377  1.00  0.00    -0.233 C  
HETATM   18  C   UNL     1      -7.615   9.899  63.481  1.00  0.00    -0.143 C  
HETATM   19  C   UNL     1      -8.266  10.064  64.862  1.00  0.00    -0.154 C  
BRANCH  19  20
HETATM   20  N   UNL     1      -7.368  10.188  66.035  1.00  0.00    -0.112 NA 
HETATM   21  C   UNL     1      -5.960   9.847  65.822  1.00  0.00    -0.067 C  
HETATM   22  C   UNL     1      -5.830   8.378  66.192  1.00  0.00    -0.044 C  
HETATM   23  C   UNL     1      -6.917   8.154  67.236  1.00  0.00    -0.075 C  
HETATM   24  C   UNL     1      -7.778   9.422  67.214  1.00  0.00    -0.091 C  
HETATM   25  O   UNL     1      -6.326   7.947  68.514  1.00  0.00    -0.045 OA 
HETATM   26  H   UNL     1      -7.004   7.807  69.165  1.00  0.00     0.000 HD 
ENDBRANCH  19  20
ENDBRANCH  13  14
ENDBRANCH  12  13
ENDBRANCH  11  12
ENDBRANCH   8  11
ENDBRANCH   2   3
TORSDOF 7
ENDMDL
MODEL      204
REMARK 921   NORMALIZED FREE ENERGY PREDICTED BY IDOCK:   -3.83 KCAL/MOL
REMARK 922        TOTAL FREE ENERGY PREDICTED BY IDOCK:   -6.32 KCAL/MOL
REMARK 923 INTER-LIGAND FREE ENERGY PREDICTED BY IDOCK:   -5.70 KCAL/MOL
REMARK 924 INTRA-LIGAND FREE ENERGY PREDICTED BY IDOCK:   -0.62 KCAL/MOL
REMARK 927      BINDING AFFINITY PREDICTED BY RF-SCORE:    0.00 PKD
ROOT
HETATM    1  C   UNL     1      -9.976  19.827  67.577  1.00  0.00    -0.409 C  
HETATM    2  O   UNL     1      -9.053  19.823  68.656  1.00  0.00    -0.312 OA 
ENDROOT
BRANCH   2   3
HETATM    3  C   UNL     1      -8.116  18.824  68.668  1.00  0.00    -0.333 A  
HETATM    4  C   UNL     1      -6.721  18.957  68.622  1.00  0.00    -0.270 A  
HETATM    5  C   UNL     1      -5.927  17.803  68.610  1.00  0.00    -0.189 A  
HETATM    6  C   UNL     1      -8.684  17.542  68.646  1.00  0.00    -0.258 A  
HETATM    7  C   UNL     1      -7.886  16.398  68.591  1.00  0.00    -0.211 A  
HETATM    8  C   UNL     1      -6.502  16.533  68.534  1.00  0.00    -0.137 A  
BRANCH   4   9
HETATM    9  O   UNL     1      -6.151  20.205  68.590  1.00  0.00    -0.256 OA 
HETATM   10  C   UNL     1      -5.668  20.675  69.848  1.00  0.00    -0.325 C  
ENDBRANCH   4   9
BRANCH   8  11
HETATM   11  C   UNL     1      -5.623  15.324  68.383  1.00  0.00    -0.108 C  
BRANCH  11  12
HETATM   12  C   UNL     1      -6.330  14.159  67.713  1.00  0.00    -0.156 C  
BRANCH  12  13
HETATM   13  O   UNL     1      -6.841  13.259  68.697  1.00  0.00    -0.087 OA 
BRANCH  13  14
HETATM   14  C   UNL     1      -7.377  12.018  68.196  1.00  0.00    -0.094 C  
HETATM   15  C   UNL     1      -6.246  11.087  67.732  1.00  0.00    -0.051 C  
HETATM   16  C   UNL     1      -6.746   9.871  66.966  1.00  0.00    -0.075 C  
HETATM   17  C   UNL     1      -7.640  10.311  65.816  1.00  0.00    -0.143 C  
HETATM   18  C   UNL     1      -8.890  10.991  66.367  1.00  0.00    -0.182 C  
HETATM   19  C   UNL     1      -8.530  12.255  67.162  1.00  0.00    -0.184 C  
BRANCH  19  20
HETATM   20  N   UNL     1      -9.637  12.996  67.813  1.00  0.00    -0.201 NA 
HETATM   21  C   UNL     1     -10.740  12.194  68.344  1.00  0.00    -0.228 C  
HETATM   22  C   UNL     1     -11.774  12.124  67.232  1.00  0.00    -0.369 C  
HETATM   23  C   UNL     1     -11.571  13.413  66.447  1.00  0.00    -0.346 C  
HETATM   24  C   UNL     1     -10.270  14.022  66.981  1.00  0.00    -0.261 C  
HETATM   25  O   UNL     1     -12.678  14.285  66.653  1.00  0.00    -0.518 OA 
HETATM   26  H   UNL     1     -12.551  15.089  66.163  1.00  0.00     0.000 HD 
ENDBRANCH  19  20
ENDBRANCH  13  14
ENDBRANCH  12  13
ENDBRANCH  11  12
ENDBRANCH   8  11
ENDBRANCH   2   3
TORSDOF 7
ENDMDL
MODEL      205
REMARK 921   NORMALIZED FREE ENERGY PREDICTED BY IDOCK:   -3.81 KCAL/MOL
REMARK 922        TOTAL FREE ENERGY PREDICTED BY IDOCK:   -6.29 KCAL/MOL
REMARK 923 INTER-LIGAND FREE ENERGY PREDICTED BY IDOCK:   -5.48 KCAL/MOL
REMARK 924 INTRA-LIGAND FREE ENERGY PREDICTED BY IDOCK:   -0.81 KCAL/MOL
REMARK 927      BINDING AFFINITY PREDICTED BY RF-SCORE:    0.00 PKD
ROOT
HETATM    1  C   UNL     1     -10.382  19.104  67.947  1.00  0.00    -0.414 C  
HETATM    2  O   UNL     1      -9.513  18.040  67.591  1.00  0.00    -0.259 OA 
ENDROOT
BRANCH   2   3
HETATM    3  C   UNL     1     -10.034  16.773  67.629  1.00  0.00    -0.262 A  
HETATM    4  C   UNL     1     -10.543  16.024  66.559  1.00  0.00    -0.284 A  
HETATM    5  C   UNL     1     -11.066  14.748  66.808  1.00  0.00    -0.338 A  
HETATM    6  C   UNL     1     -10.110  16.252  68.929  1.00  0.00    -0.251 A  
HETATM    7  C   UNL     1     -10.672  14.998  69.174  1.00  0.00    -0.249 A  
HETATM    8  C   UNL     1     -11.186  14.260  68.112  1.00  0.00    -0.295 A  
BRANCH   4   9
HETATM    9  O   UNL     1     -10.523  16.540  65.288  1.00  0.00    -0.590 OA 
HETATM   10  C   UNL     1     -11.418  15.912  64.371  1.00  0.00    -0.264 C  
ENDBRANCH   4   9
BRANCH   8  11
HETATM   11  C   UNL     1     -11.877  12.949  68.356  1.00  0.00    -0.357 C  
BRANCH  11  12
HETATM   12  C   UNL     1     -11.163  12.088  69.382  1.00  0.00    -0.196 C  
BRANCH  12  13
HETATM   13  O   UNL     1     -10.639  10.912  68.763  1.00  0.00    -0.179 OA 
BRANCH  13  14
HETATM   14  C   UNL     1      -9.217  10.714  68.889  1.00  0.00    -0.183 C  
HETATM   15  C   UNL     1      -8.470  12.051  68.759  1.00  0.00     0.065 C  
HETATM   16  C   UNL     1      -6.963  11.885  68.633  1.00  0.00    -0.095 C  
HETATM   17  C   UNL     1      -6.637  10.928  67.496  1.00  0.00    -0.063 C  
HETATM   18  C   UNL     1      -7.176   9.538  67.822  1.00  0.00    -0.082 C  
HETATM   19  C   UNL     1      -8.705   9.555  67.966  1.00  0.00    -0.120 C  
BRANCH  19  20
HETATM   20  N   UNL     1      -9.374   8.288  68.343  1.00  0.00    -0.135 NA 
HETATM   21  C   UNL     1      -8.502   7.150  68.643  1.00  0.00    -0.125 C  
HETATM   22  C   UNL     1      -8.349   6.390  67.335  1.00  0.00    -0.112 C  
HETATM   23  C   UNL     1      -9.641   6.674  66.580  1.00  0.00    -0.163 C  
HETATM   24  C   UNL     1     -10.344   7.784  67.368  1.00  0.00    -0.284 C  
HETATM   25  O   UNL     1     -10.436   5.494  66.520  1.00  0.00    -0.245 OA 
HETATM   26  H   UNL     1     -11.242   5.672  66.049  1.00  0.00     0.000 HD 
ENDBRANCH  19  20
ENDBRANCH  13  14
ENDBRANCH  12  13
ENDBRANCH  11  12
ENDBRANCH   8  11
ENDBRANCH   2   3
TORSDOF 7
ENDMDL
MODEL      206
REMARK 921   NORMALIZED FREE ENERGY PREDICTED BY IDOCK:   -3.79 KCAL/MOL
REMARK 922        TOTAL FREE ENERGY PREDICTED BY IDOCK:   -6.26 KCAL/MOL
REMARK 923 INTER-LIGAND FREE ENERGY PREDICTED BY IDOCK:   -6.13 KCAL/MOL
REMARK 924 INTRA-LIGAND FREE ENERGY PREDICTED BY IDOCK:   -0.13 KCAL/MOL
REMARK 927      BINDING AFFINITY PREDICTED BY RF-SCORE:    0.00 PKD
ROOT
HETATM    1  C   UNL     1      -9.958  11.313  63.266  1.00  0.00    -0.393 C  
HETATM    2  O   UNL     1     -10.162  12.380  64.180  1.00  0.00    -0.344 OA 
ENDROOT
BRANCH   2   3
HETATM    3  C   UNL     1     -10.640  12.051  65.421  1.00  0.00    -0.278 A  
HETATM    4  C   UNL     1     -11.353  12.869  66.308  1.00  0.00    -0.323 A  
HETATM    5  C   UNL     1     -11.730  12.354  67.556  1.00  0.00    -0.425 A  
HETATM    6  C   UNL     1     -10.275  10.758  65.822  1.00  0.00    -0.319 A  
HETATM    7  C   UNL     1     -10.618  10.268  67.084  1.00  0.00    -0.320 A  
HETATM    8  C   UNL     1     -11.316  11.086  67.968  1.00  0.00    -0.374 A  
BRANCH   4   9
HETATM    9  O   UNL     1     -11.673  14.154  65.951  1.00  0.00    -0.343 OA 
HETATM   10  C   UNL     1     -12.883  14.285  65.205  1.00  0.00    -0.281 C  
ENDBRANCH   4   9
BRANCH   8  11
HETATM   11  C   UNL     1     -11.619  10.618  69.363  1.00  0.00    -0.352 C  
BRANCH  11  12
HETATM   12  C   UNL     1     -10.654   9.553  69.851  1.00  0.00    -0.241 C  
BRANCH  12  13
HETATM   13  O   UNL     1     -10.987   8.286  69.283  1.00  0.00    -0.110 OA 
BRANCH  13  14
HETATM   14  C   UNL     1     -10.861   7.150  70.161  1.00  0.00    -0.257 C  
HETATM   15  C   UNL     1     -12.085   7.039  71.084  1.00  0.00    -0.412 C  
HETATM   16  C   UNL     1     -11.904   6.018  72.198  1.00  0.00    -0.304 C  
HETATM   17  C   UNL     1     -10.625   6.308  72.968  1.00  0.00    -0.263 C  
HETATM   18  C   UNL     1      -9.419   6.128  72.049  1.00  0.00    -0.161 C  
HETATM   19  C   UNL     1      -9.466   7.115  70.873  1.00  0.00    -0.160 C  
BRANCH  19  20
HETATM   20  N   UNL     1      -8.391   7.024  69.857  1.00  0.00    -0.137 NA 
HETATM   21  C   UNL     1      -8.661   6.180  68.690  1.00  0.00    -0.112 C  
HETATM   22  C   UNL     1      -8.108   4.807  69.036  1.00  0.00    -0.078 C  
HETATM   23  C   UNL     1      -6.965   5.093  70.002  1.00  0.00    -0.056 C  
HETATM   24  C   UNL     1      -7.092   6.576  70.365  1.00  0.00    -0.072 C  
HETATM   25  O   UNL     1      -5.719   4.815  69.373  1.00  0.00    -0.015 OA 
HETATM   26  H   UNL     1      -5.006   4.993  69.976  1.00  0.00     0.000 HD 
ENDBRANCH  19  20
ENDBRANCH  13  14
ENDBRANCH  12  13
ENDBRANCH  11  12
ENDBRANCH   8  11
ENDBRANCH   2   3
TORSDOF 7
ENDMDL
MODEL      207
REMARK 921   NORMALIZED FREE ENERGY PREDICTED BY IDOCK:   -3.79 KCAL/MOL
REMARK 922        TOTAL FREE ENERGY PREDICTED BY IDOCK:   -6.26 KCAL/MOL
REMARK 923 INTER-LIGAND FREE ENERGY PREDICTED BY IDOCK:   -5.59 KCAL/MOL
REMARK 924 INTRA-LIGAND FREE ENERGY PREDICTED BY IDOCK:   -0.67 KCAL/MOL
REMARK 927      BINDING AFFINITY PREDICTED BY RF-SCORE:    0.00 PKD
ROOT
HETATM    1  C   UNL     1     -10.138   1.895  72.422  1.00  0.00    -0.150 C  
HETATM    2  O   UNL     1      -9.722   2.850  73.387  1.00  0.00    -0.098 OA 
ENDROOT
BRANCH   2   3
HETATM    3  C   UNL     1      -9.906   4.171  73.073  1.00  0.00    -0.133 A  
HETATM    4  C   UNL     1      -8.933   5.178  73.002  1.00  0.00    -0.119 A  
HETATM    5  C   UNL     1      -9.330   6.486  72.694  1.00  0.00    -0.145 A  
HETATM    6  C   UNL     1     -11.255   4.505  72.888  1.00  0.00    -0.205 A  
HETATM    7  C   UNL     1     -11.645   5.819  72.624  1.00  0.00    -0.304 A  
HETATM    8  C   UNL     1     -10.680   6.819  72.565  1.00  0.00    -0.261 A  
BRANCH   4   9
HETATM    9  O   UNL     1      -7.615   4.877  73.231  1.00  0.00    -0.089 OA 
HETATM   10  C   UNL     1      -6.803   4.809  72.060  1.00  0.00    -0.055 C  
ENDBRANCH   4   9
BRANCH   8  11
HETATM   11  C   UNL     1     -11.078   8.255  72.372  1.00  0.00    -0.447 C  
BRANCH  11  12
HETATM   12  C   UNL     1     -11.852   8.485  71.086  1.00  0.00    -0.284 C  
BRANCH  12  13
HETATM   13  O   UNL     1     -11.213   9.491  70.298  1.00  0.00    -0.246 OA 
BRANCH  13  14
HETATM   14  C   UNL     1     -10.683   9.055  69.030  1.00  0.00    -0.141 C  
HETATM   15  C   UNL     1      -9.567   8.018  69.237  1.00  0.00    -0.157 C  
HETATM   16  C   UNL     1      -8.798   7.704  67.963  1.00  0.00    -0.127 C  
HETATM   17  C   UNL     1      -8.282   8.989  67.334  1.00  0.00    -0.108 C  
HETATM   18  C   UNL     1      -9.459   9.857  66.898  1.00  0.00    -0.202 C  
HETATM   19  C   UNL     1     -10.325  10.264  68.100  1.00  0.00    -0.177 C  
BRANCH  19  20
HETATM   20  N   UNL     1     -11.544  11.062  67.830  1.00  0.00    -0.545 NA 
HETATM   21  C   UNL     1     -11.629  11.708  66.519  1.00  0.00    -0.087 C  
HETATM   22  C   UNL     1     -11.059  13.104  66.709  1.00  0.00    -0.314 C  
HETATM   23  C   UNL     1     -11.346  13.434  68.168  1.00  0.00    -0.287 C  
HETATM   24  C   UNL     1     -11.820  12.122  68.802  1.00  0.00    -0.303 C  
HETATM   25  O   UNL     1     -12.348  14.443  68.248  1.00  0.00    -0.604 OA 
HETATM   26  H   UNL     1     -12.527  14.649  69.158  1.00  0.00     0.000 HD 
ENDBRANCH  19  20
ENDBRANCH  13  14
ENDBRANCH  12  13
ENDBRANCH  11  12
ENDBRANCH   8  11
ENDBRANCH   2   3
TORSDOF 7
ENDMDL
MODEL      208
REMARK 921   NORMALIZED FREE ENERGY PREDICTED BY IDOCK:   -3.78 KCAL/MOL
REMARK 922        TOTAL FREE ENERGY PREDICTED BY IDOCK:   -6.25 KCAL/MOL
REMARK 923 INTER-LIGAND FREE ENERGY PREDICTED BY IDOCK:   -5.28 KCAL/MOL
REMARK 924 INTRA-LIGAND FREE ENERGY PREDICTED BY IDOCK:   -0.96 KCAL/MOL
REMARK 927      BINDING AFFINITY PREDICTED BY RF-SCORE:    0.00 PKD
ROOT
HETATM    1  C   UNL     1     -10.648  18.716  67.396  1.00  0.00    -0.441 C  
HETATM    2  O   UNL     1     -10.756  17.749  68.430  1.00  0.00    -0.316 OA 
ENDROOT
BRANCH   2   3
HETATM    3  C   UNL     1     -10.237  16.507  68.174  1.00  0.00    -0.271 A  
HETATM    4  C   UNL     1     -10.626  15.283  68.738  1.00  0.00    -0.240 A  
HETATM    5  C   UNL     1      -9.944  14.116  68.368  1.00  0.00    -0.235 A  
HETATM    6  C   UNL     1      -9.143  16.541  67.297  1.00  0.00    -0.214 A  
HETATM    7  C   UNL     1      -8.443  15.380  66.968  1.00  0.00    -0.262 A  
HETATM    8  C   UNL     1      -8.823  14.168  67.537  1.00  0.00    -0.202 A  
BRANCH   4   9
HETATM    9  O   UNL     1     -11.661  15.240  69.637  1.00  0.00    -0.278 OA 
HETATM   10  C   UNL     1     -11.272  15.352  71.006  1.00  0.00    -0.364 C  
ENDBRANCH   4   9
BRANCH   8  11
HETATM   11  C   UNL     1      -8.033  12.918  67.272  1.00  0.00    -0.151 C  
BRANCH  11  12
HETATM   12  C   UNL     1      -8.802  11.896  66.454  1.00  0.00    -0.152 C  
BRANCH  12  13
HETATM   13  O   UNL     1      -8.679  10.599  67.040  1.00  0.00    -0.127 OA 
BRANCH  13  14
HETATM   14  C   UNL     1      -9.768  10.187  67.891  1.00  0.00    -0.146 C  
HETATM   15  C   UNL     1     -11.002  11.075  67.661  1.00  0.00    -0.332 C  
HETATM   16  C   UNL     1     -12.096  10.858  68.694  1.00  0.00    -0.065 C  
HETATM   17  C   UNL     1     -11.528  11.013  70.097  1.00  0.00    -0.383 C  
HETATM   18  C   UNL     1     -10.496   9.918  70.357  1.00  0.00    -0.347 C  
HETATM   19  C   UNL     1      -9.315  10.025  69.382  1.00  0.00    -0.223 C  
BRANCH  19  20
HETATM   20  N   UNL     1      -8.256   8.992  69.470  1.00  0.00    -0.110 NA 
HETATM   21  C   UNL     1      -8.456   7.929  70.457  1.00  0.00    -0.126 C  
HETATM   22  C   UNL     1      -7.754   8.400  71.720  1.00  0.00    -0.147 C  
HETATM   23  C   UNL     1      -6.630   9.296  71.215  1.00  0.00    -0.056 C  
HETATM   24  C   UNL     1      -6.907   9.505  69.723  1.00  0.00    -0.064 C  
HETATM   25  O   UNL     1      -5.373   8.663  71.428  1.00  0.00    -0.032 OA 
HETATM   26  H   UNL     1      -4.672   9.222  71.113  1.00  0.00     0.000 HD 
ENDBRANCH  19  20
ENDBRANCH  13  14
ENDBRANCH  12  13
ENDBRANCH  11  12
ENDBRANCH   8  11
ENDBRANCH   2   3
TORSDOF 7
ENDMDL
MODEL      209
REMARK 921   NORMALIZED FREE ENERGY PREDICTED BY IDOCK:   -3.77 KCAL/MOL
REMARK 922        TOTAL FREE ENERGY PREDICTED BY IDOCK:   -6.24 KCAL/MOL
REMARK 923 INTER-LIGAND FREE ENERGY PREDICTED BY IDOCK:   -5.51 KCAL/MOL
REMARK 924 INTRA-LIGAND FREE ENERGY PREDICTED BY IDOCK:   -0.72 KCAL/MOL
REMARK 927      BINDING AFFINITY PREDICTED BY RF-SCORE:    0.00 PKD
ROOT
HETATM    1  C   UNL     1      -8.867  19.776  66.160  1.00  0.00    -0.336 C  
HETATM    2  O   UNL     1      -9.759  18.752  66.572  1.00  0.00    -0.325 OA 
ENDROOT
BRANCH   2   3
HETATM    3  C   UNL     1      -9.203  17.551  66.930  1.00  0.00    -0.265 A  
HETATM    4  C   UNL     1      -9.220  16.350  66.208  1.00  0.00    -0.315 A  
HETATM    5  C   UNL     1      -8.619  15.213  66.763  1.00  0.00    -0.297 A  
HETATM    6  C   UNL     1      -8.634  17.574  68.211  1.00  0.00    -0.266 A  
HETATM    7  C   UNL     1      -8.075  16.426  68.775  1.00  0.00    -0.234 A  
HETATM    8  C   UNL     1      -8.103  15.231  68.061  1.00  0.00    -0.141 A  
BRANCH   4   9
HETATM    9  O   UNL     1      -9.819  16.299  64.974  1.00  0.00    -0.317 OA 
HETATM   10  C   UNL     1     -11.038  15.559  64.930  1.00  0.00    -0.416 C  
ENDBRANCH   4   9
BRANCH   8  11
HETATM   11  C   UNL     1      -7.590  13.961  68.678  1.00  0.00    -0.130 C  
BRANCH  11  12
HETATM   12  C   UNL     1      -7.455  12.830  67.674  1.00  0.00    -0.144 C  
BRANCH  12  13
HETATM   13  O   UNL     1      -7.732  11.577  68.300  1.00  0.00    -0.108 OA 
BRANCH  13  14
HETATM   14  C   UNL     1      -8.047  10.486  67.412  1.00  0.00    -0.111 C  
HETATM   15  C   UNL     1      -8.085  10.967  65.953  1.00  0.00    -0.075 C  
HETATM   16  C   UNL     1      -8.653   9.931  64.995  1.00  0.00    -0.174 C  
HETATM   17  C   UNL     1     -10.014   9.460  65.483  1.00  0.00    -0.129 C  
HETATM   18  C   UNL     1      -9.861   8.740  66.820  1.00  0.00    -0.316 C  
HETATM   19  C   UNL     1      -9.301   9.682  67.897  1.00  0.00    -0.128 C  
BRANCH  19  20
HETATM   20  N   UNL     1      -9.038   9.112  69.239  1.00  0.00    -0.143 NA 
HETATM   21  C   UNL     1      -9.230   7.667  69.387  1.00  0.00    -0.149 C  
HETATM   22  C   UNL     1     -10.661   7.487  69.865  1.00  0.00    -0.254 C  
HETATM   23  C   UNL     1     -10.967   8.767  70.633  1.00  0.00    -0.238 C  
HETATM   24  C   UNL     1      -9.804   9.717  70.331  1.00  0.00    -0.209 C  
HETATM   25  O   UNL     1     -11.063   8.485  72.025  1.00  0.00    -0.295 OA 
HETATM   26  H   UNL     1     -11.254   9.284  72.504  1.00  0.00     0.000 HD 
ENDBRANCH  19  20
ENDBRANCH  13  14
ENDBRANCH  12  13
ENDBRANCH  11  12
ENDBRANCH   8  11
ENDBRANCH   2   3
TORSDOF 7
ENDMDL
MODEL      210
REMARK 921   NORMALIZED FREE ENERGY PREDICTED BY IDOCK:   -3.76 KCAL/MOL
REMARK 922        TOTAL FREE ENERGY PREDICTED BY IDOCK:   -6.22 KCAL/MOL
REMARK 923 INTER-LIGAND FREE ENERGY PREDICTED BY IDOCK:   -5.03 KCAL/MOL
REMARK 924 INTRA-LIGAND FREE ENERGY PREDICTED BY IDOCK:   -1.19 KCAL/MOL
REMARK 927      BINDING AFFINITY PREDICTED BY RF-SCORE:    0.00 PKD
ROOT
HETATM    1  C   UNL     1      -7.829   6.850  67.067  1.00  0.00    -0.111 C  
HETATM    2  O   UNL     1      -9.163   7.284  66.846  1.00  0.00    -0.139 OA 
ENDROOT
BRANCH   2   3
HETATM    3  C   UNL     1      -9.964   7.416  67.950  1.00  0.00    -0.165 A  
HETATM    4  C   UNL     1     -10.157   8.561  68.736  1.00  0.00    -0.196 A  
HETATM    5  C   UNL     1     -10.998   8.485  69.853  1.00  0.00    -0.165 A  
HETATM    6  C   UNL     1     -10.572   6.211  68.331  1.00  0.00    -0.324 A  
HETATM    7  C   UNL     1     -11.375   6.135  69.470  1.00  0.00    -0.426 A  
HETATM    8  C   UNL     1     -11.556   7.270  70.255  1.00  0.00    -0.208 A  
BRANCH   4   9
HETATM    9  O   UNL     1      -9.527   9.734  68.406  1.00  0.00    -0.139 OA 
HETATM   10  C   UNL     1      -8.607  10.216  69.384  1.00  0.00    -0.174 C  
ENDBRANCH   4   9
BRANCH   8  11
HETATM   11  C   UNL     1     -12.340   7.196  71.535  1.00  0.00    -0.406 C  
BRANCH  11  12
HETATM   12  C   UNL     1     -11.701   7.984  72.664  1.00  0.00    -0.358 C  
BRANCH  12  13
HETATM   13  O   UNL     1     -10.986   7.109  73.537  1.00  0.00    -0.328 OA 
BRANCH  13  14
HETATM   14  C   UNL     1     -10.512   5.882  72.947  1.00  0.00    -0.222 C  
HETATM   15  C   UNL     1     -11.109   4.665  73.671  1.00  0.00    -0.379 C  
HETATM   16  C   UNL     1     -10.462   3.349  73.265  1.00  0.00    -0.260 C  
HETATM   17  C   UNL     1      -8.952   3.437  73.432  1.00  0.00    -0.098 C  
HETATM   18  C   UNL     1      -8.389   4.484  72.474  1.00  0.00    -0.110 C  
HETATM   19  C   UNL     1      -8.954   5.878  72.780  1.00  0.00    -0.123 C  
BRANCH  19  20
HETATM   20  N   UNL     1      -8.546   6.995  71.895  1.00  0.00    -0.121 NA 
HETATM   21  C   UNL     1      -7.539   6.690  70.876  1.00  0.00    -0.089 C  
HETATM   22  C   UNL     1      -6.198   7.029  71.507  1.00  0.00    -0.037 C  
HETATM   23  C   UNL     1      -6.518   8.135  72.504  1.00  0.00    -0.080 C  
HETATM   24  C   UNL     1      -8.048   8.186  72.587  1.00  0.00    -0.160 C  
HETATM   25  O   UNL     1      -5.980   9.371  72.046  1.00  0.00    -0.213 OA 
HETATM   26  H   UNL     1      -6.180  10.061  72.669  1.00  0.00     0.000 HD 
ENDBRANCH  19  20
ENDBRANCH  13  14
ENDBRANCH  12  13
ENDBRANCH  11  12
ENDBRANCH   8  11
ENDBRANCH   2   3
TORSDOF 7
ENDMDL
MODEL      211
REMARK 921   NORMALIZED FREE ENERGY PREDICTED BY IDOCK:   -3.73 KCAL/MOL
REMARK 922        TOTAL FREE ENERGY PREDICTED BY IDOCK:   -6.18 KCAL/MOL
REMARK 923 INTER-LIGAND FREE ENERGY PREDICTED BY IDOCK:   -6.68 KCAL/MOL
REMARK 924 INTRA-LIGAND FREE ENERGY PREDICTED BY IDOCK:    0.50 KCAL/MOL
REMARK 927      BINDING AFFINITY PREDICTED BY RF-SCORE:    0.00 PKD
ROOT
HETATM    1  C   UNL     1     -14.220  15.714  72.594  1.00  0.00    -0.314 C  
HETATM    2  O   UNL     1     -12.951  15.078  72.623  1.00  0.00    -0.339 OA 
ENDROOT
BRANCH   2   3
HETATM    3  C   UNL     1     -12.533  14.476  71.465  1.00  0.00    -0.355 A  
HETATM    4  C   UNL     1     -12.638  13.122  71.117  1.00  0.00    -0.314 A  
HETATM    5  C   UNL     1     -12.116  12.692  69.890  1.00  0.00    -0.322 A  
HETATM    6  C   UNL     1     -11.860  15.356  70.604  1.00  0.00    -0.388 A  
HETATM    7  C   UNL     1     -11.305  14.910  69.403  1.00  0.00    -0.312 A  
HETATM    8  C   UNL     1     -11.402  13.564  69.065  1.00  0.00    -0.336 A  
BRANCH   4   9
HETATM    9  O   UNL     1     -13.247  12.239  71.972  1.00  0.00    -0.494 OA 
HETATM   10  C   UNL     1     -12.991  10.863  71.695  1.00  0.00    -0.464 C  
ENDBRANCH   4   9
BRANCH   8  11
HETATM   11  C   UNL     1     -10.736  13.039  67.824  1.00  0.00    -0.242 C  
BRANCH  11  12
HETATM   12  C   UNL     1      -9.300  12.608  68.062  1.00  0.00    -0.209 C  
BRANCH  12  13
HETATM   13  O   UNL     1      -9.039  11.369  67.402  1.00  0.00    -0.157 OA 
BRANCH  13  14
HETATM   14  C   UNL     1      -9.788  10.233  67.878  1.00  0.00    -0.157 C  
HETATM   15  C   UNL     1      -9.728  10.147  69.411  1.00  0.00    -0.247 C  
HETATM   16  C   UNL     1     -10.282   8.841  69.960  1.00  0.00    -0.208 C  
HETATM   17  C   UNL     1      -9.597   7.661  69.289  1.00  0.00    -0.159 C  
HETATM   18  C   UNL     1      -9.928   7.652  67.800  1.00  0.00    -0.219 C  
HETATM   19  C   UNL     1      -9.410   8.921  67.108  1.00  0.00    -0.145 C  
BRANCH  19  20
HETATM   20  N   UNL     1      -9.708   9.088  65.665  1.00  0.00    -0.195 NA 
HETATM   21  C   UNL     1      -8.633   8.748  64.730  1.00  0.00    -0.134 C  
HETATM   22  C   UNL     1      -7.885  10.046  64.471  1.00  0.00    -0.145 C  
HETATM   23  C   UNL     1      -8.937  11.132  64.661  1.00  0.00     0.002 C  
HETATM   24  C   UNL     1     -10.152  10.428  65.274  1.00  0.00    -0.300 C  
HETATM   25  O   UNL     1      -9.256  11.723  63.405  1.00  0.00    -0.527 OA 
HETATM   26  H   UNL     1      -9.912  12.400  63.524  1.00  0.00     0.000 HD 
ENDBRANCH  19  20
ENDBRANCH  13  14
ENDBRANCH  12  13
ENDBRANCH  11  12
ENDBRANCH   8  11
ENDBRANCH   2   3
TORSDOF 7
ENDMDL
MODEL      212
REMARK 921   NORMALIZED FREE ENERGY PREDICTED BY IDOCK:   -3.70 KCAL/MOL
REMARK 922        TOTAL FREE ENERGY PREDICTED BY IDOCK:   -6.13 KCAL/MOL
REMARK 923 INTER-LIGAND FREE ENERGY PREDICTED BY IDOCK:   -5.88 KCAL/MOL
REMARK 924 INTRA-LIGAND FREE ENERGY PREDICTED BY IDOCK:   -0.25 KCAL/MOL
REMARK 927      BINDING AFFINITY PREDICTED BY RF-SCORE:    0.00 PKD
ROOT
HETATM    1  C   UNL     1     -14.335   8.316  72.292  1.00  0.00    -0.335 C  
HETATM    2  O   UNL     1     -14.263   9.707  72.566  1.00  0.00    -0.217 OA 
ENDROOT
BRANCH   2   3
HETATM    3  C   UNL     1     -13.400  10.447  71.802  1.00  0.00    -0.354 A  
HETATM    4  C   UNL     1     -13.266  11.842  71.769  1.00  0.00    -0.321 A  
HETATM    5  C   UNL     1     -12.340  12.416  70.888  1.00  0.00    -0.358 A  
HETATM    6  C   UNL     1     -12.648   9.664  70.914  1.00  0.00    -0.299 A  
HETATM    7  C   UNL     1     -11.759  10.248  70.010  1.00  0.00    -0.330 A  
HETATM    8  C   UNL     1     -11.635  11.633  69.972  1.00  0.00    -0.338 A  
BRANCH   4   9
HETATM    9  O   UNL     1     -14.032  12.625  72.594  1.00  0.00    -0.398 OA 
HETATM   10  C   UNL     1     -14.026  14.016  72.277  1.00  0.00    -0.553 C  
ENDBRANCH   4   9
BRANCH   8  11
HETATM   11  C   UNL     1     -10.755  12.293  68.948  1.00  0.00    -0.210 C  
BRANCH  11  12
HETATM   12  C   UNL     1     -11.111  11.903  67.525  1.00  0.00    -0.273 C  
BRANCH  12  13
HETATM   13  O   UNL     1     -10.886  10.507  67.324  1.00  0.00    -0.275 OA 
BRANCH  13  14
HETATM   14  C   UNL     1      -9.663  10.157  66.645  1.00  0.00    -0.192 C  
HETATM   15  C   UNL     1      -9.911   9.975  65.140  1.00  0.00    -0.388 C  
HETATM   16  C   UNL     1      -8.725   9.366  64.407  1.00  0.00    -0.227 C  
HETATM   17  C   UNL     1      -8.303   8.070  65.083  1.00  0.00    -0.139 C  
HETATM   18  C   UNL     1      -7.805   8.366  66.495  1.00  0.00    -0.092 C  
HETATM   19  C   UNL     1      -8.916   8.980  67.360  1.00  0.00    -0.124 C  
BRANCH  19  20
HETATM   20  N   UNL     1      -8.568   9.379  68.744  1.00  0.00    -0.125 NA 
HETATM   21  C   UNL     1      -7.581  10.451  68.889  1.00  0.00    -0.103 C  
HETATM   22  C   UNL     1      -6.234   9.758  69.017  1.00  0.00    -0.041 C  
HETATM   23  C   UNL     1      -6.561   8.410  69.647  1.00  0.00    -0.037 C  
HETATM   24  C   UNL     1      -8.088   8.293  69.601  1.00  0.00    -0.116 C  
HETATM   25  O   UNL     1      -6.075   8.370  70.984  1.00  0.00    -0.033 OA 
HETATM   26  H   UNL     1      -6.279   7.529  71.377  1.00  0.00     0.000 HD 
ENDBRANCH  19  20
ENDBRANCH  13  14
ENDBRANCH  12  13
ENDBRANCH  11  12
ENDBRANCH   8  11
ENDBRANCH   2   3
TORSDOF 7
ENDMDL
MODEL      213
REMARK 921   NORMALIZED FREE ENERGY PREDICTED BY IDOCK:   -3.69 KCAL/MOL
REMARK 922        TOTAL FREE ENERGY PREDICTED BY IDOCK:   -6.13 KCAL/MOL
REMARK 923 INTER-LIGAND FREE ENERGY PREDICTED BY IDOCK:   -5.56 KCAL/MOL
REMARK 924 INTRA-LIGAND FREE ENERGY PREDICTED BY IDOCK:   -0.57 KCAL/MOL
REMARK 927      BINDING AFFINITY PREDICTED BY RF-SCORE:    0.00 PKD
ROOT
HETATM    1  C   UNL     1      -9.815   9.171  66.614  1.00  0.00    -0.240 C  
HETATM    2  O   UNL     1     -10.153   9.835  65.406  1.00  0.00    -0.305 OA 
ENDROOT
BRANCH   2   3
HETATM    3  C   UNL     1     -10.165  11.205  65.433  1.00  0.00    -0.271 A  
HETATM    4  C   UNL     1     -10.699  12.076  64.472  1.00  0.00    -0.312 A  
HETATM    5  C   UNL     1     -10.583  13.458  64.668  1.00  0.00    -0.431 A  
HETATM    6  C   UNL     1      -9.481  11.735  66.535  1.00  0.00    -0.225 A  
HETATM    7  C   UNL     1      -9.332  13.114  66.700  1.00  0.00    -0.242 A  
HETATM    8  C   UNL     1      -9.854  13.976  65.740  1.00  0.00    -0.280 A  
BRANCH   4   9
HETATM    9  O   UNL     1     -11.327  11.571  63.362  1.00  0.00    -0.374 OA 
HETATM   10  C   UNL     1     -12.731  11.820  63.301  1.00  0.00    -0.180 C  
ENDBRANCH   4   9
BRANCH   8  11
HETATM   11  C   UNL     1      -9.631  15.458  65.844  1.00  0.00    -0.386 C  
BRANCH  11  12
HETATM   12  C   UNL     1      -8.170  15.824  66.034  1.00  0.00     0.443 C  
BRANCH  12  13
HETATM   13  O   UNL     1      -8.014  16.660  67.182  1.00  0.00    -0.160 OA 
BRANCH  13  14
HETATM   14  C   UNL     1      -9.101  17.568  67.450  1.00  0.00    -0.237 C  
HETATM   15  C   UNL     1      -8.695  19.013  67.118  1.00  0.00    -0.305 C  
HETATM   16  C   UNL     1      -9.699  20.045  67.610  1.00  0.00    -0.535 C  
HETATM   17  C   UNL     1      -9.966  19.847  69.094  1.00  0.00    -0.336 C  
HETATM   18  C   UNL     1     -10.629  18.491  69.321  1.00  0.00     0.579 C  
HETATM   19  C   UNL     1      -9.711  17.343  68.875  1.00  0.00    -0.251 C  
BRANCH  19  20
HETATM   20  N   UNL     1     -10.239  15.961  68.977  1.00  0.00    -0.214 NA 
HETATM   21  C   UNL     1     -11.659  15.777  68.666  1.00  0.00    -0.386 C  
HETATM   22  C   UNL     1     -12.391  15.889  69.993  1.00  0.00    -0.148 C  
HETATM   23  C   UNL     1     -11.375  15.417  71.026  1.00  0.00    -0.367 C  
HETATM   24  C   UNL     1     -10.042  15.316  70.277  1.00  0.00     0.006 C  
HETATM   25  O   UNL     1     -11.772  14.156  71.555  1.00  0.00    -0.399 OA 
HETATM   26  H   UNL     1     -11.138  13.862  72.199  1.00  0.00     0.000 HD 
ENDBRANCH  19  20
ENDBRANCH  13  14
ENDBRANCH  12  13
ENDBRANCH  11  12
ENDBRANCH   8  11
ENDBRANCH   2   3
TORSDOF 7
ENDMDL
MODEL      214
REMARK 921   NORMALIZED FREE ENERGY PREDICTED BY IDOCK:   -3.67 KCAL/MOL
REMARK 922        TOTAL FREE ENERGY PREDICTED BY IDOCK:   -6.09 KCAL/MOL
REMARK 923 INTER-LIGAND FREE ENERGY PREDICTED BY IDOCK:   -6.25 KCAL/MOL
REMARK 924 INTRA-LIGAND FREE ENERGY PREDICTED BY IDOCK:    0.15 KCAL/MOL
REMARK 927      BINDING AFFINITY PREDICTED BY RF-SCORE:    0.00 PKD
ROOT
HETATM    1  C   UNL     1     -13.564  13.542  72.332  1.00  0.00    -0.608 C  
HETATM    2  O   UNL     1     -12.564  13.890  71.386  1.00  0.00    -0.344 OA 
ENDROOT
BRANCH   2   3
HETATM    3  C   UNL     1     -12.281  12.966  70.414  1.00  0.00    -0.304 A  
HETATM    4  C   UNL     1     -12.375  11.570  70.505  1.00  0.00    -0.342 A  
HETATM    5  C   UNL     1     -12.006  10.789  69.402  1.00  0.00    -0.353 A  
HETATM    6  C   UNL     1     -11.769  13.544  69.243  1.00  0.00    -0.382 A  
HETATM    7  C   UNL     1     -11.364  12.756  68.165  1.00  0.00    -0.329 A  
HETATM    8  C   UNL     1     -11.448  11.370  68.261  1.00  0.00    -0.369 A  
BRANCH   4   9
HETATM    9  O   UNL     1     -12.824  10.987  71.662  1.00  0.00    -0.430 OA 
HETATM   10  C   UNL     1     -13.071   9.584  71.570  1.00  0.00    -0.389 C  
ENDBRANCH   4   9
BRANCH   8  11
HETATM   11  C   UNL     1     -10.934  10.495  67.153  1.00  0.00    -0.294 C  
BRANCH  11  12
HETATM   12  C   UNL     1     -10.221   9.256  67.662  1.00  0.00    -0.230 C  
BRANCH  12  13
HETATM   13  O   UNL     1     -10.210   8.242  66.656  1.00  0.00    -0.290 OA 
BRANCH  13  14
HETATM   14  C   UNL     1      -8.948   7.577  66.447  1.00  0.00    -0.167 C  
HETATM   15  C   UNL     1      -7.932   8.532  65.802  1.00  0.00    -0.107 C  
HETATM   16  C   UNL     1      -6.668   7.830  65.327  1.00  0.00    -0.047 C  
HETATM   17  C   UNL     1      -7.028   6.668  64.414  1.00  0.00    -0.054 C  
HETATM   18  C   UNL     1      -7.809   5.619  65.200  1.00  0.00    -0.099 C  
HETATM   19  C   UNL     1      -9.129   6.193  65.735  1.00  0.00    -0.040 C  
BRANCH  19  20
HETATM   20  N   UNL     1      -9.974   5.309  66.572  1.00  0.00    -0.183 NA 
HETATM   21  C   UNL     1      -9.657   5.261  68.001  1.00  0.00    -0.132 C  
HETATM   22  C   UNL     1      -8.700   4.092  68.173  1.00  0.00    -0.117 C  
HETATM   23  C   UNL     1      -9.072   3.132  67.049  1.00  0.00    -0.175 C  
HETATM   24  C   UNL     1     -10.029   3.911  66.141  1.00  0.00    -0.051 C  
HETATM   25  O   UNL     1      -9.694   1.972  67.590  1.00  0.00    -0.411 OA 
HETATM   26  H   UNL     1      -9.926   1.373  66.889  1.00  0.00     0.000 HD 
ENDBRANCH  19  20
ENDBRANCH  13  14
ENDBRANCH  12  13
ENDBRANCH  11  12
ENDBRANCH   8  11
ENDBRANCH   2   3
TORSDOF 7
ENDMDL
MODEL      215
REMARK 921   NORMALIZED FREE ENERGY PREDICTED BY IDOCK:   -3.65 KCAL/MOL
REMARK 922        TOTAL FREE ENERGY PREDICTED BY IDOCK:   -6.06 KCAL/MOL
REMARK 923 INTER-LIGAND FREE ENERGY PREDICTED BY IDOCK:   -6.86 KCAL/MOL
REMARK 924 INTRA-LIGAND FREE ENERGY PREDICTED BY IDOCK:    0.80 KCAL/MOL
REMARK 927      BINDING AFFINITY PREDICTED BY RF-SCORE:    0.00 PKD
ROOT
HETATM    1  C   UNL     1     -12.894  14.623  73.523  1.00  0.00    -0.297 C  
HETATM    2  O   UNL     1     -13.603  13.611  72.824  1.00  0.00    -0.672 OA 
ENDROOT
BRANCH   2   3
HETATM    3  C   UNL     1     -12.949  12.998  71.788  1.00  0.00    -0.321 A  
HETATM    4  C   UNL     1     -12.260  13.607  70.730  1.00  0.00    -0.347 A  
HETATM    5  C   UNL     1     -11.680  12.801  69.741  1.00  0.00    -0.352 A  
HETATM    6  C   UNL     1     -13.088  11.602  71.803  1.00  0.00    -0.487 A  
HETATM    7  C   UNL     1     -12.544  10.810  70.791  1.00  0.00    -0.476 A  
HETATM    8  C   UNL     1     -11.869  11.417  69.736  1.00  0.00    -0.435 A  
BRANCH   4   9
HETATM    9  O   UNL     1     -12.159  14.974  70.673  1.00  0.00    -0.276 OA 
HETATM   10  C   UNL     1     -13.405  15.665  70.600  1.00  0.00     0.003 C  
ENDBRANCH   4   9
BRANCH   8  11
HETATM   11  C   UNL     1     -11.352  10.598  68.588  1.00  0.00    -0.345 C  
BRANCH  11  12
HETATM   12  C   UNL     1     -11.338  11.363  67.276  1.00  0.00    -0.275 C  
BRANCH  12  13
HETATM   13  O   UNL     1     -10.108  12.073  67.131  1.00  0.00    -0.200 OA 
BRANCH  13  14
HETATM   14  C   UNL     1      -9.366  11.806  65.924  1.00  0.00    -0.202 C  
HETATM   15  C   UNL     1     -10.305  11.334  64.803  1.00  0.00    -0.366 C  
HETATM   16  C   UNL     1      -9.565  10.799  63.586  1.00  0.00    -0.347 C  
HETATM   17  C   UNL     1      -8.581   9.718  64.008  1.00  0.00    -0.208 C  
HETATM   18  C   UNL     1      -7.507  10.323  64.908  1.00  0.00    -0.114 C  
HETATM   19  C   UNL     1      -8.119  10.897  66.195  1.00  0.00    -0.160 C  
BRANCH  19  20
HETATM   20  N   UNL     1      -7.207  11.575  67.147  1.00  0.00    -0.131 NA 
HETATM   21  C   UNL     1      -5.898  10.951  67.358  1.00  0.00    -0.046 C  
HETATM   22  C   UNL     1      -6.067  10.034  68.559  1.00  0.00    -0.045 C  
HETATM   23  C   UNL     1      -7.170  10.688  69.382  1.00  0.00    -0.126 C  
HETATM   24  C   UNL     1      -7.755  11.787  68.488  1.00  0.00    -0.137 C  
HETATM   25  O   UNL     1      -6.624  11.228  70.581  1.00  0.00    -0.496 OA 
HETATM   26  H   UNL     1      -7.312  11.636  71.094  1.00  0.00     0.000 HD 
ENDBRANCH  19  20
ENDBRANCH  13  14
ENDBRANCH  12  13
ENDBRANCH  11  12
ENDBRANCH   8  11
ENDBRANCH   2   3
TORSDOF 7
ENDMDL
MODEL      216
REMARK 921   NORMALIZED FREE ENERGY PREDICTED BY IDOCK:   -3.64 KCAL/MOL
REMARK 922        TOTAL FREE ENERGY PREDICTED BY IDOCK:   -6.06 KCAL/MOL
REMARK 923 INTER-LIGAND FREE ENERGY PREDICTED BY IDOCK:   -4.91 KCAL/MOL
REMARK 924 INTRA-LIGAND FREE ENERGY PREDICTED BY IDOCK:   -1.15 KCAL/MOL
REMARK 927      BINDING AFFINITY PREDICTED BY RF-SCORE:    0.00 PKD
ROOT
HETATM    1  C   UNL     1      -6.292   5.646  71.694  1.00  0.00    -0.044 C  
HETATM    2  O   UNL     1      -6.307   7.051  71.896  1.00  0.00    -0.041 OA 
ENDROOT
BRANCH   2   3
HETATM    3  C   UNL     1      -7.478   7.705  71.616  1.00  0.00    -0.076 A  
HETATM    4  C   UNL     1      -7.823   8.379  70.436  1.00  0.00    -0.090 A  
HETATM    5  C   UNL     1      -9.066   9.019  70.356  1.00  0.00    -0.242 A  
HETATM    6  C   UNL     1      -8.360   7.735  72.706  1.00  0.00    -0.183 A  
HETATM    7  C   UNL     1      -9.579   8.412  72.632  1.00  0.00    -0.337 A  
HETATM    8  C   UNL     1      -9.915   9.089  71.463  1.00  0.00    -0.391 A  
BRANCH   4   9
HETATM    9  O   UNL     1      -6.948   8.403  69.379  1.00  0.00    -0.048 OA 
HETATM   10  C   UNL     1      -7.245   7.477  68.334  1.00  0.00    -0.093 C  
ENDBRANCH   4   9
BRANCH   8  11
HETATM   11  C   UNL     1     -11.177   9.900  71.386  1.00  0.00    -0.279 C  
BRANCH  11  12
HETATM   12  C   UNL     1     -11.995   9.601  70.143  1.00  0.00     0.039 C  
BRANCH  12  13
HETATM   13  O   UNL     1     -12.267  10.808  69.428  1.00  0.00    -0.303 OA 
BRANCH  13  14
HETATM   14  C   UNL     1     -11.499  11.014  68.226  1.00  0.00    -0.304 C  
HETATM   15  C   UNL     1     -11.089   9.668  67.606  1.00  0.00    -0.061 C  
HETATM   16  C   UNL     1     -10.073   9.810  66.483  1.00  0.00    -0.307 C  
HETATM   17  C   UNL     1      -8.873  10.613  66.964  1.00  0.00    -0.141 C  
HETATM   18  C   UNL     1      -9.309  12.035  67.304  1.00  0.00    -0.180 C  
HETATM   19  C   UNL     1     -10.338  12.043  68.444  1.00  0.00    -0.214 C  
BRANCH  19  20
HETATM   20  N   UNL     1     -10.904  13.352  68.850  1.00  0.00    -0.242 NA 
HETATM   21  C   UNL     1     -12.173  13.738  68.230  1.00  0.00    -0.142 C  
HETATM   22  C   UNL     1     -11.802  14.560  67.006  1.00  0.00    -0.408 C  
HETATM   23  C   UNL     1     -10.465  15.194  67.369  1.00  0.00    -0.264 C  
HETATM   24  C   UNL     1     -10.015  14.499  68.658  1.00  0.00    -0.237 C  
HETATM   25  O   UNL     1     -10.630  16.595  67.562  1.00  0.00    -0.319 OA 
HETATM   26  H   UNL     1      -9.796  16.990  67.788  1.00  0.00     0.000 HD 
ENDBRANCH  19  20
ENDBRANCH  13  14
ENDBRANCH  12  13
ENDBRANCH  11  12
ENDBRANCH   8  11
ENDBRANCH   2   3
TORSDOF 7
ENDMDL
MODEL      217
REMARK 921   NORMALIZED FREE ENERGY PREDICTED BY IDOCK:   -3.64 KCAL/MOL
REMARK 922        TOTAL FREE ENERGY PREDICTED BY IDOCK:   -6.05 KCAL/MOL
REMARK 923 INTER-LIGAND FREE ENERGY PREDICTED BY IDOCK:   -5.51 KCAL/MOL
REMARK 924 INTRA-LIGAND FREE ENERGY PREDICTED BY IDOCK:   -0.55 KCAL/MOL
REMARK 927      BINDING AFFINITY PREDICTED BY RF-SCORE:    0.00 PKD
ROOT
HETATM    1  C   UNL     1      -9.924   6.641  69.163  1.00  0.00    -0.157 C  
HETATM    2  O   UNL     1      -9.446   7.534  70.158  1.00  0.00    -0.161 OA 
ENDROOT
BRANCH   2   3
HETATM    3  C   UNL     1      -8.751   8.632  69.724  1.00  0.00    -0.132 A  
HETATM    4  C   UNL     1      -7.388   8.909  69.901  1.00  0.00    -0.054 A  
HETATM    5  C   UNL     1      -6.867  10.111  69.407  1.00  0.00    -0.070 A  
HETATM    6  C   UNL     1      -9.570   9.588  69.105  1.00  0.00    -0.170 A  
HETATM    7  C   UNL     1      -9.051  10.803  68.654  1.00  0.00    -0.173 A  
HETATM    8  C   UNL     1      -7.699  11.080  68.841  1.00  0.00    -0.140 A  
BRANCH   4   9
HETATM    9  O   UNL     1      -6.583   8.007  70.550  1.00  0.00    -0.037 OA 
HETATM   10  C   UNL     1      -6.163   8.407  71.854  1.00  0.00    -0.061 C  
ENDBRANCH   4   9
BRANCH   8  11
HETATM   11  C   UNL     1      -7.132  12.414  68.447  1.00  0.00    -0.106 C  
BRANCH  11  12
HETATM   12  C   UNL     1      -8.103  13.558  68.674  1.00  0.00    -0.055 C  
BRANCH  12  13
HETATM   13  O   UNL     1      -8.178  14.382  67.510  1.00  0.00    -0.161 OA 
BRANCH  13  14
HETATM   14  C   UNL     1      -9.505  14.752  67.085  1.00  0.00    -0.227 C  
HETATM   15  C   UNL     1     -10.205  13.567  66.401  1.00  0.00    -0.291 C  
HETATM   16  C   UNL     1     -11.503  13.956  65.710  1.00  0.00    -0.324 C  
HETATM   17  C   UNL     1     -11.258  15.112  64.752  1.00  0.00    -0.396 C  
HETATM   18  C   UNL     1     -10.826  16.348  65.537  1.00  0.00    -0.224 C  
HETATM   19  C   UNL     1      -9.507  16.098  66.283  1.00  0.00    -0.316 C  
BRANCH  19  20
HETATM   20  N   UNL     1      -8.986  17.189  67.142  1.00  0.00    -0.223 NA 
HETATM   21  C   UNL     1      -9.899  17.717  68.158  1.00  0.00    -0.318 C  
HETATM   22  C   UNL     1     -10.600  18.899  67.509  1.00  0.00    -0.524 C  
HETATM   23  C   UNL     1      -9.594  19.422  66.491  1.00  0.00    -0.370 C  
HETATM   24  C   UNL     1      -8.489  18.363  66.421  1.00  0.00    -0.245 C  
HETATM   25  O   UNL     1      -9.083  20.681  66.918  1.00  0.00    -0.571 OA 
HETATM   26  H   UNL     1      -8.456  21.007  66.283  1.00  0.00     0.000 HD 
ENDBRANCH  19  20
ENDBRANCH  13  14
ENDBRANCH  12  13
ENDBRANCH  11  12
ENDBRANCH   8  11
ENDBRANCH   2   3
TORSDOF 7
ENDMDL
MODEL      218
REMARK 921   NORMALIZED FREE ENERGY PREDICTED BY IDOCK:   -3.62 KCAL/MOL
REMARK 922        TOTAL FREE ENERGY PREDICTED BY IDOCK:   -6.03 KCAL/MOL
REMARK 923 INTER-LIGAND FREE ENERGY PREDICTED BY IDOCK:   -7.26 KCAL/MOL
REMARK 924 INTRA-LIGAND FREE ENERGY PREDICTED BY IDOCK:    1.24 KCAL/MOL
REMARK 927      BINDING AFFINITY PREDICTED BY RF-SCORE:    0.00 PKD
ROOT
HETATM    1  C   UNL     1     -11.285  10.368  68.907  1.00  0.00    -0.235 C  
HETATM    2  O   UNL     1     -12.110  11.099  68.012  1.00  0.00    -0.635 OA 
ENDROOT
BRANCH   2   3
HETATM    3  C   UNL     1     -11.728  12.382  67.722  1.00  0.00    -0.350 A  
HETATM    4  C   UNL     1     -11.996  13.113  66.556  1.00  0.00    -0.398 A  
HETATM    5  C   UNL     1     -11.485  14.412  66.435  1.00  0.00    -0.365 A  
HETATM    6  C   UNL     1     -10.911  12.945  68.713  1.00  0.00    -0.277 A  
HETATM    7  C   UNL     1     -10.370  14.224  68.565  1.00  0.00    -0.244 A  
HETATM    8  C   UNL     1     -10.629  14.944  67.402  1.00  0.00    -0.263 A  
BRANCH   4   9
HETATM    9  O   UNL     1     -12.750  12.557  65.555  1.00  0.00    -0.583 OA 
HETATM   10  C   UNL     1     -12.174  12.641  64.252  1.00  0.00    -0.445 C  
ENDBRANCH   4   9
BRANCH   8  11
HETATM   11  C   UNL     1      -9.988  16.284  67.175  1.00  0.00    -0.257 C  
BRANCH  11  12
HETATM   12  C   UNL     1      -9.378  16.420  65.791  1.00  0.00    -0.117 C  
BRANCH  12  13
HETATM   13  O   UNL     1      -8.081  17.011  65.878  1.00  0.00    -0.494 OA 
BRANCH  13  14
HETATM   14  C   UNL     1      -7.225  16.500  66.919  1.00  0.00    -0.228 C  
HETATM   15  C   UNL     1      -7.274  14.964  66.957  1.00  0.00     0.196 C  
HETATM   16  C   UNL     1      -6.595  14.374  68.184  1.00  0.00    -0.133 C  
HETATM   17  C   UNL     1      -7.164  15.001  69.448  1.00  0.00    -0.194 C  
HETATM   18  C   UNL     1      -6.835  16.491  69.475  1.00  0.00    -0.175 C  
HETATM   19  C   UNL     1      -7.475  17.223  68.287  1.00  0.00    -0.224 C  
BRANCH  19  20
HETATM   20  N   UNL     1      -7.196  18.672  68.141  1.00  0.00    -0.246 NA 
HETATM   21  C   UNL     1      -8.291  19.587  68.472  1.00  0.00    -0.337 C  
HETATM   22  C   UNL     1      -9.020  19.849  67.163  1.00  0.00    -0.425 C  
HETATM   23  C   UNL     1      -7.946  19.688  66.094  1.00  0.00    -0.343 C  
HETATM   24  C   UNL     1      -6.735  19.085  66.814  1.00  0.00    -0.191 C  
HETATM   25  O   UNL     1      -7.636  20.955  65.524  1.00  0.00    -0.301 OA 
HETATM   26  H   UNL     1      -6.966  20.854  64.857  1.00  0.00     0.000 HD 
ENDBRANCH  19  20
ENDBRANCH  13  14
ENDBRANCH  12  13
ENDBRANCH  11  12
ENDBRANCH   8  11
ENDBRANCH   2   3
TORSDOF 7
ENDMDL
MODEL      219
REMARK 921   NORMALIZED FREE ENERGY PREDICTED BY IDOCK:   -3.61 KCAL/MOL
REMARK 922        TOTAL FREE ENERGY PREDICTED BY IDOCK:   -6.01 KCAL/MOL
REMARK 923 INTER-LIGAND FREE ENERGY PREDICTED BY IDOCK:   -5.12 KCAL/MOL
REMARK 924 INTRA-LIGAND FREE ENERGY PREDICTED BY IDOCK:   -0.89 KCAL/MOL
REMARK 927      BINDING AFFINITY PREDICTED BY RF-SCORE:    0.00 PKD
ROOT
HETATM    1  C   UNL     1     -12.669  12.157  63.568  1.00  0.00    -0.431 C  
HETATM    2  O   UNL     1     -11.456  12.694  64.072  1.00  0.00    -0.351 OA 
ENDROOT
BRANCH   2   3
HETATM    3  C   UNL     1     -11.027  12.228  65.287  1.00  0.00    -0.307 A  
HETATM    4  C   UNL     1     -11.318  12.749  66.556  1.00  0.00    -0.322 A  
HETATM    5  C   UNL     1     -10.753  12.145  67.686  1.00  0.00    -0.252 A  
HETATM    6  C   UNL     1     -10.136  11.150  65.176  1.00  0.00    -0.335 A  
HETATM    7  C   UNL     1      -9.544  10.581  66.304  1.00  0.00    -0.232 A  
HETATM    8  C   UNL     1      -9.826  11.107  67.562  1.00  0.00    -0.197 A  
BRANCH   4   9
HETATM    9  O   UNL     1     -12.147  13.835  66.678  1.00  0.00    -0.411 OA 
HETATM   10  C   UNL     1     -11.695  14.835  67.591  1.00  0.00    -0.341 C  
ENDBRANCH   4   9
BRANCH   8  11
HETATM   11  C   UNL     1      -9.134  10.575  68.785  1.00  0.00    -0.166 C  
BRANCH  11  12
HETATM   12  C   UNL     1     -10.032   9.692  69.633  1.00  0.00    -0.221 C  
BRANCH  12  13
HETATM   13  O   UNL     1      -9.392   8.443  69.898  1.00  0.00    -0.154 OA 
BRANCH  13  14
HETATM   14  C   UNL     1      -9.244   7.560  68.768  1.00  0.00    -0.145 C  
HETATM   15  C   UNL     1     -10.589   7.369  68.050  1.00  0.00    -0.235 C  
HETATM   16  C   UNL     1     -10.560   6.262  67.007  1.00  0.00    -0.386 C  
HETATM   17  C   UNL     1     -10.050   4.971  67.631  1.00  0.00    -0.192 C  
HETATM   18  C   UNL     1      -8.602   5.152  68.078  1.00  0.00    -0.103 C  
HETATM   19  C   UNL     1      -8.484   6.245  69.151  1.00  0.00    -0.120 C  
BRANCH  19  20
HETATM   20  N   UNL     1      -7.127   6.580  69.644  1.00  0.00    -0.070 NA 
HETATM   21  C   UNL     1      -6.018   5.797  69.096  1.00  0.00    -0.020 C  
HETATM   22  C   UNL     1      -5.812   4.640  70.061  1.00  0.00    -0.017 C  
HETATM   23  C   UNL     1      -6.273   5.185  71.407  1.00  0.00    -0.030 C  
HETATM   24  C   UNL     1      -6.962   6.518  71.098  1.00  0.00    -0.068 C  
HETATM   25  O   UNL     1      -5.152   5.364  72.266  1.00  0.00    -0.011 OA 
HETATM   26  H   UNL     1      -5.440   5.704  73.106  1.00  0.00     0.000 HD 
ENDBRANCH  19  20
ENDBRANCH  13  14
ENDBRANCH  12  13
ENDBRANCH  11  12
ENDBRANCH   8  11
ENDBRANCH   2   3
TORSDOF 7
ENDMDL
MODEL      220
REMARK 921   NORMALIZED FREE ENERGY PREDICTED BY IDOCK:   -3.60 KCAL/MOL
REMARK 922        TOTAL FREE ENERGY PREDICTED BY IDOCK:   -6.00 KCAL/MOL
REMARK 923 INTER-LIGAND FREE ENERGY PREDICTED BY IDOCK:   -4.94 KCAL/MOL
REMARK 924 INTRA-LIGAND FREE ENERGY PREDICTED BY IDOCK:   -1.06 KCAL/MOL
REMARK 927      BINDING AFFINITY PREDICTED BY RF-SCORE:    0.00 PKD
ROOT
HETATM    1  C   UNL     1      -8.474   4.731  65.811  1.00  0.00    -0.119 C  
HETATM    2  O   UNL     1      -9.069   5.078  67.052  1.00  0.00    -0.115 OA 
ENDROOT
BRANCH   2   3
HETATM    3  C   UNL     1      -8.486   6.099  67.756  1.00  0.00    -0.115 A  
HETATM    4  C   UNL     1      -8.684   7.477  67.588  1.00  0.00    -0.122 A  
HETATM    5  C   UNL     1      -7.964   8.371  68.392  1.00  0.00    -0.118 A  
HETATM    6  C   UNL     1      -7.535   5.650  68.684  1.00  0.00    -0.084 A  
HETATM    7  C   UNL     1      -6.791   6.549  69.450  1.00  0.00    -0.065 A  
HETATM    8  C   UNL     1      -6.981   7.917  69.274  1.00  0.00    -0.056 A  
BRANCH   4   9
HETATM    9  O   UNL     1      -9.573   7.933  66.649  1.00  0.00    -0.197 OA 
HETATM   10  C   UNL     1      -9.460   9.322  66.341  1.00  0.00    -0.218 C  
ENDBRANCH   4   9
BRANCH   8  11
HETATM   11  C   UNL     1      -6.131   8.908  70.018  1.00  0.00    -0.037 C  
BRANCH  11  12
HETATM   12  C   UNL     1      -6.651   9.199  71.414  1.00  0.00    -0.059 C  
BRANCH  12  13
HETATM   13  O   UNL     1      -8.079   9.173  71.426  1.00  0.00    -0.318 OA 
BRANCH  13  14
HETATM   14  C   UNL     1      -8.684   8.261  72.364  1.00  0.00    -0.213 C  
HETATM   15  C   UNL     1      -7.636   7.724  73.352  1.00  0.00    -0.156 C  
HETATM   16  C   UNL     1      -8.151   6.574  74.204  1.00  0.00    -0.128 C  
HETATM   17  C   UNL     1      -8.719   5.479  73.314  1.00  0.00    -0.115 C  
HETATM   18  C   UNL     1      -9.937   6.007  72.562  1.00  0.00    -0.195 C  
HETATM   19  C   UNL     1      -9.558   7.178  71.643  1.00  0.00    -0.155 C  
BRANCH  19  20
HETATM   20  N   UNL     1     -10.648   7.840  70.888  1.00  0.00    -0.212 NA 
HETATM   21  C   UNL     1     -11.232   9.039  71.495  1.00  0.00    -0.348 C  
HETATM   22  C   UNL     1     -12.424   8.553  72.303  1.00  0.00    -0.448 C  
HETATM   23  C   UNL     1     -12.887   7.297  71.575  1.00  0.00    -0.388 C  
HETATM   24  C   UNL     1     -11.786   6.980  70.557  1.00  0.00    -0.312 C  
HETATM   25  O   UNL     1     -14.135   7.540  70.935  1.00  0.00    -0.647 OA 
HETATM   26  H   UNL     1     -14.423   6.756  70.481  1.00  0.00     0.000 HD 
ENDBRANCH  19  20
ENDBRANCH  13  14
ENDBRANCH  12  13
ENDBRANCH  11  12
ENDBRANCH   8  11
ENDBRANCH   2   3
TORSDOF 7
ENDMDL
MODEL      221
REMARK 921   NORMALIZED FREE ENERGY PREDICTED BY IDOCK:   -3.59 KCAL/MOL
REMARK 922        TOTAL FREE ENERGY PREDICTED BY IDOCK:   -5.98 KCAL/MOL
REMARK 923 INTER-LIGAND FREE ENERGY PREDICTED BY IDOCK:   -5.51 KCAL/MOL
REMARK 924 INTRA-LIGAND FREE ENERGY PREDICTED BY IDOCK:   -0.47 KCAL/MOL
REMARK 927      BINDING AFFINITY PREDICTED BY RF-SCORE:    0.00 PKD
ROOT
HETATM    1  C   UNL     1      -6.270   7.441  71.769  1.00  0.00    -0.036 C  
HETATM    2  O   UNL     1      -7.293   6.631  72.328  1.00  0.00    -0.087 OA 
ENDROOT
BRANCH   2   3
HETATM    3  C   UNL     1      -8.585   7.056  72.157  1.00  0.00    -0.111 A  
HETATM    4  C   UNL     1      -9.734   6.266  72.010  1.00  0.00    -0.151 A  
HETATM    5  C   UNL     1     -10.970   6.894  71.811  1.00  0.00    -0.259 A  
HETATM    6  C   UNL     1      -8.691   8.450  72.049  1.00  0.00    -0.267 A  
HETATM    7  C   UNL     1      -9.921   9.065  71.808  1.00  0.00    -0.359 A  
HETATM    8  C   UNL     1     -11.059   8.279  71.651  1.00  0.00    -0.326 A  
BRANCH   4   9
HETATM    9  O   UNL     1      -9.638   4.899  72.062  1.00  0.00    -0.146 OA 
HETATM   10  C   UNL     1      -9.080   4.382  73.269  1.00  0.00    -0.114 C  
ENDBRANCH   4   9
BRANCH   8  11
HETATM   11  C   UNL     1     -12.378   8.906  71.302  1.00  0.00    -0.342 C  
BRANCH  11  12
HETATM   12  C   UNL     1     -12.240  10.337  70.813  1.00  0.00    -0.350 C  
BRANCH  12  13
HETATM   13  O   UNL     1     -11.876  10.356  69.433  1.00  0.00    -0.211 OA 
BRANCH  13  14
HETATM   14  C   UNL     1     -11.218  11.553  68.972  1.00  0.00    -0.262 C  
HETATM   15  C   UNL     1     -12.124  12.779  69.167  1.00  0.00    -0.206 C  
HETATM   16  C   UNL     1     -11.597  14.029  68.478  1.00  0.00    -0.357 C  
HETATM   17  C   UNL     1     -11.326  13.740  67.009  1.00  0.00    -0.345 C  
HETATM   18  C   UNL     1     -10.212  12.704  66.886  1.00  0.00    -0.242 C  
HETATM   19  C   UNL     1     -10.617  11.372  67.536  1.00  0.00    -0.213 C  
BRANCH  19  20
HETATM   20  N   UNL     1      -9.614  10.281  67.550  1.00  0.00    -0.155 NA 
HETATM   21  C   UNL     1      -8.243  10.645  67.185  1.00  0.00    -0.121 C  
HETATM   22  C   UNL     1      -8.133  10.391  65.690  1.00  0.00    -0.156 C  
HETATM   23  C   UNL     1      -9.129   9.269  65.423  1.00  0.00    -0.222 C  
HETATM   24  C   UNL     1      -9.943   9.125  66.714  1.00  0.00    -0.254 C  
HETATM   25  O   UNL     1      -8.433   8.067  65.109  1.00  0.00    -0.214 OA 
HETATM   26  H   UNL     1      -9.054   7.368  64.943  1.00  0.00     0.000 HD 
ENDBRANCH  19  20
ENDBRANCH  13  14
ENDBRANCH  12  13
ENDBRANCH  11  12
ENDBRANCH   8  11
ENDBRANCH   2   3
TORSDOF 7
ENDMDL
MODEL      222
REMARK 921   NORMALIZED FREE ENERGY PREDICTED BY IDOCK:   -3.58 KCAL/MOL
REMARK 922        TOTAL FREE ENERGY PREDICTED BY IDOCK:   -5.97 KCAL/MOL
REMARK 923 INTER-LIGAND FREE ENERGY PREDICTED BY IDOCK:   -5.18 KCAL/MOL
REMARK 924 INTRA-LIGAND FREE ENERGY PREDICTED BY IDOCK:   -0.79 KCAL/MOL
REMARK 927      BINDING AFFINITY PREDICTED BY RF-SCORE:    0.00 PKD
ROOT
HETATM    1  C   UNL     1     -11.161  16.296  69.378  1.00  0.00    -0.328 C  
HETATM    2  O   UNL     1     -10.141  17.105  68.810  1.00  0.00    -0.292 OA 
ENDROOT
BRANCH   2   3
HETATM    3  C   UNL     1      -9.002  16.466  68.395  1.00  0.00    -0.214 A  
HETATM    4  C   UNL     1      -8.523  16.335  67.084  1.00  0.00    -0.187 A  
HETATM    5  C   UNL     1      -7.345  15.610  66.859  1.00  0.00    -0.127 A  
HETATM    6  C   UNL     1      -8.322  15.825  69.441  1.00  0.00    -0.215 A  
HETATM    7  C   UNL     1      -7.173  15.070  69.202  1.00  0.00    -0.159 A  
HETATM    8  C   UNL     1      -6.706  14.931  67.898  1.00  0.00    -0.175 A  
BRANCH   4   9
HETATM    9  O   UNL     1      -9.205  16.913  66.043  1.00  0.00    -0.440 OA 
HETATM   10  C   UNL     1     -10.163  16.066  65.410  1.00  0.00    -0.302 C  
ENDBRANCH   4   9
BRANCH   8  11
HETATM   11  C   UNL     1      -5.525  14.051  67.600  1.00  0.00     0.048 C  
BRANCH  11  12
HETATM   12  C   UNL     1      -5.897  12.584  67.487  1.00  0.00    -0.145 C  
BRANCH  12  13
HETATM   13  O   UNL     1      -7.110  12.325  68.196  1.00  0.00    -0.076 OA 
BRANCH  13  14
HETATM   14  C   UNL     1      -7.875  11.191  67.740  1.00  0.00    -0.114 C  
HETATM   15  C   UNL     1      -7.147   9.878  68.070  1.00  0.00    -0.082 C  
HETATM   16  C   UNL     1      -7.772   8.663  67.400  1.00  0.00    -0.098 C  
HETATM   17  C   UNL     1      -7.891   8.896  65.902  1.00  0.00    -0.102 C  
HETATM   18  C   UNL     1      -8.854  10.050  65.636  1.00  0.00    -0.184 C  
HETATM   19  C   UNL     1      -8.337  11.359  66.252  1.00  0.00    -0.111 C  
BRANCH  19  20
HETATM   20  N   UNL     1      -9.194  12.562  66.130  1.00  0.00    -0.136 NA 
HETATM   21  C   UNL     1      -9.944  12.956  67.324  1.00  0.00    -0.224 C  
HETATM   22  C   UNL     1     -11.302  12.283  67.200  1.00  0.00    -0.398 C  
HETATM   23  C   UNL     1     -11.524  12.156  65.698  1.00  0.00    -0.355 C  
HETATM   24  C   UNL     1     -10.182  12.513  65.051  1.00  0.00    -0.279 C  
HETATM   25  O   UNL     1     -12.556  13.045  65.284  1.00  0.00    -0.486 OA 
HETATM   26  H   UNL     1     -12.694  12.965  64.348  1.00  0.00     0.000 HD 
ENDBRANCH  19  20
ENDBRANCH  13  14
ENDBRANCH  12  13
ENDBRANCH  11  12
ENDBRANCH   8  11
ENDBRANCH   2   3
TORSDOF 7
ENDMDL
MODEL      223
REMARK 921   NORMALIZED FREE ENERGY PREDICTED BY IDOCK:   -3.58 KCAL/MOL
REMARK 922        TOTAL FREE ENERGY PREDICTED BY IDOCK:   -5.97 KCAL/MOL
REMARK 923 INTER-LIGAND FREE ENERGY PREDICTED BY IDOCK:   -5.38 KCAL/MOL
REMARK 924 INTRA-LIGAND FREE ENERGY PREDICTED BY IDOCK:   -0.59 KCAL/MOL
REMARK 927      BINDING AFFINITY PREDICTED BY RF-SCORE:    0.00 PKD
ROOT
HETATM    1  C   UNL     1     -11.709  14.716  67.104  1.00  0.00    -0.373 C  
HETATM    2  O   UNL     1     -12.389  13.554  66.652  1.00  0.00    -0.376 OA 
ENDROOT
BRANCH   2   3
HETATM    3  C   UNL     1     -11.633  12.428  66.459  1.00  0.00    -0.387 A  
HETATM    4  C   UNL     1     -11.074  11.967  65.259  1.00  0.00    -0.299 A  
HETATM    5  C   UNL     1     -10.353  10.765  65.261  1.00  0.00    -0.327 A  
HETATM    6  C   UNL     1     -11.505  11.650  67.619  1.00  0.00    -0.373 A  
HETATM    7  C   UNL     1     -10.823  10.433  67.603  1.00  0.00    -0.361 A  
HETATM    8  C   UNL     1     -10.277   9.972  66.408  1.00  0.00    -0.290 A  
BRANCH   4   9
HETATM    9  O   UNL     1     -11.233  12.690  64.105  1.00  0.00    -0.336 OA 
HETATM   10  C   UNL     1     -12.498  12.527  63.465  1.00  0.00    -0.459 C  
ENDBRANCH   4   9
BRANCH   8  11
HETATM   11  C   UNL     1      -9.617   8.624  66.340  1.00  0.00    -0.316 C  
BRANCH  11  12
HETATM   12  C   UNL     1      -8.192   8.638  66.866  1.00  0.00    -0.105 C  
BRANCH  12  13
HETATM   13  O   UNL     1      -7.951   7.485  67.674  1.00  0.00    -0.114 OA 
BRANCH  13  14
HETATM   14  C   UNL     1      -8.403   7.569  69.040  1.00  0.00    -0.129 C  
HETATM   15  C   UNL     1      -7.949   8.889  69.682  1.00  0.00    -0.092 C  
HETATM   16  C   UNL     1      -8.175   8.933  71.186  1.00  0.00    -0.218 C  
HETATM   17  C   UNL     1      -7.534   7.721  71.845  1.00  0.00    -0.078 C  
HETATM   18  C   UNL     1      -8.226   6.448  71.364  1.00  0.00    -0.121 C  
HETATM   19  C   UNL     1      -8.066   6.268  69.847  1.00  0.00    -0.120 C  
BRANCH  19  20
HETATM   20  N   UNL     1      -8.736   5.105  69.218  1.00  0.00    -0.095 NA 
HETATM   21  C   UNL     1     -10.123   4.853  69.616  1.00  0.00    -0.230 C  
HETATM   22  C   UNL     1     -10.048   3.868  70.772  1.00  0.00     0.021 C  
HETATM   23  C   UNL     1      -8.769   3.081  70.515  1.00  0.00    -0.072 C  
HETATM   24  C   UNL     1      -8.046   3.825  69.387  1.00  0.00    -0.054 C  
HETATM   25  O   UNL     1      -9.090   1.746  70.137  1.00  0.00    -0.076 OA 
HETATM   26  H   UNL     1      -8.292   1.256  69.977  1.00  0.00     0.000 HD 
ENDBRANCH  19  20
ENDBRANCH  13  14
ENDBRANCH  12  13
ENDBRANCH  11  12
ENDBRANCH   8  11
ENDBRANCH   2   3
TORSDOF 7
ENDMDL
MODEL      224
REMARK 921   NORMALIZED FREE ENERGY PREDICTED BY IDOCK:   -3.58 KCAL/MOL
REMARK 922        TOTAL FREE ENERGY PREDICTED BY IDOCK:   -5.96 KCAL/MOL
REMARK 923 INTER-LIGAND FREE ENERGY PREDICTED BY IDOCK:   -5.21 KCAL/MOL
REMARK 924 INTRA-LIGAND FREE ENERGY PREDICTED BY IDOCK:   -0.75 KCAL/MOL
REMARK 927      BINDING AFFINITY PREDICTED BY RF-SCORE:    0.00 PKD
ROOT
HETATM    1  C   UNL     1      -7.584   9.979  62.930  1.00  0.00    -0.135 C  
HETATM    2  O   UNL     1      -7.630  10.214  64.330  1.00  0.00    -0.140 OA 
ENDROOT
BRANCH   2   3
HETATM    3  C   UNL     1      -8.437   9.392  65.071  1.00  0.00    -0.159 A  
HETATM    4  C   UNL     1      -9.523   9.759  65.879  1.00  0.00    -0.226 A  
HETATM    5  C   UNL     1     -10.209   8.765  66.589  1.00  0.00    -0.340 A  
HETATM    6  C   UNL     1      -8.031   8.050  65.035  1.00  0.00    -0.126 A  
HETATM    7  C   UNL     1      -8.694   7.073  65.780  1.00  0.00    -0.116 A  
HETATM    8  C   UNL     1      -9.765   7.441  66.590  1.00  0.00    -0.262 A  
BRANCH   4   9
HETATM    9  O   UNL     1      -9.901  11.074  65.964  1.00  0.00    -0.211 OA 
HETATM   10  C   UNL     1     -11.158  11.297  66.603  1.00  0.00    -0.235 C  
ENDBRANCH   4   9
BRANCH   8  11
HETATM   11  C   UNL     1     -10.439   6.428  67.471  1.00  0.00    -0.290 C  
BRANCH  11  12
HETATM   12  C   UNL     1      -9.454   5.568  68.242  1.00  0.00    -0.115 C  
BRANCH  12  13
HETATM   13  O   UNL     1      -8.824   6.335  69.269  1.00  0.00    -0.123 OA 
BRANCH  13  14
HETATM   14  C   UNL     1      -8.828   5.747  70.585  1.00  0.00    -0.140 C  
HETATM   15  C   UNL     1      -8.479   4.252  70.513  1.00  0.00    -0.100 C  
HETATM   16  C   UNL     1      -8.708   3.520  71.826  1.00  0.00    -0.122 C  
HETATM   17  C   UNL     1     -10.129   3.758  72.316  1.00  0.00    -0.228 C  
HETATM   18  C   UNL     1     -10.322   5.238  72.633  1.00  0.00    -0.247 C  
HETATM   19  C   UNL     1     -10.130   6.105  71.380  1.00  0.00    -0.194 C  
BRANCH  19  20
HETATM   20  N   UNL     1     -10.227   7.576  71.540  1.00  0.00    -0.188 NA 
HETATM   21  C   UNL     1     -10.877   8.061  72.759  1.00  0.00    -0.369 C  
HETATM   22  C   UNL     1     -12.341   8.254  72.398  1.00  0.00    -0.385 C  
HETATM   23  C   UNL     1     -12.324   8.568  70.907  1.00  0.00    -0.042 C  
HETATM   24  C   UNL     1     -10.894   8.277  70.441  1.00  0.00    -0.235 C  
HETATM   25  O   UNL     1     -12.675   9.931  70.695  1.00  0.00    -0.486 OA 
HETATM   26  H   UNL     1     -12.664  10.126  69.765  1.00  0.00     0.000 HD 
ENDBRANCH  19  20
ENDBRANCH  13  14
ENDBRANCH  12  13
ENDBRANCH  11  12
ENDBRANCH   8  11
ENDBRANCH   2   3
TORSDOF 7
ENDMDL
MODEL      225
REMARK 921   NORMALIZED FREE ENERGY PREDICTED BY IDOCK:   -3.57 KCAL/MOL
REMARK 922        TOTAL FREE ENERGY PREDICTED BY IDOCK:   -5.95 KCAL/MOL
REMARK 923 INTER-LIGAND FREE ENERGY PREDICTED BY IDOCK:   -4.96 KCAL/MOL
REMARK 924 INTRA-LIGAND FREE ENERGY PREDICTED BY IDOCK:   -0.99 KCAL/MOL
REMARK 927      BINDING AFFINITY PREDICTED BY RF-SCORE:    0.00 PKD
ROOT
HETATM    1  C   UNL     1      -6.794   8.296  70.945  1.00  0.00    -0.044 C  
HETATM    2  O   UNL     1      -8.131   8.141  71.395  1.00  0.00    -0.098 OA 
ENDROOT
BRANCH   2   3
HETATM    3  C   UNL     1      -9.089   8.894  70.767  1.00  0.00    -0.213 A  
HETATM    4  C   UNL     1     -10.473   8.675  70.745  1.00  0.00    -0.204 A  
HETATM    5  C   UNL     1     -11.289   9.547  70.014  1.00  0.00    -0.204 A  
HETATM    6  C   UNL     1      -8.548   9.946  70.013  1.00  0.00    -0.196 A  
HETATM    7  C   UNL     1      -9.365  10.785  69.252  1.00  0.00    -0.087 A  
HETATM    8  C   UNL     1     -10.738  10.559  69.224  1.00  0.00    -0.269 A  
BRANCH   4   9
HETATM    9  O   UNL     1     -11.012   7.619  71.436  1.00  0.00    -0.229 OA 
HETATM   10  C   UNL     1     -11.680   6.652  70.627  1.00  0.00    -0.394 C  
ENDBRANCH   4   9
BRANCH   8  11
HETATM   11  C   UNL     1     -11.630  11.388  68.344  1.00  0.00    -0.385 C  
BRANCH  11  12
HETATM   12  C   UNL     1     -10.977  11.760  67.025  1.00  0.00    -0.285 C  
BRANCH  12  13
HETATM   13  O   UNL     1     -10.888  10.614  66.176  1.00  0.00    -0.130 OA 
BRANCH  13  14
HETATM   14  C   UNL     1      -9.753  10.576  65.288  1.00  0.00    -0.270 C  
HETATM   15  C   UNL     1     -10.128  11.131  63.905  1.00  0.00    -0.404 C  
HETATM   16  C   UNL     1      -9.056  10.891  62.852  1.00  0.00    -0.327 C  
HETATM   17  C   UNL     1      -8.696   9.414  62.803  1.00  0.00    -0.231 C  
HETATM   18  C   UNL     1      -8.069   8.992  64.129  1.00  0.00    -0.157 C  
HETATM   19  C   UNL     1      -9.056   9.173  65.292  1.00  0.00    -0.195 C  
BRANCH  19  20
HETATM   20  N   UNL     1      -8.572   8.862  66.658  1.00  0.00    -0.120 NA 
HETATM   21  C   UNL     1      -7.173   8.447  66.780  1.00  0.00    -0.078 C  
HETATM   22  C   UNL     1      -7.184   6.929  66.708  1.00  0.00    -0.076 C  
HETATM   23  C   UNL     1      -8.547   6.534  67.262  1.00  0.00    -0.111 C  
HETATM   24  C   UNL     1      -9.342   7.840  67.371  1.00  0.00    -0.141 C  
HETATM   25  O   UNL     1      -8.392   5.911  68.533  1.00  0.00    -0.108 OA 
HETATM   26  H   UNL     1      -9.242   5.665  68.878  1.00  0.00     0.000 HD 
ENDBRANCH  19  20
ENDBRANCH  13  14
ENDBRANCH  12  13
ENDBRANCH  11  12
ENDBRANCH   8  11
ENDBRANCH   2   3
TORSDOF 7
ENDMDL
MODEL      226
REMARK 921   NORMALIZED FREE ENERGY PREDICTED BY IDOCK:   -3.56 KCAL/MOL
REMARK 922        TOTAL FREE ENERGY PREDICTED BY IDOCK:   -5.93 KCAL/MOL
REMARK 923 INTER-LIGAND FREE ENERGY PREDICTED BY IDOCK:   -5.01 KCAL/MOL
REMARK 924 INTRA-LIGAND FREE ENERGY PREDICTED BY IDOCK:   -0.93 KCAL/MOL
REMARK 927      BINDING AFFINITY PREDICTED BY RF-SCORE:    0.00 PKD
ROOT
HETATM    1  C   UNL     1      -7.225   4.807  72.823  1.00  0.00    -0.080 C  
HETATM    2  O   UNL     1      -7.699   5.774  73.749  1.00  0.00    -0.096 OA 
ENDROOT
BRANCH   2   3
HETATM    3  C   UNL     1      -8.557   6.727  73.266  1.00  0.00    -0.122 A  
HETATM    4  C   UNL     1      -9.942   6.813  73.466  1.00  0.00    -0.243 A  
HETATM    5  C   UNL     1     -10.655   7.853  72.856  1.00  0.00    -0.434 A  
HETATM    6  C   UNL     1      -7.928   7.650  72.418  1.00  0.00    -0.127 A  
HETATM    7  C   UNL     1      -8.654   8.658  71.780  1.00  0.00    -0.240 A  
HETATM    8  C   UNL     1     -10.030   8.734  71.971  1.00  0.00    -0.391 A  
BRANCH   4   9
HETATM    9  O   UNL     1     -10.581   5.887  74.251  1.00  0.00    -0.246 OA 
HETATM   10  C   UNL     1     -11.167   4.798  73.539  1.00  0.00    -0.311 C  
ENDBRANCH   4   9
BRANCH   8  11
HETATM   11  C   UNL     1     -10.849   9.751  71.228  1.00  0.00    -0.276 C  
BRANCH  11  12
HETATM   12  C   UNL     1     -11.703   9.135  70.134  1.00  0.00     0.065 C  
BRANCH  12  13
HETATM   13  O   UNL     1     -11.861  10.055  69.053  1.00  0.00     0.056 OA 
BRANCH  13  14
HETATM   14  C   UNL     1     -10.899   9.944  67.986  1.00  0.00    -0.243 C  
HETATM   15  C   UNL     1     -10.133   8.615  68.082  1.00  0.00    -0.236 C  
HETATM   16  C   UNL     1      -8.938   8.543  67.143  1.00  0.00    -0.145 C  
HETATM   17  C   UNL     1      -8.033   9.747  67.357  1.00  0.00    -0.102 C  
HETATM   18  C   UNL     1      -8.777  11.024  66.976  1.00  0.00    -0.141 C  
HETATM   19  C   UNL     1     -10.014  11.232  67.862  1.00  0.00    -0.175 C  
BRANCH  19  20
HETATM   20  N   UNL     1     -10.878  12.402  67.573  1.00  0.00    -0.230 NA 
HETATM   21  C   UNL     1     -10.428  13.302  66.509  1.00  0.00    -0.281 C  
HETATM   22  C   UNL     1      -9.616  14.386  67.200  1.00  0.00    -0.251 C  
HETATM   23  C   UNL     1     -10.218  14.475  68.597  1.00  0.00    -0.243 C  
HETATM   24  C   UNL     1     -11.153  13.268  68.722  1.00  0.00    -0.266 C  
HETATM   25  O   UNL     1     -10.927  15.701  68.742  1.00  0.00    -0.250 OA 
HETATM   26  H   UNL     1     -11.301  15.757  69.613  1.00  0.00     0.000 HD 
ENDBRANCH  19  20
ENDBRANCH  13  14
ENDBRANCH  12  13
ENDBRANCH  11  12
ENDBRANCH   8  11
ENDBRANCH   2   3
TORSDOF 7
ENDMDL
MODEL      227
REMARK 921   NORMALIZED FREE ENERGY PREDICTED BY IDOCK:   -3.55 KCAL/MOL
REMARK 922        TOTAL FREE ENERGY PREDICTED BY IDOCK:   -5.93 KCAL/MOL
REMARK 923 INTER-LIGAND FREE ENERGY PREDICTED BY IDOCK:   -5.47 KCAL/MOL
REMARK 924 INTRA-LIGAND FREE ENERGY PREDICTED BY IDOCK:   -0.46 KCAL/MOL
REMARK 927      BINDING AFFINITY PREDICTED BY RF-SCORE:    0.00 PKD
ROOT
HETATM    1  C   UNL     1     -12.787   6.989  71.955  1.00  0.00    -0.259 C  
HETATM    2  O   UNL     1     -11.496   7.378  72.397  1.00  0.00    -0.279 OA 
ENDROOT
BRANCH   2   3
HETATM    3  C   UNL     1     -10.595   7.747  71.432  1.00  0.00    -0.213 A  
HETATM    4  C   UNL     1      -9.807   6.909  70.630  1.00  0.00    -0.182 A  
HETATM    5  C   UNL     1      -8.914   7.483  69.716  1.00  0.00    -0.141 A  
HETATM    6  C   UNL     1     -10.432   9.137  71.340  1.00  0.00    -0.414 A  
HETATM    7  C   UNL     1      -9.509   9.700  70.457  1.00  0.00    -0.243 A  
HETATM    8  C   UNL     1      -8.720   8.866  69.669  1.00  0.00    -0.140 A  
BRANCH   4   9
HETATM    9  O   UNL     1      -9.918   5.546  70.745  1.00  0.00    -0.181 OA 
HETATM   10  C   UNL     1      -8.682   4.836  70.672  1.00  0.00    -0.108 C  
ENDBRANCH   4   9
BRANCH   8  11
HETATM   11  C   UNL     1      -7.656   9.440  68.777  1.00  0.00    -0.079 C  
BRANCH  11  12
HETATM   12  C   UNL     1      -7.475  10.935  68.962  1.00  0.00    -0.124 C  
BRANCH  12  13
HETATM   13  O   UNL     1      -7.566  11.605  67.704  1.00  0.00    -0.114 OA 
BRANCH  13  14
HETATM   14  C   UNL     1      -8.834  11.498  67.025  1.00  0.00    -0.173 C  
HETATM   15  C   UNL     1      -8.820  10.328  66.029  1.00  0.00    -0.166 C  
HETATM   16  C   UNL     1     -10.028  10.312  65.106  1.00  0.00    -0.395 C  
HETATM   17  C   UNL     1     -10.172  11.658  64.412  1.00  0.00    -0.346 C  
HETATM   18  C   UNL     1     -10.461  12.743  65.447  1.00  0.00    -0.305 C  
HETATM   19  C   UNL     1      -9.305  12.877  66.448  1.00  0.00    -0.187 C  
BRANCH  19  20
HETATM   20  N   UNL     1      -9.463  13.851  67.555  1.00  0.00    -0.209 NA 
HETATM   21  C   UNL     1     -10.808  14.389  67.767  1.00  0.00    -0.258 C  
HETATM   22  C   UNL     1     -10.872  15.675  66.959  1.00  0.00    -0.294 C  
HETATM   23  C   UNL     1      -9.432  16.172  66.927  1.00  0.00    -0.230 C  
HETATM   24  C   UNL     1      -8.586  15.021  67.482  1.00  0.00    -0.180 C  
HETATM   25  O   UNL     1      -9.306  17.344  67.726  1.00  0.00    -0.249 OA 
HETATM   26  H   UNL     1      -8.408  17.653  67.706  1.00  0.00     0.000 HD 
ENDBRANCH  19  20
ENDBRANCH  13  14
ENDBRANCH  12  13
ENDBRANCH  11  12
ENDBRANCH   8  11
ENDBRANCH   2   3
TORSDOF 7
ENDMDL
MODEL      228
REMARK 921   NORMALIZED FREE ENERGY PREDICTED BY IDOCK:   -3.54 KCAL/MOL
REMARK 922        TOTAL FREE ENERGY PREDICTED BY IDOCK:   -5.91 KCAL/MOL
REMARK 923 INTER-LIGAND FREE ENERGY PREDICTED BY IDOCK:   -5.43 KCAL/MOL
REMARK 924 INTRA-LIGAND FREE ENERGY PREDICTED BY IDOCK:   -0.48 KCAL/MOL
REMARK 927      BINDING AFFINITY PREDICTED BY RF-SCORE:    0.00 PKD
ROOT
HETATM    1  C   UNL     1      -9.518   3.390  67.505  1.00  0.00    -0.180 C  
HETATM    2  O   UNL     1      -9.425   4.122  66.292  1.00  0.00    -0.159 OA 
ENDROOT
BRANCH   2   3
HETATM    3  C   UNL     1      -9.312   5.484  66.395  1.00  0.00    -0.152 A  
HETATM    4  C   UNL     1      -8.199   6.277  66.081  1.00  0.00    -0.121 A  
HETATM    5  C   UNL     1      -8.270   7.661  66.288  1.00  0.00    -0.120 A  
HETATM    6  C   UNL     1     -10.446   6.085  66.960  1.00  0.00    -0.334 A  
HETATM    7  C   UNL     1     -10.491   7.459  67.203  1.00  0.00    -0.403 A  
HETATM    8  C   UNL     1      -9.382   8.243  66.900  1.00  0.00    -0.222 A  
BRANCH   4   9
HETATM    9  O   UNL     1      -7.064   5.697  65.576  1.00  0.00    -0.063 OA 
HETATM   10  C   UNL     1      -6.818   5.962  64.195  1.00  0.00    -0.049 C  
ENDBRANCH   4   9
BRANCH   8  11
HETATM   11  C   UNL     1      -9.368   9.708  67.234  1.00  0.00    -0.163 C  
BRANCH  11  12
HETATM   12  C   UNL     1      -9.816   9.993  68.657  1.00  0.00    -0.160 C  
BRANCH  12  13
HETATM   13  O   UNL     1      -9.500  11.339  69.015  1.00  0.00    -0.135 OA 
BRANCH  13  14
HETATM   14  C   UNL     1      -8.672  12.060  68.081  1.00  0.00    -0.177 C  
HETATM   15  C   UNL     1      -7.301  12.374  68.700  1.00  0.00    -0.102 C  
HETATM   16  C   UNL     1      -6.476  13.344  67.868  1.00  0.00    -0.151 C  
HETATM   17  C   UNL     1      -7.281  14.602  67.581  1.00  0.00    -0.206 C  
HETATM   18  C   UNL     1      -8.493  14.253  66.721  1.00  0.00    -0.051 C  
HETATM   19  C   UNL     1      -9.430  13.279  67.451  1.00  0.00    -0.218 C  
BRANCH  19  20
HETATM   20  N   UNL     1     -10.626  12.797  66.719  1.00  0.00    -0.250 NA 
HETATM   21  C   UNL     1     -10.468  12.572  65.281  1.00  0.00    -0.287 C  
HETATM   22  C   UNL     1     -10.888  13.870  64.611  1.00  0.00    -0.420 C  
HETATM   23  C   UNL     1     -11.905  14.478  65.570  1.00  0.00    -0.330 C  
HETATM   24  C   UNL     1     -11.815  13.641  66.850  1.00  0.00    -0.411 C  
HETATM   25  O   UNL     1     -13.207  14.417  64.997  1.00  0.00    -0.562 OA 
HETATM   26  H   UNL     1     -13.841  14.796  65.596  1.00  0.00     0.000 HD 
ENDBRANCH  19  20
ENDBRANCH  13  14
ENDBRANCH  12  13
ENDBRANCH  11  12
ENDBRANCH   8  11
ENDBRANCH   2   3
TORSDOF 7
ENDMDL
MODEL      229
REMARK 921   NORMALIZED FREE ENERGY PREDICTED BY IDOCK:   -3.54 KCAL/MOL
REMARK 922        TOTAL FREE ENERGY PREDICTED BY IDOCK:   -5.91 KCAL/MOL
REMARK 923 INTER-LIGAND FREE ENERGY PREDICTED BY IDOCK:   -4.58 KCAL/MOL
REMARK 924 INTRA-LIGAND FREE ENERGY PREDICTED BY IDOCK:   -1.33 KCAL/MOL
REMARK 927      BINDING AFFINITY PREDICTED BY RF-SCORE:    0.00 PKD
ROOT
HETATM    1  C   UNL     1      -9.908   1.564  71.886  1.00  0.00    -0.131 C  
HETATM    2  O   UNL     1      -8.776   1.937  72.657  1.00  0.00    -0.061 OA 
ENDROOT
BRANCH   2   3
HETATM    3  C   UNL     1      -8.368   3.242  72.568  1.00  0.00    -0.080 A  
HETATM    4  C   UNL     1      -7.184   3.732  71.999  1.00  0.00    -0.054 A  
HETATM    5  C   UNL     1      -6.930   5.109  72.035  1.00  0.00    -0.073 A  
HETATM    6  C   UNL     1      -9.242   4.133  73.207  1.00  0.00    -0.120 A  
HETATM    7  C   UNL     1      -8.960   5.499  73.276  1.00  0.00    -0.123 A  
HETATM    8  C   UNL     1      -7.779   5.982  72.720  1.00  0.00    -0.102 A  
BRANCH   4   9
HETATM    9  O   UNL     1      -6.293   2.867  71.416  1.00  0.00    -0.017 OA 
HETATM   10  C   UNL     1      -6.049   3.102  70.029  1.00  0.00    -0.023 C  
ENDBRANCH   4   9
BRANCH   8  11
HETATM   11  C   UNL     1      -7.407   7.431  72.858  1.00  0.00    -0.082 C  
BRANCH  11  12
HETATM   12  C   UNL     1      -8.597   8.319  73.173  1.00  0.00    -0.209 C  
BRANCH  12  13
HETATM   13  O   UNL     1      -8.981   9.060  72.014  1.00  0.00    -0.374 OA 
BRANCH  13  14
HETATM   14  C   UNL     1     -10.216   8.656  71.390  1.00  0.00    -0.254 C  
HETATM   15  C   UNL     1     -11.244   8.226  72.448  1.00  0.00    -0.451 C  
HETATM   16  C   UNL     1     -12.472   7.555  71.851  1.00  0.00    -0.335 C  
HETATM   17  C   UNL     1     -12.053   6.403  70.952  1.00  0.00    -0.176 C  
HETATM   18  C   UNL     1     -11.262   6.940  69.762  1.00  0.00    -0.315 C  
HETATM   19  C   UNL     1      -9.974   7.640  70.222  1.00  0.00    -0.189 C  
BRANCH  19  20
HETATM   20  N   UNL     1      -9.125   8.269  69.183  1.00  0.00    -0.147 NA 
HETATM   21  C   UNL     1      -9.501   9.619  68.758  1.00  0.00    -0.148 C  
HETATM   22  C   UNL     1     -10.408   9.436  67.552  1.00  0.00    -0.314 C  
HETATM   23  C   UNL     1      -9.943   8.127  66.926  1.00  0.00    -0.273 C  
HETATM   24  C   UNL     1      -8.986   7.499  67.945  1.00  0.00    -0.131 C  
HETATM   25  O   UNL     1      -9.290   8.386  65.688  1.00  0.00    -0.396 OA 
HETATM   26  H   UNL     1      -9.001   7.570  65.298  1.00  0.00     0.000 HD 
ENDBRANCH  19  20
ENDBRANCH  13  14
ENDBRANCH  12  13
ENDBRANCH  11  12
ENDBRANCH   8  11
ENDBRANCH   2   3
TORSDOF 7
ENDMDL
MODEL      230
REMARK 921   NORMALIZED FREE ENERGY PREDICTED BY IDOCK:   -3.54 KCAL/MOL
REMARK 922        TOTAL FREE ENERGY PREDICTED BY IDOCK:   -5.91 KCAL/MOL
REMARK 923 INTER-LIGAND FREE ENERGY PREDICTED BY IDOCK:   -5.50 KCAL/MOL
REMARK 924 INTRA-LIGAND FREE ENERGY PREDICTED BY IDOCK:   -0.40 KCAL/MOL
REMARK 927      BINDING AFFINITY PREDICTED BY RF-SCORE:    0.00 PKD
ROOT
HETATM    1  C   UNL     1      -7.290   8.910  65.191  1.00  0.00    -0.092 C  
HETATM    2  O   UNL     1      -8.122  10.053  65.326  1.00  0.00    -0.133 OA 
ENDROOT
BRANCH   2   3
HETATM    3  C   UNL     1      -7.735  10.997  66.240  1.00  0.00    -0.132 A  
HETATM    4  C   UNL     1      -8.558  11.802  67.041  1.00  0.00    -0.173 A  
HETATM    5  C   UNL     1      -7.966  12.740  67.898  1.00  0.00    -0.158 A  
HETATM    6  C   UNL     1      -6.346  11.188  66.274  1.00  0.00    -0.090 A  
HETATM    7  C   UNL     1      -5.768  12.154  67.099  1.00  0.00    -0.131 A  
HETATM    8  C   UNL     1      -6.587  12.959  67.885  1.00  0.00    -0.125 A  
BRANCH   4   9
HETATM    9  O   UNL     1      -9.921  11.663  66.982  1.00  0.00    -0.200 OA 
HETATM   10  C   UNL     1     -10.468  10.713  67.896  1.00  0.00    -0.208 C  
ENDBRANCH   4   9
BRANCH   8  11
HETATM   11  C   UNL     1      -6.001  14.067  68.713  1.00  0.00    -0.085 C  
BRANCH  11  12
HETATM   12  C   UNL     1      -6.062  15.417  68.022  1.00  0.00    -0.142 C  
BRANCH  12  13
HETATM   13  O   UNL     1      -6.994  16.272  68.686  1.00  0.00    -0.134 OA 
BRANCH  13  14
HETATM   14  C   UNL     1      -8.046  16.815  67.864  1.00  0.00    -0.185 C  
HETATM   15  C   UNL     1      -7.527  17.997  67.030  1.00  0.00    -0.228 C  
HETATM   16  C   UNL     1      -8.635  18.771  66.333  1.00  0.00    -0.294 C  
HETATM   17  C   UNL     1      -9.690  19.197  67.343  1.00  0.00    -0.389 C  
HETATM   18  C   UNL     1     -10.363  17.962  67.936  1.00  0.00    -0.396 C  
HETATM   19  C   UNL     1      -9.351  17.085  68.688  1.00  0.00    -0.270 C  
BRANCH  19  20
HETATM   20  N   UNL     1      -9.842  15.814  69.271  1.00  0.00    -0.247 NA 
HETATM   21  C   UNL     1     -10.262  14.778  68.325  1.00  0.00    -0.227 C  
HETATM   22  C   UNL     1     -11.756  14.977  68.130  1.00  0.00    -0.335 C  
HETATM   23  C   UNL     1     -12.230  15.588  69.443  1.00  0.00    -0.205 C  
HETATM   24  C   UNL     1     -10.956  15.952  70.212  1.00  0.00    -0.362 C  
HETATM   25  O   UNL     1     -13.020  14.645  70.159  1.00  0.00    -0.563 OA 
HETATM   26  H   UNL     1     -13.316  15.027  70.977  1.00  0.00     0.000 HD 
ENDBRANCH  19  20
ENDBRANCH  13  14
ENDBRANCH  12  13
ENDBRANCH  11  12
ENDBRANCH   8  11
ENDBRANCH   2   3
TORSDOF 7
ENDMDL
MODEL      231
REMARK 921   NORMALIZED FREE ENERGY PREDICTED BY IDOCK:   -3.53 KCAL/MOL
REMARK 922        TOTAL FREE ENERGY PREDICTED BY IDOCK:   -5.90 KCAL/MOL
REMARK 923 INTER-LIGAND FREE ENERGY PREDICTED BY IDOCK:   -4.95 KCAL/MOL
REMARK 924 INTRA-LIGAND FREE ENERGY PREDICTED BY IDOCK:   -0.95 KCAL/MOL
REMARK 927      BINDING AFFINITY PREDICTED BY RF-SCORE:    0.00 PKD
ROOT
HETATM    1  C   UNL     1      -7.689   9.289  63.597  1.00  0.00    -0.116 C  
HETATM    2  O   UNL     1      -7.825  10.529  64.275  1.00  0.00    -0.099 OA 
ENDROOT
BRANCH   2   3
HETATM    3  C   UNL     1      -8.110  10.477  65.614  1.00  0.00    -0.161 A  
HETATM    4  C   UNL     1      -9.074  11.216  66.314  1.00  0.00    -0.194 A  
HETATM    5  C   UNL     1      -9.192  11.043  67.699  1.00  0.00    -0.151 A  
HETATM    6  C   UNL     1      -7.251   9.625  66.323  1.00  0.00    -0.094 A  
HETATM    7  C   UNL     1      -7.347   9.490  67.709  1.00  0.00    -0.083 A  
HETATM    8  C   UNL     1      -8.298  10.233  68.403  1.00  0.00    -0.119 A  
BRANCH   4   9
HETATM    9  O   UNL     1      -9.888  12.093  65.642  1.00  0.00    -0.244 OA 
HETATM   10  C   UNL     1      -9.926  13.412  66.186  1.00  0.00    -0.294 C  
ENDBRANCH   4   9
BRANCH   8  11
HETATM   11  C   UNL     1      -8.364  10.177  69.903  1.00  0.00    -0.110 C  
BRANCH  11  12
HETATM   12  C   UNL     1      -7.469   9.102  70.494  1.00  0.00    -0.116 C  
BRANCH  12  13
HETATM   13  O   UNL     1      -8.239   8.196  71.284  1.00  0.00    -0.100 OA 
BRANCH  13  14
HETATM   14  C   UNL     1      -9.655   8.171  71.013  1.00  0.00    -0.159 C  
HETATM   15  C   UNL     1     -10.457   8.490  72.284  1.00  0.00    -0.402 C  
HETATM   16  C   UNL     1     -11.949   8.237  72.131  1.00  0.00    -0.429 C  
HETATM   17  C   UNL     1     -12.189   6.818  71.638  1.00  0.00    -0.410 C  
HETATM   18  C   UNL     1     -11.600   6.652  70.239  1.00  0.00    -0.454 C  
HETATM   19  C   UNL     1     -10.080   6.870  70.248  1.00  0.00    -0.183 C  
BRANCH  19  20
HETATM   20  N   UNL     1      -9.368   6.802  68.950  1.00  0.00    -0.131 NA 
HETATM   21  C   UNL     1     -10.146   7.143  67.757  1.00  0.00    -0.172 C  
HETATM   22  C   UNL     1     -10.704   5.827  67.237  1.00  0.00    -0.345 C  
HETATM   23  C   UNL     1      -9.685   4.784  67.680  1.00  0.00    -0.160 C  
HETATM   24  C   UNL     1      -8.746   5.510  68.650  1.00  0.00    -0.108 C  
HETATM   25  O   UNL     1      -8.981   4.284  66.549  1.00  0.00    -0.113 OA 
HETATM   26  H   UNL     1      -8.346   3.634  66.826  1.00  0.00     0.000 HD 
ENDBRANCH  19  20
ENDBRANCH  13  14
ENDBRANCH  12  13
ENDBRANCH  11  12
ENDBRANCH   8  11
ENDBRANCH   2   3
TORSDOF 7
ENDMDL
MODEL      232
REMARK 921   NORMALIZED FREE ENERGY PREDICTED BY IDOCK:   -3.53 KCAL/MOL
REMARK 922        TOTAL FREE ENERGY PREDICTED BY IDOCK:   -5.90 KCAL/MOL
REMARK 923 INTER-LIGAND FREE ENERGY PREDICTED BY IDOCK:   -5.37 KCAL/MOL
REMARK 924 INTRA-LIGAND FREE ENERGY PREDICTED BY IDOCK:   -0.53 KCAL/MOL
REMARK 927      BINDING AFFINITY PREDICTED BY RF-SCORE:    0.00 PKD
ROOT
HETATM    1  C   UNL     1      -9.347   6.382  69.650  1.00  0.00    -0.145 C  
HETATM    2  O   UNL     1      -8.295   6.835  68.810  1.00  0.00    -0.119 OA 
ENDROOT
BRANCH   2   3
HETATM    3  C   UNL     1      -8.649   7.606  67.734  1.00  0.00    -0.121 A  
HETATM    4  C   UNL     1      -7.857   7.950  66.629  1.00  0.00    -0.102 A  
HETATM    5  C   UNL     1      -8.394   8.782  65.639  1.00  0.00    -0.144 A  
HETATM    6  C   UNL     1      -9.939   8.145  67.848  1.00  0.00    -0.225 A  
HETATM    7  C   UNL     1     -10.451   9.008  66.877  1.00  0.00    -0.293 A  
HETATM    8  C   UNL     1      -9.658   9.356  65.787  1.00  0.00    -0.340 A  
BRANCH   4   9
HETATM    9  O   UNL     1      -6.575   7.472  66.529  1.00  0.00    -0.051 OA 
HETATM   10  C   UNL     1      -6.292   6.763  65.323  1.00  0.00    -0.042 C  
ENDBRANCH   4   9
BRANCH   8  11
HETATM   11  C   UNL     1     -10.149  10.353  64.775  1.00  0.00    -0.387 C  
BRANCH  11  12
HETATM   12  C   UNL     1      -9.303  11.613  64.730  1.00  0.00     0.018 C  
BRANCH  12  13
HETATM   13  O   UNL     1      -9.408  12.324  65.964  1.00  0.00    -0.221 OA 
BRANCH  13  14
HETATM   14  C   UNL     1     -10.335  13.427  65.978  1.00  0.00    -0.297 C  
HETATM   15  C   UNL     1     -11.147  13.470  64.674  1.00  0.00    -0.383 C  
HETATM   16  C   UNL     1     -11.960  14.746  64.516  1.00  0.00    -0.451 C  
HETATM   17  C   UNL     1     -11.060  15.962  64.675  1.00  0.00    -0.368 C  
HETATM   18  C   UNL     1     -10.500  16.005  66.094  1.00  0.00    -0.334 C  
HETATM   19  C   UNL     1      -9.638  14.769  66.390  1.00  0.00    -0.301 C  
BRANCH  19  20
HETATM   20  N   UNL     1      -9.071  14.637  67.753  1.00  0.00    -0.187 NA 
HETATM   21  C   UNL     1      -9.462  15.658  68.728  1.00  0.00    -0.214 C  
HETATM   22  C   UNL     1      -8.387  16.730  68.655  1.00  0.00    -0.252 C  
HETATM   23  C   UNL     1      -7.133  15.980  68.223  1.00  0.00    -0.120 C  
HETATM   24  C   UNL     1      -7.609  14.582  67.815  1.00  0.00    -0.159 C  
HETATM   25  O   UNL     1      -6.208  15.921  69.303  1.00  0.00    -0.129 OA 
HETATM   26  H   UNL     1      -5.426  15.453  69.033  1.00  0.00     0.000 HD 
ENDBRANCH  19  20
ENDBRANCH  13  14
ENDBRANCH  12  13
ENDBRANCH  11  12
ENDBRANCH   8  11
ENDBRANCH   2   3
TORSDOF 7
ENDMDL
MODEL      233
REMARK 921   NORMALIZED FREE ENERGY PREDICTED BY IDOCK:   -3.52 KCAL/MOL
REMARK 922        TOTAL FREE ENERGY PREDICTED BY IDOCK:   -5.89 KCAL/MOL
REMARK 923 INTER-LIGAND FREE ENERGY PREDICTED BY IDOCK:   -5.98 KCAL/MOL
REMARK 924 INTRA-LIGAND FREE ENERGY PREDICTED BY IDOCK:    0.09 KCAL/MOL
REMARK 927      BINDING AFFINITY PREDICTED BY RF-SCORE:    0.00 PKD
ROOT
HETATM    1  C   UNL     1     -11.953  15.625  64.147  1.00  0.00    -0.039 C  
HETATM    2  O   UNL     1     -12.677  14.424  64.371  1.00  0.00    -0.665 OA 
ENDROOT
BRANCH   2   3
HETATM    3  C   UNL     1     -12.177  13.566  65.315  1.00  0.00    -0.441 A  
HETATM    4  C   UNL     1     -11.643  12.286  65.112  1.00  0.00    -0.351 A  
HETATM    5  C   UNL     1     -11.211  11.544  66.219  1.00  0.00    -0.286 A  
HETATM    6  C   UNL     1     -12.316  14.051  66.624  1.00  0.00    -0.408 A  
HETATM    7  C   UNL     1     -11.923  13.288  67.724  1.00  0.00    -0.356 A  
HETATM    8  C   UNL     1     -11.403  12.013  67.521  1.00  0.00    -0.387 A  
BRANCH   4   9
HETATM    9  O   UNL     1     -11.548  11.776  63.842  1.00  0.00    -0.390 OA 
HETATM   10  C   UNL     1     -10.226  11.750  63.304  1.00  0.00    -0.416 C  
ENDBRANCH   4   9
BRANCH   8  11
HETATM   11  C   UNL     1     -11.055  11.135  68.689  1.00  0.00    -0.293 C  
BRANCH  11  12
HETATM   12  C   UNL     1     -10.804   9.692  68.289  1.00  0.00    -0.182 C  
BRANCH  12  13
HETATM   13  O   UNL     1      -9.427   9.359  68.474  1.00  0.00    -0.144 OA 
BRANCH  13  14
HETATM   14  C   UNL     1      -8.849   8.495  67.476  1.00  0.00    -0.135 C  
HETATM   15  C   UNL     1      -9.845   7.400  67.063  1.00  0.00    -0.273 C  
HETATM   16  C   UNL     1      -9.217   6.312  66.205  1.00  0.00    -0.143 C  
HETATM   17  C   UNL     1      -7.989   5.744  66.898  1.00  0.00    -0.102 C  
HETATM   18  C   UNL     1      -6.923   6.829  67.028  1.00  0.00    -0.070 C  
HETATM   19  C   UNL     1      -7.422   7.997  67.891  1.00  0.00    -0.094 C  
BRANCH  19  20
HETATM   20  N   UNL     1      -6.520   9.161  68.061  1.00  0.00    -0.059 NA 
HETATM   21  C   UNL     1      -5.352   8.964  68.923  1.00  0.00    -0.037 C  
HETATM   22  C   UNL     1      -5.783   9.411  70.311  1.00  0.00    -0.036 C  
HETATM   23  C   UNL     1      -6.850  10.467  70.053  1.00  0.00    -0.151 C  
HETATM   24  C   UNL     1      -7.164  10.379  68.555  1.00  0.00    -0.084 C  
HETATM   25  O   UNL     1      -6.355  11.754  70.407  1.00  0.00    -0.437 OA 
HETATM   26  H   UNL     1      -7.021  12.412  70.246  1.00  0.00     0.000 HD 
ENDBRANCH  19  20
ENDBRANCH  13  14
ENDBRANCH  12  13
ENDBRANCH  11  12
ENDBRANCH   8  11
ENDBRANCH   2   3
TORSDOF 7
ENDMDL
MODEL      234
REMARK 921   NORMALIZED FREE ENERGY PREDICTED BY IDOCK:   -3.51 KCAL/MOL
REMARK 922        TOTAL FREE ENERGY PREDICTED BY IDOCK:   -5.87 KCAL/MOL
REMARK 923 INTER-LIGAND FREE ENERGY PREDICTED BY IDOCK:   -4.53 KCAL/MOL
REMARK 924 INTRA-LIGAND FREE ENERGY PREDICTED BY IDOCK:   -1.34 KCAL/MOL
REMARK 927      BINDING AFFINITY PREDICTED BY RF-SCORE:    0.00 PKD
ROOT
HETATM    1  C   UNL     1      -9.415  11.102  62.680  1.00  0.00    -0.276 C  
HETATM    2  O   UNL     1      -8.326  10.227  62.936  1.00  0.00    -0.151 OA 
ENDROOT
BRANCH   2   3
HETATM    3  C   UNL     1      -8.369   9.507  64.101  1.00  0.00    -0.172 A  
HETATM    4  C   UNL     1      -7.434   8.570  64.564  1.00  0.00    -0.105 A  
HETATM    5  C   UNL     1      -7.675   7.909  65.775  1.00  0.00    -0.090 A  
HETATM    6  C   UNL     1      -9.546   9.720  64.832  1.00  0.00    -0.316 A  
HETATM    7  C   UNL     1      -9.798   9.025  66.016  1.00  0.00    -0.312 A  
HETATM    8  C   UNL     1      -8.874   8.087  66.468  1.00  0.00    -0.175 A  
BRANCH   4   9
HETATM    9  O   UNL     1      -6.301   8.312  63.834  1.00  0.00    -0.070 OA 
HETATM   10  C   UNL     1      -6.415   7.228  62.913  1.00  0.00    -0.053 C  
ENDBRANCH   4   9
BRANCH   8  11
HETATM   11  C   UNL     1      -9.160   7.260  67.689  1.00  0.00    -0.124 C  
BRANCH  11  12
HETATM   12  C   UNL     1      -9.945   8.019  68.745  1.00  0.00    -0.189 C  
BRANCH  12  13
HETATM   13  O   UNL     1      -9.112   8.990  69.379  1.00  0.00    -0.141 OA 
BRANCH  13  14
HETATM   14  C   UNL     1      -9.730  10.261  69.661  1.00  0.00    -0.185 C  
HETATM   15  C   UNL     1     -11.246  10.097  69.853  1.00  0.00    -0.343 C  
HETATM   16  C   UNL     1     -11.990  11.422  69.906  1.00  0.00    -0.434 C  
HETATM   17  C   UNL     1     -11.651  12.260  68.682  1.00  0.00    -0.372 C  
HETATM   18  C   UNL     1     -10.168  12.622  68.700  1.00  0.00    -0.165 C  
HETATM   19  C   UNL     1      -9.289  11.364  68.639  1.00  0.00    -0.150 C  
BRANCH  19  20
HETATM   20  N   UNL     1      -7.820  11.548  68.710  1.00  0.00    -0.137 NA 
HETATM   21  C   UNL     1      -7.331  12.929  68.704  1.00  0.00    -0.099 C  
HETATM   22  C   UNL     1      -7.052  13.263  67.248  1.00  0.00    -0.016 C  
HETATM   23  C   UNL     1      -6.703  11.923  66.613  1.00  0.00     0.088 C  
HETATM   24  C   UNL     1      -7.057  10.864  67.664  1.00  0.00    -0.087 C  
HETATM   25  O   UNL     1      -5.318  11.888  66.285  1.00  0.00    -0.456 OA 
HETATM   26  H   UNL     1      -5.101  11.052  65.889  1.00  0.00     0.000 HD 
ENDBRANCH  19  20
ENDBRANCH  13  14
ENDBRANCH  12  13
ENDBRANCH  11  12
ENDBRANCH   8  11
ENDBRANCH   2   3
TORSDOF 7
ENDMDL
MODEL      235
REMARK 921   NORMALIZED FREE ENERGY PREDICTED BY IDOCK:   -3.51 KCAL/MOL
REMARK 922        TOTAL FREE ENERGY PREDICTED BY IDOCK:   -5.87 KCAL/MOL
REMARK 923 INTER-LIGAND FREE ENERGY PREDICTED BY IDOCK:   -5.59 KCAL/MOL
REMARK 924 INTRA-LIGAND FREE ENERGY PREDICTED BY IDOCK:   -0.28 KCAL/MOL
REMARK 927      BINDING AFFINITY PREDICTED BY RF-SCORE:    0.00 PKD
ROOT
HETATM    1  C   UNL     1     -10.377  17.808  66.265  1.00  0.00    -0.358 C  
HETATM    2  O   UNL     1     -10.389  16.923  65.155  1.00  0.00    -0.631 OA 
ENDROOT
BRANCH   2   3
HETATM    3  C   UNL     1     -10.480  15.584  65.430  1.00  0.00    -0.405 A  
HETATM    4  C   UNL     1      -9.590  14.801  66.178  1.00  0.00    -0.309 A  
HETATM    5  C   UNL     1      -9.843  13.430  66.320  1.00  0.00    -0.295 A  
HETATM    6  C   UNL     1     -11.570  14.969  64.797  1.00  0.00    -0.395 A  
HETATM    7  C   UNL     1     -11.790  13.595  64.908  1.00  0.00    -0.398 A  
HETATM    8  C   UNL     1     -10.900  12.818  65.642  1.00  0.00    -0.300 A  
BRANCH   4   9
HETATM    9  O   UNL     1      -8.491  15.378  66.761  1.00  0.00    -0.238 OA 
HETATM   10  C   UNL     1      -7.847  14.577  67.751  1.00  0.00    -0.161 C  
ENDBRANCH   4   9
BRANCH   8  11
HETATM   11  C   UNL     1     -11.060  11.325  65.704  1.00  0.00    -0.141 C  
BRANCH  11  12
HETATM   12  C   UNL     1     -10.233  10.687  66.805  1.00  0.00    -0.233 C  
BRANCH  12  13
HETATM   13  O   UNL     1     -10.658   9.342  67.028  1.00  0.00    -0.251 OA 
BRANCH  13  14
HETATM   14  C   UNL     1      -9.996   8.643  68.101  1.00  0.00    -0.178 C  
HETATM   15  C   UNL     1     -10.377   9.249  69.461  1.00  0.00    -0.223 C  
HETATM   16  C   UNL     1      -9.528   8.726  70.609  1.00  0.00    -0.237 C  
HETATM   17  C   UNL     1      -8.052   8.907  70.291  1.00  0.00    -0.125 C  
HETATM   18  C   UNL     1      -7.678   8.052  69.083  1.00  0.00    -0.099 C  
HETATM   19  C   UNL     1      -8.460   8.484  67.834  1.00  0.00    -0.130 C  
BRANCH  19  20
HETATM   20  N   UNL     1      -8.250   7.707  66.589  1.00  0.00    -0.121 NA 
HETATM   21  C   UNL     1      -8.836   6.365  66.546  1.00  0.00    -0.136 C  
HETATM   22  C   UNL     1      -7.744   5.422  67.024  1.00  0.00    -0.100 C  
HETATM   23  C   UNL     1      -6.446   6.117  66.631  1.00  0.00    -0.046 C  
HETATM   24  C   UNL     1      -6.851   7.530  66.196  1.00  0.00    -0.061 C  
HETATM   25  O   UNL     1      -5.817   5.406  65.571  1.00  0.00    -0.020 OA 
HETATM   26  H   UNL     1      -5.008   5.840  65.326  1.00  0.00     0.000 HD 
ENDBRANCH  19  20
ENDBRANCH  13  14
ENDBRANCH  12  13
ENDBRANCH  11  12
ENDBRANCH   8  11
ENDBRANCH   2   3
TORSDOF 7
ENDMDL
MODEL      236
REMARK 921   NORMALIZED FREE ENERGY PREDICTED BY IDOCK:   -3.51 KCAL/MOL
REMARK 922        TOTAL FREE ENERGY PREDICTED BY IDOCK:   -5.86 KCAL/MOL
REMARK 923 INTER-LIGAND FREE ENERGY PREDICTED BY IDOCK:   -5.40 KCAL/MOL
REMARK 924 INTRA-LIGAND FREE ENERGY PREDICTED BY IDOCK:   -0.46 KCAL/MOL
REMARK 927      BINDING AFFINITY PREDICTED BY RF-SCORE:    0.00 PKD
ROOT
HETATM    1  C   UNL     1     -12.134  12.046  63.575  1.00  0.00    -0.526 C  
HETATM    2  O   UNL     1     -11.221  11.548  64.541  1.00  0.00    -0.305 OA 
ENDROOT
BRANCH   2   3
HETATM    3  C   UNL     1     -11.208  12.169  65.762  1.00  0.00    -0.339 A  
HETATM    4  C   UNL     1     -10.619  11.713  66.950  1.00  0.00    -0.241 A  
HETATM    5  C   UNL     1     -10.745  12.484  68.113  1.00  0.00    -0.246 A  
HETATM    6  C   UNL     1     -11.955  13.356  65.779  1.00  0.00    -0.447 A  
HETATM    7  C   UNL     1     -12.111  14.096  66.952  1.00  0.00    -0.466 A  
HETATM    8  C   UNL     1     -11.534  13.636  68.132  1.00  0.00    -0.348 A  
BRANCH   4   9
HETATM    9  O   UNL     1      -9.929  10.527  66.962  1.00  0.00    -0.186 OA 
HETATM   10  C   UNL     1     -10.742   9.362  67.093  1.00  0.00    -0.163 C  
ENDBRANCH   4   9
BRANCH   8  11
HETATM   11  C   UNL     1     -11.761  14.363  69.427  1.00  0.00    -0.362 C  
BRANCH  11  12
HETATM   12  C   UNL     1     -10.685  15.392  69.723  1.00  0.00    -0.291 C  
BRANCH  12  13
HETATM   13  O   UNL     1     -10.133  15.895  68.505  1.00  0.00    -0.210 OA 
BRANCH  13  14
HETATM   14  C   UNL     1      -8.787  16.403  68.587  1.00  0.00    -0.234 C  
HETATM   15  C   UNL     1      -8.738  17.881  68.168  1.00  0.00    -0.268 C  
HETATM   16  C   UNL     1      -7.322  18.407  67.992  1.00  0.00    -0.256 C  
HETATM   17  C   UNL     1      -6.547  17.511  67.038  1.00  0.00    -0.206 C  
HETATM   18  C   UNL     1      -6.394  16.120  67.648  1.00  0.00    -0.181 C  
HETATM   19  C   UNL     1      -7.762  15.458  67.871  1.00  0.00    -0.133 C  
BRANCH  19  20
HETATM   20  N   UNL     1      -7.782  14.124  68.515  1.00  0.00    -0.133 NA 
HETATM   21  C   UNL     1      -7.474  14.081  69.946  1.00  0.00     0.540 C  
HETATM   22  C   UNL     1      -5.978  13.827  70.039  1.00  0.00    -0.144 C  
HETATM   23  C   UNL     1      -5.648  13.046  68.773  1.00  0.00    -0.072 C  
HETATM   24  C   UNL     1      -6.905  13.124  67.901  1.00  0.00    -0.135 C  
HETATM   25  O   UNL     1      -5.327  11.699  69.105  1.00  0.00    -0.047 OA 
HETATM   26  H   UNL     1      -5.121  11.212  68.315  1.00  0.00     0.000 HD 
ENDBRANCH  19  20
ENDBRANCH  13  14
ENDBRANCH  12  13
ENDBRANCH  11  12
ENDBRANCH   8  11
ENDBRANCH   2   3
TORSDOF 7
ENDMDL
MODEL      237
REMARK 921   NORMALIZED FREE ENERGY PREDICTED BY IDOCK:   -3.49 KCAL/MOL
REMARK 922        TOTAL FREE ENERGY PREDICTED BY IDOCK:   -5.84 KCAL/MOL
REMARK 923 INTER-LIGAND FREE ENERGY PREDICTED BY IDOCK:   -5.48 KCAL/MOL
REMARK 924 INTRA-LIGAND FREE ENERGY PREDICTED BY IDOCK:   -0.37 KCAL/MOL
REMARK 927      BINDING AFFINITY PREDICTED BY RF-SCORE:    0.00 PKD
ROOT
HETATM    1  C   UNL     1     -10.026  16.355  66.172  1.00  0.00    -0.339 C  
HETATM    2  O   UNL     1     -11.135  15.549  66.539  1.00  0.00    -0.287 OA 
ENDROOT
BRANCH   2   3
HETATM    3  C   UNL     1     -10.918  14.199  66.629  1.00  0.00    -0.303 A  
HETATM    4  C   UNL     1      -9.935  13.537  67.377  1.00  0.00    -0.234 A  
HETATM    5  C   UNL     1      -9.854  12.140  67.311  1.00  0.00    -0.202 A  
HETATM    6  C   UNL     1     -11.761  13.453  65.791  1.00  0.00    -0.380 A  
HETATM    7  C   UNL     1     -11.645  12.065  65.698  1.00  0.00    -0.356 A  
HETATM    8  C   UNL     1     -10.661  11.411  66.434  1.00  0.00    -0.325 A  
BRANCH   4   9
HETATM    9  O   UNL     1      -9.069  14.256  68.161  1.00  0.00    -0.180 OA 
HETATM   10  C   UNL     1      -7.745  13.728  68.233  1.00  0.00    -0.138 C  
ENDBRANCH   4   9
BRANCH   8  11
HETATM   11  C   UNL     1     -10.454   9.931  66.285  1.00  0.00    -0.171 C  
BRANCH  11  12
HETATM   12  C   UNL     1      -9.188   9.441  66.965  1.00  0.00    -0.142 C  
BRANCH  12  13
HETATM   13  O   UNL     1      -9.396   8.141  67.520  1.00  0.00    -0.138 OA 
BRANCH  13  14
HETATM   14  C   UNL     1      -8.491   7.755  68.574  1.00  0.00    -0.129 C  
HETATM   15  C   UNL     1      -7.249   7.059  67.995  1.00  0.00    -0.095 C  
HETATM   16  C   UNL     1      -6.378   6.407  69.058  1.00  0.00    -0.038 C  
HETATM   17  C   UNL     1      -7.215   5.472  69.918  1.00  0.00    -0.068 C  
HETATM   18  C   UNL     1      -8.262   6.277  70.683  1.00  0.00    -0.125 C  
HETATM   19  C   UNL     1      -9.229   6.987  69.723  1.00  0.00    -0.147 C  
BRANCH  19  20
HETATM   20  N   UNL     1     -10.270   7.859  70.317  1.00  0.00    -0.197 NA 
HETATM   21  C   UNL     1     -10.101   8.215  71.727  1.00  0.00    -0.205 C  
HETATM   22  C   UNL     1     -10.881   7.172  72.513  1.00  0.00    -0.299 C  
HETATM   23  C   UNL     1     -11.994   6.741  71.566  1.00  0.00    -0.350 C  
HETATM   24  C   UNL     1     -11.640   7.354  70.207  1.00  0.00    -0.128 C  
HETATM   25  O   UNL     1     -13.247   7.219  72.042  1.00  0.00    -0.503 OA 
HETATM   26  H   UNL     1     -13.941   6.950  71.452  1.00  0.00     0.000 HD 
ENDBRANCH  19  20
ENDBRANCH  13  14
ENDBRANCH  12  13
ENDBRANCH  11  12
ENDBRANCH   8  11
ENDBRANCH   2   3
TORSDOF 7
ENDMDL
MODEL      238
REMARK 921   NORMALIZED FREE ENERGY PREDICTED BY IDOCK:   -3.48 KCAL/MOL
REMARK 922        TOTAL FREE ENERGY PREDICTED BY IDOCK:   -5.83 KCAL/MOL
REMARK 923 INTER-LIGAND FREE ENERGY PREDICTED BY IDOCK:   -6.31 KCAL/MOL
REMARK 924 INTRA-LIGAND FREE ENERGY PREDICTED BY IDOCK:    0.47 KCAL/MOL
REMARK 927      BINDING AFFINITY PREDICTED BY RF-SCORE:    0.00 PKD
ROOT
HETATM    1  C   UNL     1     -10.271  20.384  68.617  1.00  0.00     0.005 C  
HETATM    2  O   UNL     1      -9.115  19.656  68.230  1.00  0.00    -0.336 OA 
ENDROOT
BRANCH   2   3
HETATM    3  C   UNL     1      -9.291  18.335  67.911  1.00  0.00    -0.276 A  
HETATM    4  C   UNL     1      -8.838  17.662  66.768  1.00  0.00    -0.258 A  
HETATM    5  C   UNL     1      -9.151  16.306  66.607  1.00  0.00    -0.278 A  
HETATM    6  C   UNL     1     -10.090  17.651  68.839  1.00  0.00    -0.351 A  
HETATM    7  C   UNL     1     -10.433  16.311  68.650  1.00  0.00    -0.282 A  
HETATM    8  C   UNL     1      -9.991  15.648  67.508  1.00  0.00    -0.231 A  
BRANCH   4   9
HETATM    9  O   UNL     1      -8.099  18.331  65.825  1.00  0.00    -0.513 OA 
HETATM   10  C   UNL     1      -6.692  18.344  66.066  1.00  0.00    -0.263 C  
ENDBRANCH   4   9
BRANCH   8  11
HETATM   11  C   UNL     1     -10.419  14.234  67.234  1.00  0.00    -0.269 C  
BRANCH  11  12
HETATM   12  C   UNL     1      -9.310  13.225  67.472  1.00  0.00    -0.218 C  
BRANCH  12  13
HETATM   13  O   UNL     1      -9.330  12.218  66.459  1.00  0.00    -0.223 OA 
BRANCH  13  14
HETATM   14  C   UNL     1      -8.953  10.893  66.882  1.00  0.00    -0.151 C  
HETATM   15  C   UNL     1      -7.975  10.959  68.066  1.00  0.00    -0.109 C  
HETATM   16  C   UNL     1      -7.346   9.614  68.398  1.00  0.00    -0.075 C  
HETATM   17  C   UNL     1      -6.708   9.014  67.155  1.00  0.00    -0.066 C  
HETATM   18  C   UNL     1      -7.786   8.716  66.116  1.00  0.00    -0.097 C  
HETATM   19  C   UNL     1      -8.503  10.001  65.675  1.00  0.00    -0.148 C  
BRANCH  19  20
HETATM   20  N   UNL     1      -9.620   9.869  64.710  1.00  0.00    -0.298 NA 
HETATM   21  C   UNL     1      -9.258   9.789  63.294  1.00  0.00    -0.181 C  
HETATM   22  C   UNL     1      -9.308  11.217  62.774  1.00  0.00    -0.377 C  
HETATM   23  C   UNL     1     -10.346  11.903  63.653  1.00  0.00    -0.441 C  
HETATM   24  C   UNL     1     -10.638  10.919  64.791  1.00  0.00    -0.246 C  
HETATM   25  O   UNL     1     -11.517  12.182  62.893  1.00  0.00    -0.626 OA 
HETATM   26  H   UNL     1     -12.164  12.610  63.441  1.00  0.00     0.000 HD 
ENDBRANCH  19  20
ENDBRANCH  13  14
ENDBRANCH  12  13
ENDBRANCH  11  12
ENDBRANCH   8  11
ENDBRANCH   2   3
TORSDOF 7
ENDMDL
MODEL      239
REMARK 921   NORMALIZED FREE ENERGY PREDICTED BY IDOCK:   -3.48 KCAL/MOL
REMARK 922        TOTAL FREE ENERGY PREDICTED BY IDOCK:   -5.83 KCAL/MOL
REMARK 923 INTER-LIGAND FREE ENERGY PREDICTED BY IDOCK:   -6.29 KCAL/MOL
REMARK 924 INTRA-LIGAND FREE ENERGY PREDICTED BY IDOCK:    0.46 KCAL/MOL
REMARK 927      BINDING AFFINITY PREDICTED BY RF-SCORE:    0.00 PKD
ROOT
HETATM    1  C   UNL     1     -11.515  10.382  68.191  1.00  0.00    -0.118 C  
HETATM    2  O   UNL     1     -11.725  10.733  66.832  1.00  0.00    -0.151 OA 
ENDROOT
BRANCH   2   3
HETATM    3  C   UNL     1     -11.197  11.925  66.410  1.00  0.00    -0.331 A  
HETATM    4  C   UNL     1     -10.255  12.133  65.392  1.00  0.00    -0.270 A  
HETATM    5  C   UNL     1      -9.812  13.436  65.131  1.00  0.00    -0.094 A  
HETATM    6  C   UNL     1     -11.630  13.016  67.177  1.00  0.00    -0.411 A  
HETATM    7  C   UNL     1     -11.151  14.305  66.938  1.00  0.00    -0.315 A  
HETATM    8  C   UNL     1     -10.208  14.508  65.934  1.00  0.00    -0.339 A  
BRANCH   4   9
HETATM    9  O   UNL     1      -9.782  11.069  64.667  1.00  0.00    -0.230 OA 
HETATM   10  C   UNL     1     -10.178  11.055  63.296  1.00  0.00    -0.303 C  
ENDBRANCH   4   9
BRANCH   8  11
HETATM   11  C   UNL     1      -9.607  15.867  65.714  1.00  0.00    -0.339 C  
BRANCH  11  12
HETATM   12  C   UNL     1      -8.237  16.017  66.350  1.00  0.00    -0.274 C  
BRANCH  12  13
HETATM   13  O   UNL     1      -8.238  17.104  67.277  1.00  0.00    -0.181 OA 
BRANCH  13  14
HETATM   14  C   UNL     1      -8.753  16.809  68.591  1.00  0.00    -0.255 C  
HETATM   15  C   UNL     1      -8.535  15.328  68.940  1.00  0.00    -0.202 C  
HETATM   16  C   UNL     1      -9.272  14.895  70.198  1.00  0.00     0.631 C  
HETATM   17  C   UNL     1     -10.747  15.251  70.088  1.00  0.00    -0.293 C  
HETATM   18  C   UNL     1     -10.906  16.768  70.022  1.00  0.00    -0.047 C  
HETATM   19  C   UNL     1     -10.213  17.346  68.780  1.00  0.00    -0.361 C  
BRANCH  19  20
HETATM   20  N   UNL     1     -10.228  18.818  68.606  1.00  0.00    -0.365 NA 
HETATM   21  C   UNL     1     -10.993  19.336  67.470  1.00  0.00    -0.316 C  
HETATM   22  C   UNL     1     -10.000  19.462  66.326  1.00  0.00    -0.509 C  
HETATM   23  C   UNL     1      -8.662  19.707  67.013  1.00  0.00    -0.316 C  
HETATM   24  C   UNL     1      -8.908  19.444  68.502  1.00  0.00    -0.366 C  
HETATM   25  O   UNL     1      -8.237  21.046  66.783  1.00  0.00    -0.536 OA 
HETATM   26  H   UNL     1      -7.403  21.198  67.211  1.00  0.00     0.000 HD 
ENDBRANCH  19  20
ENDBRANCH  13  14
ENDBRANCH  12  13
ENDBRANCH  11  12
ENDBRANCH   8  11
ENDBRANCH   2   3
TORSDOF 7
ENDMDL
MODEL      240
REMARK 921   NORMALIZED FREE ENERGY PREDICTED BY IDOCK:   -3.48 KCAL/MOL
REMARK 922        TOTAL FREE ENERGY PREDICTED BY IDOCK:   -5.82 KCAL/MOL
REMARK 923 INTER-LIGAND FREE ENERGY PREDICTED BY IDOCK:   -5.09 KCAL/MOL
REMARK 924 INTRA-LIGAND FREE ENERGY PREDICTED BY IDOCK:   -0.73 KCAL/MOL
REMARK 927      BINDING AFFINITY PREDICTED BY RF-SCORE:    0.00 PKD
ROOT
HETATM    1  C   UNL     1      -6.375   8.801  63.385  1.00  0.00    -0.089 C  
HETATM    2  O   UNL     1      -5.541   8.403  64.462  1.00  0.00    -0.050 OA 
ENDROOT
BRANCH   2   3
HETATM    3  C   UNL     1      -6.160   8.104  65.648  1.00  0.00    -0.041 A  
HETATM    4  C   UNL     1      -6.646   6.859  66.070  1.00  0.00    -0.052 A  
HETATM    5  C   UNL     1      -7.282   6.762  67.315  1.00  0.00    -0.085 A  
HETATM    6  C   UNL     1      -6.369   9.232  66.455  1.00  0.00    -0.066 A  
HETATM    7  C   UNL     1      -7.042   9.134  67.674  1.00  0.00    -0.082 A  
HETATM    8  C   UNL     1      -7.533   7.899  68.086  1.00  0.00    -0.107 A  
BRANCH   4   9
HETATM    9  O   UNL     1      -6.495   5.755  65.269  1.00  0.00    -0.040 OA 
HETATM   10  C   UNL     1      -6.573   4.504  65.951  1.00  0.00    -0.044 C  
ENDBRANCH   4   9
BRANCH   8  11
HETATM   11  C   UNL     1      -8.339   7.781  69.349  1.00  0.00    -0.133 C  
BRANCH  11  12
HETATM   12  C   UNL     1      -9.802   7.470  69.088  1.00  0.00    -0.170 C  
BRANCH  12  13
HETATM   13  O   UNL     1     -10.500   8.657  68.707  1.00  0.00    -0.214 OA 
BRANCH  13  14
HETATM   14  C   UNL     1     -10.861   9.547  69.782  1.00  0.00    -0.243 C  
HETATM   15  C   UNL     1     -11.631   8.791  70.876  1.00  0.00    -0.320 C  
HETATM   16  C   UNL     1     -12.256   9.712  71.913  1.00  0.00    -0.413 C  
HETATM   17  C   UNL     1     -13.114  10.765  71.227  1.00  0.00    -0.427 C  
HETATM   18  C   UNL     1     -12.233  11.662  70.362  1.00  0.00    -0.434 C  
HETATM   19  C   UNL     1     -11.541  10.856  69.252  1.00  0.00    -0.318 C  
BRANCH  19  20
HETATM   20  N   UNL     1     -10.601  11.579  68.362  1.00  0.00    -0.192 NA 
HETATM   21  C   UNL     1     -10.723  13.038  68.326  1.00  0.00    -0.245 C  
HETATM   22  C   UNL     1     -11.662  13.346  67.172  1.00  0.00    -0.424 C  
HETATM   23  C   UNL     1     -11.458  12.190  66.200  1.00  0.00    -0.371 C  
HETATM   24  C   UNL     1     -10.623  11.154  66.960  1.00  0.00    -0.252 C  
HETATM   25  O   UNL     1     -10.783  12.650  65.034  1.00  0.00    -0.277 OA 
HETATM   26  H   UNL     1     -10.656  11.929  64.429  1.00  0.00     0.000 HD 
ENDBRANCH  19  20
ENDBRANCH  13  14
ENDBRANCH  12  13
ENDBRANCH  11  12
ENDBRANCH   8  11
ENDBRANCH   2   3
TORSDOF 7
ENDMDL
MODEL      241
REMARK 921   NORMALIZED FREE ENERGY PREDICTED BY IDOCK:   -3.48 KCAL/MOL
REMARK 922        TOTAL FREE ENERGY PREDICTED BY IDOCK:   -5.82 KCAL/MOL
REMARK 923 INTER-LIGAND FREE ENERGY PREDICTED BY IDOCK:   -5.17 KCAL/MOL
REMARK 924 INTRA-LIGAND FREE ENERGY PREDICTED BY IDOCK:   -0.65 KCAL/MOL
REMARK 927      BINDING AFFINITY PREDICTED BY RF-SCORE:    0.00 PKD
ROOT
HETATM    1  C   UNL     1      -6.489   4.412  70.929  1.00  0.00    -0.030 C  
HETATM    2  O   UNL     1      -7.861   4.770  70.864  1.00  0.00    -0.077 OA 
ENDROOT
BRANCH   2   3
HETATM    3  C   UNL     1      -8.230   5.638  69.870  1.00  0.00    -0.109 A  
HETATM    4  C   UNL     1      -8.166   7.039  69.889  1.00  0.00    -0.130 A  
HETATM    5  C   UNL     1      -8.625   7.756  68.776  1.00  0.00    -0.129 A  
HETATM    6  C   UNL     1      -8.801   4.992  68.764  1.00  0.00    -0.109 A  
HETATM    7  C   UNL     1      -9.296   5.717  67.678  1.00  0.00    -0.108 A  
HETATM    8  C   UNL     1      -9.241   7.108  67.703  1.00  0.00    -0.127 A  
BRANCH   4   9
HETATM    9  O   UNL     1      -7.657   7.688  70.984  1.00  0.00    -0.080 OA 
HETATM   10  C   UNL     1      -8.631   8.102  71.942  1.00  0.00    -0.152 C  
ENDBRANCH   4   9
BRANCH   8  11
HETATM   11  C   UNL     1      -9.846   7.916  66.591  1.00  0.00    -0.311 C  
BRANCH  11  12
HETATM   12  C   UNL     1      -8.805   8.612  65.733  1.00  0.00    -0.193 C  
BRANCH  12  13
HETATM   13  O   UNL     1      -8.693   9.986  66.106  1.00  0.00    -0.136 OA 
BRANCH  13  14
HETATM   14  C   UNL     1      -9.829  10.817  65.795  1.00  0.00    -0.240 C  
HETATM   15  C   UNL     1     -10.252  10.631  64.329  1.00  0.00    -0.391 C  
HETATM   16  C   UNL     1     -11.277  11.655  63.867  1.00  0.00    -0.479 C  
HETATM   17  C   UNL     1     -10.773  13.062  64.148  1.00  0.00    -0.429 C  
HETATM   18  C   UNL     1     -10.637  13.269  65.654  1.00  0.00    -0.291 C  
HETATM   19  C   UNL     1      -9.612  12.298  66.258  1.00  0.00    -0.242 C  
BRANCH  19  20
HETATM   20  N   UNL     1      -9.412  12.336  67.726  1.00  0.00    -0.191 NA 
HETATM   21  C   UNL     1     -10.491  12.927  68.520  1.00  0.00    -0.247 C  
HETATM   22  C   UNL     1     -10.128  14.394  68.683  1.00  0.00    -0.242 C  
HETATM   23  C   UNL     1      -8.606  14.415  68.626  1.00  0.00    -0.161 C  
HETATM   24  C   UNL     1      -8.191  13.013  68.169  1.00  0.00    -0.157 C  
HETATM   25  O   UNL     1      -8.076  14.723  69.911  1.00  0.00    -0.416 OA 
HETATM   26  H   UNL     1      -7.127  14.736  69.875  1.00  0.00     0.000 HD 
ENDBRANCH  19  20
ENDBRANCH  13  14
ENDBRANCH  12  13
ENDBRANCH  11  12
ENDBRANCH   8  11
ENDBRANCH   2   3
TORSDOF 7
ENDMDL
MODEL      242
REMARK 921   NORMALIZED FREE ENERGY PREDICTED BY IDOCK:   -3.46 KCAL/MOL
REMARK 922        TOTAL FREE ENERGY PREDICTED BY IDOCK:   -5.80 KCAL/MOL
REMARK 923 INTER-LIGAND FREE ENERGY PREDICTED BY IDOCK:   -4.67 KCAL/MOL
REMARK 924 INTRA-LIGAND FREE ENERGY PREDICTED BY IDOCK:   -1.13 KCAL/MOL
REMARK 927      BINDING AFFINITY PREDICTED BY RF-SCORE:    0.00 PKD
ROOT
HETATM    1  C   UNL     1      -8.017   6.842  63.627  1.00  0.00    -0.062 C  
HETATM    2  O   UNL     1      -7.726   8.228  63.728  1.00  0.00    -0.129 OA 
ENDROOT
BRANCH   2   3
HETATM    3  C   UNL     1      -8.056   8.848  64.905  1.00  0.00    -0.144 A  
HETATM    4  C   UNL     1      -9.038   9.826  65.112  1.00  0.00    -0.222 A  
HETATM    5  C   UNL     1      -9.202  10.365  66.394  1.00  0.00    -0.187 A  
HETATM    6  C   UNL     1      -7.227   8.471  65.971  1.00  0.00    -0.077 A  
HETATM    7  C   UNL     1      -7.369   9.045  67.236  1.00  0.00    -0.084 A  
HETATM    8  C   UNL     1      -8.338  10.024  67.437  1.00  0.00    -0.118 A  
BRANCH   4   9
HETATM    9  O   UNL     1      -9.823  10.243  64.067  1.00  0.00    -0.311 OA 
HETATM   10  C   UNL     1     -10.065  11.649  64.021  1.00  0.00    -0.323 C  
ENDBRANCH   4   9
BRANCH   8  11
HETATM   11  C   UNL     1      -8.454  10.723  68.762  1.00  0.00    -0.148 C  
BRANCH  11  12
HETATM   12  C   UNL     1      -7.574  10.105  69.834  1.00  0.00    -0.166 C  
BRANCH  12  13
HETATM   13  O   UNL     1      -8.379   9.545  70.872  1.00  0.00    -0.280 OA 
BRANCH  13  14
HETATM   14  C   UNL     1      -8.509   8.109  70.861  1.00  0.00    -0.130 C  
HETATM   15  C   UNL     1      -7.190   7.447  70.435  1.00  0.00    -0.068 C  
HETATM   16  C   UNL     1      -7.327   5.957  70.161  1.00  0.00    -0.077 C  
HETATM   17  C   UNL     1      -8.446   5.712  69.160  1.00  0.00    -0.102 C  
HETATM   18  C   UNL     1      -9.780   6.143  69.764  1.00  0.00    -0.187 C  
HETATM   19  C   UNL     1      -9.787   7.645  70.081  1.00  0.00    -0.184 C  
BRANCH  19  20
HETATM   20  N   UNL     1     -10.996   8.205  70.730  1.00  0.00    -0.240 NA 
HETATM   21  C   UNL     1     -10.929   8.408  72.179  1.00  0.00    -0.341 C  
HETATM   22  C   UNL     1     -11.489   7.138  72.800  1.00  0.00    -0.234 C  
HETATM   23  C   UNL     1     -12.472   6.612  71.762  1.00  0.00    -0.311 C  
HETATM   24  C   UNL     1     -12.230   7.450  70.502  1.00  0.00     0.002 C  
HETATM   25  O   UNL     1     -13.805   6.760  72.238  1.00  0.00    -0.546 OA 
HETATM   26  H   UNL     1     -14.418   6.432  71.590  1.00  0.00     0.000 HD 
ENDBRANCH  19  20
ENDBRANCH  13  14
ENDBRANCH  12  13
ENDBRANCH  11  12
ENDBRANCH   8  11
ENDBRANCH   2   3
TORSDOF 7
ENDMDL
MODEL      243
REMARK 921   NORMALIZED FREE ENERGY PREDICTED BY IDOCK:   -3.44 KCAL/MOL
REMARK 922        TOTAL FREE ENERGY PREDICTED BY IDOCK:   -5.78 KCAL/MOL
REMARK 923 INTER-LIGAND FREE ENERGY PREDICTED BY IDOCK:   -4.64 KCAL/MOL
REMARK 924 INTRA-LIGAND FREE ENERGY PREDICTED BY IDOCK:   -1.14 KCAL/MOL
REMARK 927      BINDING AFFINITY PREDICTED BY RF-SCORE:    0.00 PKD
ROOT
HETATM    1  C   UNL     1      -8.368   3.282  64.694  1.00  0.00    -0.090 C  
HETATM    2  O   UNL     1      -8.931   3.254  65.997  1.00  0.00    -0.133 OA 
ENDROOT
BRANCH   2   3
HETATM    3  C   UNL     1      -8.504   4.214  66.877  1.00  0.00    -0.100 A  
HETATM    4  C   UNL     1      -9.129   5.430  67.187  1.00  0.00    -0.111 A  
HETATM    5  C   UNL     1      -8.513   6.299  68.098  1.00  0.00    -0.114 A  
HETATM    6  C   UNL     1      -7.255   3.920  67.443  1.00  0.00    -0.067 A  
HETATM    7  C   UNL     1      -6.628   4.811  68.316  1.00  0.00    -0.042 A  
HETATM    8  C   UNL     1      -7.245   6.023  68.614  1.00  0.00    -0.084 A  
BRANCH   4   9
HETATM    9  O   UNL     1     -10.326   5.755  66.603  1.00  0.00    -0.212 OA 
HETATM   10  C   UNL     1     -11.091   6.733  67.307  1.00  0.00    -0.324 C  
ENDBRANCH   4   9
BRANCH   8  11
HETATM   11  C   UNL     1      -6.553   7.039  69.478  1.00  0.00    -0.045 C  
BRANCH  11  12
HETATM   12  C   UNL     1      -7.361   7.416  70.707  1.00  0.00    -0.069 C  
BRANCH  12  13
HETATM   13  O   UNL     1      -7.814   8.767  70.607  1.00  0.00    -0.082 OA 
BRANCH  13  14
HETATM   14  C   UNL     1      -9.116   9.036  71.162  1.00  0.00    -0.246 C  
HETATM   15  C   UNL     1      -9.486   7.981  72.217  1.00  0.00    -0.272 C  
HETATM   16  C   UNL     1     -10.939   8.060  72.660  1.00  0.00    -0.448 C  
HETATM   17  C   UNL     1     -11.857   8.011  71.448  1.00  0.00    -0.326 C  
HETATM   18  C   UNL     1     -11.627   9.243  70.578  1.00  0.00    -0.266 C  
HETATM   19  C   UNL     1     -10.187   9.286  70.046  1.00  0.00    -0.215 C  
BRANCH  19  20
HETATM   20  N   UNL     1      -9.790  10.459  69.230  1.00  0.00    -0.222 NA 
HETATM   21  C   UNL     1     -10.793  11.514  69.068  1.00  0.00    -0.212 C  
HETATM   22  C   UNL     1     -11.535  11.185  67.783  1.00  0.00    -0.349 C  
HETATM   23  C   UNL     1     -10.512  10.439  66.936  1.00  0.00    -0.240 C  
HETATM   24  C   UNL     1      -9.335  10.146  67.874  1.00  0.00    -0.141 C  
HETATM   25  O   UNL     1     -10.112  11.247  65.835  1.00  0.00    -0.227 OA 
HETATM   26  H   UNL     1      -9.474  10.781  65.307  1.00  0.00     0.000 HD 
ENDBRANCH  19  20
ENDBRANCH  13  14
ENDBRANCH  12  13
ENDBRANCH  11  12
ENDBRANCH   8  11
ENDBRANCH   2   3
TORSDOF 7
ENDMDL
MODEL      244
REMARK 921   NORMALIZED FREE ENERGY PREDICTED BY IDOCK:   -3.44 KCAL/MOL
REMARK 922        TOTAL FREE ENERGY PREDICTED BY IDOCK:   -5.77 KCAL/MOL
REMARK 923 INTER-LIGAND FREE ENERGY PREDICTED BY IDOCK:   -4.98 KCAL/MOL
REMARK 924 INTRA-LIGAND FREE ENERGY PREDICTED BY IDOCK:   -0.79 KCAL/MOL
REMARK 927      BINDING AFFINITY PREDICTED BY RF-SCORE:    0.00 PKD
ROOT
HETATM    1  C   UNL     1      -9.531   4.410  64.871  1.00  0.00    -0.162 C  
HETATM    2  O   UNL     1     -10.149   3.856  66.024  1.00  0.00    -0.127 OA 
ENDROOT
BRANCH   2   3
HETATM    3  C   UNL     1      -9.860   4.447  67.226  1.00  0.00    -0.162 A  
HETATM    4  C   UNL     1     -10.289   5.699  67.691  1.00  0.00    -0.212 A  
HETATM    5  C   UNL     1      -9.855   6.144  68.946  1.00  0.00    -0.167 A  
HETATM    6  C   UNL     1      -8.967   3.695  68.004  1.00  0.00    -0.168 A  
HETATM    7  C   UNL     1      -8.506   4.166  69.235  1.00  0.00    -0.099 A  
HETATM    8  C   UNL     1      -8.924   5.414  69.689  1.00  0.00    -0.130 A  
BRANCH   4   9
HETATM    9  O   UNL     1     -11.121   6.468  66.919  1.00  0.00    -0.399 OA 
HETATM   10  C   UNL     1     -10.706   7.824  66.757  1.00  0.00    -0.045 C  
ENDBRANCH   4   9
BRANCH   8  11
HETATM   11  C   UNL     1      -8.375   5.984  70.965  1.00  0.00    -0.124 C  
BRANCH  11  12
HETATM   12  C   UNL     1      -9.086   7.255  71.397  1.00  0.00    -0.142 C  
BRANCH  12  13
HETATM   13  O   UNL     1      -8.635   8.363  70.617  1.00  0.00    -0.127 OA 
BRANCH  13  14
HETATM   14  C   UNL     1      -9.488   9.525  70.623  1.00  0.00    -0.213 C  
HETATM   15  C   UNL     1     -10.833   9.207  71.295  1.00  0.00    -0.402 C  
HETATM   16  C   UNL     1     -11.868  10.307  71.114  1.00  0.00    -0.455 C  
HETATM   17  C   UNL     1     -12.025  10.638  69.638  1.00  0.00    -0.340 C  
HETATM   18  C   UNL     1     -10.718  11.213  69.098  1.00  0.00    -0.262 C  
HETATM   19  C   UNL     1      -9.575  10.193  69.208  1.00  0.00    -0.225 C  
BRANCH  19  20
HETATM   20  N   UNL     1      -8.224  10.625  68.778  1.00  0.00    -0.133 NA 
HETATM   21  C   UNL     1      -8.056  12.048  68.477  1.00  0.00    -0.123 C  
HETATM   22  C   UNL     1      -8.303  12.187  66.984  1.00  0.00    -0.173 C  
HETATM   23  C   UNL     1      -7.892  10.838  66.406  1.00  0.00    -0.148 C  
HETATM   24  C   UNL     1      -7.687   9.917  67.614  1.00  0.00    -0.091 C  
HETATM   25  O   UNL     1      -6.694  10.980  65.650  1.00  0.00    -0.352 OA 
HETATM   26  H   UNL     1      -6.438  10.138  65.290  1.00  0.00     0.000 HD 
ENDBRANCH  19  20
ENDBRANCH  13  14
ENDBRANCH  12  13
ENDBRANCH  11  12
ENDBRANCH   8  11
ENDBRANCH   2   3
TORSDOF 7
ENDMDL
MODEL      245
REMARK 921   NORMALIZED FREE ENERGY PREDICTED BY IDOCK:   -3.44 KCAL/MOL
REMARK 922        TOTAL FREE ENERGY PREDICTED BY IDOCK:   -5.77 KCAL/MOL
REMARK 923 INTER-LIGAND FREE ENERGY PREDICTED BY IDOCK:   -5.79 KCAL/MOL
REMARK 924 INTRA-LIGAND FREE ENERGY PREDICTED BY IDOCK:    0.02 KCAL/MOL
REMARK 927      BINDING AFFINITY PREDICTED BY RF-SCORE:    0.00 PKD
ROOT
HETATM    1  C   UNL     1      -6.361  18.147  68.218  1.00  0.00    -0.193 C  
HETATM    2  O   UNL     1      -6.650  17.499  66.988  1.00  0.00    -0.152 OA 
ENDROOT
BRANCH   2   3
HETATM    3  C   UNL     1      -7.502  16.427  67.035  1.00  0.00    -0.215 A  
HETATM    4  C   UNL     1      -7.308  15.208  67.699  1.00  0.00    -0.183 A  
HETATM    5  C   UNL     1      -8.291  14.215  67.600  1.00  0.00    -0.187 A  
HETATM    6  C   UNL     1      -8.646  16.604  66.245  1.00  0.00    -0.359 A  
HETATM    7  C   UNL     1      -9.600  15.593  66.117  1.00  0.00    -0.362 A  
HETATM    8  C   UNL     1      -9.401  14.379  66.768  1.00  0.00    -0.285 A  
BRANCH   4   9
HETATM    9  O   UNL     1      -6.169  15.000  68.434  1.00  0.00    -0.093 OA 
HETATM   10  C   UNL     1      -6.391  14.556  69.772  1.00  0.00    -0.148 C  
ENDBRANCH   4   9
BRANCH   8  11
HETATM   11  C   UNL     1     -10.364  13.242  66.576  1.00  0.00    -0.285 C  
BRANCH  11  12
HETATM   12  C   UNL     1     -10.171  12.128  67.589  1.00  0.00    -0.197 C  
BRANCH  12  13
HETATM   13  O   UNL     1     -10.991  11.007  67.254  1.00  0.00    -0.267 OA 
BRANCH  13  14
HETATM   14  C   UNL     1     -11.502  10.247  68.367  1.00  0.00    -0.091 C  
HETATM   15  C   UNL     1     -11.879  11.176  69.531  1.00  0.00    -0.423 C  
HETATM   16  C   UNL     1     -12.187  10.427  70.819  1.00  0.00    -0.457 C  
HETATM   17  C   UNL     1     -11.035   9.499  71.172  1.00  0.00    -0.438 C  
HETATM   18  C   UNL     1     -10.893   8.424  70.097  1.00  0.00    -0.238 C  
HETATM   19  C   UNL     1     -10.565   9.044  68.731  1.00  0.00    -0.169 C  
BRANCH  19  20
HETATM   20  N   UNL     1     -10.455   8.130  67.570  1.00  0.00    -0.258 NA 
HETATM   21  C   UNL     1      -9.640   6.927  67.757  1.00  0.00    -0.122 C  
HETATM   22  C   UNL     1      -8.244   7.296  67.282  1.00  0.00    -0.115 C  
HETATM   23  C   UNL     1      -8.476   8.369  66.225  1.00  0.00    -0.127 C  
HETATM   24  C   UNL     1      -9.957   8.747  66.339  1.00  0.00    -0.275 C  
HETATM   25  O   UNL     1      -8.168   7.853  64.935  1.00  0.00    -0.147 OA 
HETATM   26  H   UNL     1      -8.312   8.522  64.276  1.00  0.00     0.000 HD 
ENDBRANCH  19  20
ENDBRANCH  13  14
ENDBRANCH  12  13
ENDBRANCH  11  12
ENDBRANCH   8  11
ENDBRANCH   2   3
TORSDOF 7
ENDMDL
MODEL      246
REMARK 921   NORMALIZED FREE ENERGY PREDICTED BY IDOCK:   -3.42 KCAL/MOL
REMARK 922        TOTAL FREE ENERGY PREDICTED BY IDOCK:   -5.75 KCAL/MOL
REMARK 923 INTER-LIGAND FREE ENERGY PREDICTED BY IDOCK:   -4.97 KCAL/MOL
REMARK 924 INTRA-LIGAND FREE ENERGY PREDICTED BY IDOCK:   -0.78 KCAL/MOL
REMARK 927      BINDING AFFINITY PREDICTED BY RF-SCORE:    0.00 PKD
ROOT
HETATM    1  C   UNL     1      -7.187   4.575  72.901  1.00  0.00    -0.078 C  
HETATM    2  O   UNL     1      -7.950   5.236  73.900  1.00  0.00    -0.104 OA 
ENDROOT
BRANCH   2   3
HETATM    3  C   UNL     1      -8.768   6.253  73.485  1.00  0.00    -0.124 A  
HETATM    4  C   UNL     1     -10.163   6.331  73.598  1.00  0.00    -0.257 A  
HETATM    5  C   UNL     1     -10.827   7.450  73.078  1.00  0.00    -0.423 A  
HETATM    6  C   UNL     1      -8.077   7.268  72.808  1.00  0.00    -0.122 A  
HETATM    7  C   UNL     1      -8.751   8.359  72.255  1.00  0.00    -0.277 A  
HETATM    8  C   UNL     1     -10.137   8.429  72.359  1.00  0.00    -0.386 A  
BRANCH   4   9
HETATM    9  O   UNL     1     -10.860   5.321  74.212  1.00  0.00    -0.285 OA 
HETATM   10  C   UNL     1     -11.405   4.344  73.326  1.00  0.00    -0.237 C  
ENDBRANCH   4   9
BRANCH   8  11
HETATM   11  C   UNL     1     -10.897   9.543  71.697  1.00  0.00    -0.225 C  
BRANCH  11  12
HETATM   12  C   UNL     1     -11.949   9.042  70.723  1.00  0.00    -0.170 C  
BRANCH  12  13
HETATM   13  O   UNL     1     -11.981   9.870  69.560  1.00  0.00     0.054 OA 
BRANCH  13  14
HETATM   14  C   UNL     1     -10.701  10.186  68.978  1.00  0.00    -0.221 C  
HETATM   15  C   UNL     1     -10.595  11.691  68.684  1.00  0.00    -0.236 C  
HETATM   16  C   UNL     1      -9.379  12.054  67.845  1.00  0.00    -0.190 C  
HETATM   17  C   UNL     1      -9.351  11.215  66.577  1.00  0.00    -0.199 C  
HETATM   18  C   UNL     1      -9.175   9.742  66.938  1.00  0.00    -0.174 C  
HETATM   19  C   UNL     1     -10.352   9.233  67.784  1.00  0.00    -0.237 C  
BRANCH  19  20
HETATM   20  N   UNL     1     -10.297   7.833  68.265  1.00  0.00    -0.201 NA 
HETATM   21  C   UNL     1      -8.964   7.254  68.450  1.00  0.00    -0.126 C  
HETATM   22  C   UNL     1      -8.632   6.555  67.142  1.00  0.00    -0.111 C  
HETATM   23  C   UNL     1      -9.987   6.150  66.575  1.00  0.00    -0.126 C  
HETATM   24  C   UNL     1     -11.028   6.865  67.444  1.00  0.00    -0.304 C  
HETATM   25  O   UNL     1     -10.136   4.736  66.641  1.00  0.00    -0.210 OA 
HETATM   26  H   UNL     1     -10.981   4.483  66.288  1.00  0.00     0.000 HD 
ENDBRANCH  19  20
ENDBRANCH  13  14
ENDBRANCH  12  13
ENDBRANCH  11  12
ENDBRANCH   8  11
ENDBRANCH   2   3
TORSDOF 7
ENDMDL
MODEL      247
REMARK 921   NORMALIZED FREE ENERGY PREDICTED BY IDOCK:   -3.42 KCAL/MOL
REMARK 922        TOTAL FREE ENERGY PREDICTED BY IDOCK:   -5.74 KCAL/MOL
REMARK 923 INTER-LIGAND FREE ENERGY PREDICTED BY IDOCK:   -5.30 KCAL/MOL
REMARK 924 INTRA-LIGAND FREE ENERGY PREDICTED BY IDOCK:   -0.44 KCAL/MOL
REMARK 927      BINDING AFFINITY PREDICTED BY RF-SCORE:    0.00 PKD
ROOT
HETATM    1  C   UNL     1     -12.022  15.728  69.252  1.00  0.00    -0.289 C  
HETATM    2  O   UNL     1     -10.733  15.149  69.380  1.00  0.00    -0.243 OA 
ENDROOT
BRANCH   2   3
HETATM    3  C   UNL     1     -10.543  13.922  68.801  1.00  0.00    -0.246 A  
HETATM    4  C   UNL     1      -9.336  13.359  68.362  1.00  0.00    -0.165 A  
HETATM    5  C   UNL     1      -9.354  12.094  67.760  1.00  0.00    -0.193 A  
HETATM    6  C   UNL     1     -11.743  13.231  68.578  1.00  0.00    -0.388 A  
HETATM    7  C   UNL     1     -11.756  11.991  67.939  1.00  0.00    -0.393 A  
HETATM    8  C   UNL     1     -10.558  11.438  67.495  1.00  0.00    -0.252 A  
BRANCH   4   9
HETATM    9  O   UNL     1      -8.159  14.045  68.526  1.00  0.00    -0.139 OA 
HETATM   10  C   UNL     1      -7.027  13.229  68.824  1.00  0.00    -0.103 C  
ENDBRANCH   4   9
BRANCH   8  11
HETATM   11  C   UNL     1     -10.551  10.149  66.724  1.00  0.00    -0.239 C  
BRANCH  11  12
HETATM   12  C   UNL     1     -10.628   8.926  67.620  1.00  0.00    -0.224 C  
BRANCH  12  13
HETATM   13  O   UNL     1     -10.265   9.269  68.959  1.00  0.00    -0.193 OA 
BRANCH  13  14
HETATM   14  C   UNL     1     -10.672   8.336  69.980  1.00  0.00    -0.239 C  
HETATM   15  C   UNL     1     -11.745   8.959  70.887  1.00  0.00    -0.312 C  
HETATM   16  C   UNL     1     -12.037   8.128  72.127  1.00  0.00    -0.408 C  
HETATM   17  C   UNL     1     -10.745   7.838  72.876  1.00  0.00    -0.446 C  
HETATM   18  C   UNL     1      -9.830   6.976  72.011  1.00  0.00    -0.171 C  
HETATM   19  C   UNL     1      -9.442   7.704  70.716  1.00  0.00    -0.162 C  
BRANCH  19  20
HETATM   20  N   UNL     1      -8.602   6.970  69.740  1.00  0.00    -0.140 NA 
HETATM   21  C   UNL     1      -9.051   5.626  69.368  1.00  0.00    -0.117 C  
HETATM   22  C   UNL     1      -8.340   4.675  70.318  1.00  0.00    -0.082 C  
HETATM   23  C   UNL     1      -7.043   5.393  70.669  1.00  0.00    -0.061 C  
HETATM   24  C   UNL     1      -7.197   6.816  70.122  1.00  0.00    -0.076 C  
HETATM   25  O   UNL     1      -5.940   4.720  70.069  1.00  0.00    -0.019 OA 
HETATM   26  H   UNL     1      -5.131   5.168  70.288  1.00  0.00     0.000 HD 
ENDBRANCH  19  20
ENDBRANCH  13  14
ENDBRANCH  12  13
ENDBRANCH  11  12
ENDBRANCH   8  11
ENDBRANCH   2   3
TORSDOF 7
ENDMDL
MODEL      248
REMARK 921   NORMALIZED FREE ENERGY PREDICTED BY IDOCK:   -3.42 KCAL/MOL
REMARK 922        TOTAL FREE ENERGY PREDICTED BY IDOCK:   -5.74 KCAL/MOL
REMARK 923 INTER-LIGAND FREE ENERGY PREDICTED BY IDOCK:   -5.31 KCAL/MOL
REMARK 924 INTRA-LIGAND FREE ENERGY PREDICTED BY IDOCK:   -0.43 KCAL/MOL
REMARK 927      BINDING AFFINITY PREDICTED BY RF-SCORE:    0.00 PKD
ROOT
HETATM    1  C   UNL     1      -9.804   4.217  72.475  1.00  0.00    -0.155 C  
HETATM    2  O   UNL     1      -8.983   5.336  72.771  1.00  0.00    -0.122 OA 
ENDROOT
BRANCH   2   3
HETATM    3  C   UNL     1      -9.350   6.537  72.223  1.00  0.00    -0.137 A  
HETATM    4  C   UNL     1      -8.543   7.664  72.010  1.00  0.00    -0.110 A  
HETATM    5  C   UNL     1      -9.117   8.818  71.462  1.00  0.00    -0.322 A  
HETATM    6  C   UNL     1     -10.721   6.610  71.935  1.00  0.00    -0.251 A  
HETATM    7  C   UNL     1     -11.292   7.779  71.429  1.00  0.00    -0.281 A  
HETATM    8  C   UNL     1     -10.491   8.900  71.228  1.00  0.00    -0.357 A  
BRANCH   4   9
HETATM    9  O   UNL     1      -7.211   7.625  72.334  1.00  0.00    -0.070 OA 
HETATM   10  C   UNL     1      -6.466   8.780  71.950  1.00  0.00    -0.069 C  
ENDBRANCH   4   9
BRANCH   8  11
HETATM   11  C   UNL     1     -11.095  10.198  70.771  1.00  0.00    -0.372 C  
BRANCH  11  12
HETATM   12  C   UNL     1     -11.717  10.105  69.390  1.00  0.00    -0.028 C  
BRANCH  12  13
HETATM   13  O   UNL     1     -12.193  11.386  68.975  1.00  0.00    -0.405 OA 
BRANCH  13  14
HETATM   14  C   UNL     1     -11.609  12.521  69.644  1.00  0.00    -0.253 C  
HETATM   15  C   UNL     1     -12.588  13.106  70.674  1.00  0.00    -0.286 C  
HETATM   16  C   UNL     1     -12.137  14.447  71.234  1.00  0.00    -0.405 C  
HETATM   17  C   UNL     1     -11.848  15.416  70.099  1.00  0.00    -0.362 C  
HETATM   18  C   UNL     1     -10.673  14.903  69.270  1.00  0.00    -0.253 C  
HETATM   19  C   UNL     1     -10.997  13.546  68.628  1.00  0.00    -0.263 C  
BRANCH  19  20
HETATM   20  N   UNL     1      -9.930  12.887  67.839  1.00  0.00    -0.226 NA 
HETATM   21  C   UNL     1      -8.932  12.126  68.593  1.00  0.00    -0.000 C  
HETATM   22  C   UNL     1      -7.791  13.093  68.862  1.00  0.00     0.118 C  
HETATM   23  C   UNL     1      -7.843  14.072  67.694  1.00  0.00    -0.176 C  
HETATM   24  C   UNL     1      -9.160  13.778  66.969  1.00  0.00    -0.246 C  
HETATM   25  O   UNL     1      -6.721  13.868  66.841  1.00  0.00    -0.280 OA 
HETATM   26  H   UNL     1      -6.754  14.478  66.114  1.00  0.00     0.000 HD 
ENDBRANCH  19  20
ENDBRANCH  13  14
ENDBRANCH  12  13
ENDBRANCH  11  12
ENDBRANCH   8  11
ENDBRANCH   2   3
TORSDOF 7
ENDMDL
MODEL      249
REMARK 921   NORMALIZED FREE ENERGY PREDICTED BY IDOCK:   -3.42 KCAL/MOL
REMARK 922        TOTAL FREE ENERGY PREDICTED BY IDOCK:   -5.74 KCAL/MOL
REMARK 923 INTER-LIGAND FREE ENERGY PREDICTED BY IDOCK:   -5.36 KCAL/MOL
REMARK 924 INTRA-LIGAND FREE ENERGY PREDICTED BY IDOCK:   -0.38 KCAL/MOL
REMARK 927      BINDING AFFINITY PREDICTED BY RF-SCORE:    0.00 PKD
ROOT
HETATM    1  C   UNL     1      -9.326   3.869  67.689  1.00  0.00    -0.189 C  
HETATM    2  O   UNL     1      -9.599   4.481  66.438  1.00  0.00    -0.156 OA 
ENDROOT
BRANCH   2   3
HETATM    3  C   UNL     1      -9.555   5.850  66.394  1.00  0.00    -0.146 A  
HETATM    4  C   UNL     1      -8.556   6.658  65.833  1.00  0.00    -0.148 A  
HETATM    5  C   UNL     1      -8.679   8.051  65.919  1.00  0.00    -0.184 A  
HETATM    6  C   UNL     1     -10.623   6.453  67.075  1.00  0.00    -0.396 A  
HETATM    7  C   UNL     1     -10.715   7.841  67.193  1.00  0.00    -0.337 A  
HETATM    8  C   UNL     1      -9.716   8.640  66.644  1.00  0.00    -0.315 A  
BRANCH   4   9
HETATM    9  O   UNL     1      -7.479   6.082  65.208  1.00  0.00    -0.077 OA 
HETATM   10  C   UNL     1      -7.449   6.246  63.791  1.00  0.00    -0.080 C  
ENDBRANCH   4   9
BRANCH   8  11
HETATM   11  C   UNL     1      -9.741  10.131  66.833  1.00  0.00    -0.233 C  
BRANCH  11  12
HETATM   12  C   UNL     1      -9.988  10.886  65.540  1.00  0.00    -0.260 C  
BRANCH  12  13
HETATM   13  O   UNL     1     -10.368  12.234  65.819  1.00  0.00    -0.246 OA 
BRANCH  13  14
HETATM   14  C   UNL     1     -10.388  12.607  67.211  1.00  0.00    -0.224 C  
HETATM   15  C   UNL     1     -11.784  12.383  67.813  1.00  0.00    -0.413 C  
HETATM   16  C   UNL     1     -11.942  12.986  69.201  1.00  0.00    -0.320 C  
HETATM   17  C   UNL     1     -11.552  14.456  69.179  1.00  0.00    -0.344 C  
HETATM   18  C   UNL     1     -10.070  14.590  68.840  1.00  0.00    -0.224 C  
HETATM   19  C   UNL     1      -9.766  14.026  67.444  1.00  0.00    -0.233 C  
BRANCH  19  20
HETATM   20  N   UNL     1      -8.353  14.029  66.994  1.00  0.00    -0.153 NA 
HETATM   21  C   UNL     1      -7.459  13.061  67.633  1.00  0.00    -0.156 C  
HETATM   22  C   UNL     1      -6.827  13.793  68.806  1.00  0.00    -0.106 C  
HETATM   23  C   UNL     1      -6.812  15.255  68.375  1.00  0.00    -0.112 C  
HETATM   24  C   UNL     1      -7.669  15.320  67.106  1.00  0.00    -0.203 C  
HETATM   25  O   UNL     1      -5.474  15.671  68.121  1.00  0.00    -0.101 OA 
HETATM   26  H   UNL     1      -5.465  16.582  67.852  1.00  0.00     0.000 HD 
ENDBRANCH  19  20
ENDBRANCH  13  14
ENDBRANCH  12  13
ENDBRANCH  11  12
ENDBRANCH   8  11
ENDBRANCH   2   3
TORSDOF 7
ENDMDL
MODEL      250
REMARK 921   NORMALIZED FREE ENERGY PREDICTED BY IDOCK:   -3.41 KCAL/MOL
REMARK 922        TOTAL FREE ENERGY PREDICTED BY IDOCK:   -5.73 KCAL/MOL
REMARK 923 INTER-LIGAND FREE ENERGY PREDICTED BY IDOCK:   -5.22 KCAL/MOL
REMARK 924 INTRA-LIGAND FREE ENERGY PREDICTED BY IDOCK:   -0.51 KCAL/MOL
REMARK 927      BINDING AFFINITY PREDICTED BY RF-SCORE:    0.00 PKD
ROOT
HETATM    1  C   UNL     1      -8.651   8.600  62.443  1.00  0.00    -0.162 C  
HETATM    2  O   UNL     1      -8.114   9.139  63.642  1.00  0.00    -0.142 OA 
ENDROOT
BRANCH   2   3
HETATM    3  C   UNL     1      -8.683  10.293  64.114  1.00  0.00    -0.204 A  
HETATM    4  C   UNL     1      -8.586  10.830  65.405  1.00  0.00    -0.157 A  
HETATM    5  C   UNL     1      -9.274  12.013  65.703  1.00  0.00    -0.010 A  
HETATM    6  C   UNL     1      -9.508  10.921  63.169  1.00  0.00    -0.361 A  
HETATM    7  C   UNL     1     -10.224  12.076  63.488  1.00  0.00    -0.477 A  
HETATM    8  C   UNL     1     -10.134  12.601  64.773  1.00  0.00    -0.241 A  
BRANCH   4   9
HETATM    9  O   UNL     1      -7.825  10.199  66.355  1.00  0.00    -0.108 OA 
HETATM   10  C   UNL     1      -6.506  10.722  66.512  1.00  0.00    -0.119 C  
ENDBRANCH   4   9
BRANCH   8  11
HETATM   11  C   UNL     1     -10.963  13.790  65.171  1.00  0.00    -0.337 C  
BRANCH  11  12
HETATM   12  C   UNL     1     -10.526  14.398  66.492  1.00  0.00    -0.289 C  
BRANCH  12  13
HETATM   13  O   UNL     1      -9.694  15.536  66.263  1.00  0.00    -0.259 OA 
BRANCH  13  14
HETATM   14  C   UNL     1      -8.307  15.384  66.626  1.00  0.00    -0.220 C  
HETATM   15  C   UNL     1      -8.111  14.144  67.513  1.00  0.00    -0.199 C  
HETATM   16  C   UNL     1      -6.725  14.066  68.134  1.00  0.00    -0.125 C  
HETATM   17  C   UNL     1      -6.410  15.358  68.872  1.00  0.00    -0.106 C  
HETATM   18  C   UNL     1      -6.348  16.516  67.879  1.00  0.00    -0.151 C  
HETATM   19  C   UNL     1      -7.700  16.719  67.178  1.00  0.00    -0.181 C  
BRANCH  19  20
HETATM   20  N   UNL     1      -7.783  17.771  66.138  1.00  0.00    -0.435 NA 
HETATM   21  C   UNL     1      -6.514  18.340  65.677  1.00  0.00    -0.274 C  
HETATM   22  C   UNL     1      -6.273  19.566  66.544  1.00  0.00    -0.172 C  
HETATM   23  C   UNL     1      -7.669  20.041  66.924  1.00  0.00    -0.293 C  
HETATM   24  C   UNL     1      -8.620  18.922  66.484  1.00  0.00    -0.305 C  
HETATM   25  O   UNL     1      -7.963  21.265  66.259  1.00  0.00     0.108 OA 
HETATM   26  H   UNL     1      -8.834  21.561  66.496  1.00  0.00     0.000 HD 
ENDBRANCH  19  20
ENDBRANCH  13  14
ENDBRANCH  12  13
ENDBRANCH  11  12
ENDBRANCH   8  11
ENDBRANCH   2   3
TORSDOF 7
ENDMDL
MODEL      251
REMARK 921   NORMALIZED FREE ENERGY PREDICTED BY IDOCK:   -3.40 KCAL/MOL
REMARK 922        TOTAL FREE ENERGY PREDICTED BY IDOCK:   -5.71 KCAL/MOL
REMARK 923 INTER-LIGAND FREE ENERGY PREDICTED BY IDOCK:   -5.17 KCAL/MOL
REMARK 924 INTRA-LIGAND FREE ENERGY PREDICTED BY IDOCK:   -0.54 KCAL/MOL
REMARK 927      BINDING AFFINITY PREDICTED BY RF-SCORE:    0.00 PKD
ROOT
HETATM    1  C   UNL     1      -9.806  11.405  63.201  1.00  0.00    -0.388 C  
HETATM    2  O   UNL     1      -8.686  10.532  63.237  1.00  0.00    -0.174 OA 
ENDROOT
BRANCH   2   3
HETATM    3  C   UNL     1      -8.730   9.505  64.143  1.00  0.00    -0.215 A  
HETATM    4  C   UNL     1      -8.086   8.262  64.060  1.00  0.00    -0.128 A  
HETATM    5  C   UNL     1      -8.283   7.324  65.081  1.00  0.00    -0.112 A  
HETATM    6  C   UNL     1      -9.596   9.759  65.216  1.00  0.00    -0.368 A  
HETATM    7  C   UNL     1      -9.819   8.802  66.208  1.00  0.00    -0.342 A  
HETATM    8  C   UNL     1      -9.188   7.565  66.117  1.00  0.00    -0.156 A  
BRANCH   4   9
HETATM    9  O   UNL     1      -7.276   7.979  62.990  1.00  0.00    -0.084 OA 
HETATM   10  C   UNL     1      -7.246   6.604  62.608  1.00  0.00    -0.059 C  
ENDBRANCH   4   9
BRANCH   8  11
HETATM   11  C   UNL     1      -9.480   6.484  67.120  1.00  0.00    -0.150 C  
BRANCH  11  12
HETATM   12  C   UNL     1     -10.294   6.979  68.302  1.00  0.00    -0.194 C  
BRANCH  12  13
HETATM   13  O   UNL     1      -9.683   6.575  69.528  1.00  0.00    -0.151 OA 
BRANCH  13  14
HETATM   14  C   UNL     1     -10.548   6.538  70.680  1.00  0.00    -0.233 C  
HETATM   15  C   UNL     1     -11.993   6.880  70.284  1.00  0.00    -0.257 C  
HETATM   16  C   UNL     1     -12.905   7.103  71.481  1.00  0.00    -0.434 C  
HETATM   17  C   UNL     1     -12.300   8.143  72.411  1.00  0.00    -0.345 C  
HETATM   18  C   UNL     1     -10.989   7.617  72.988  1.00  0.00    -0.457 C  
HETATM   19  C   UNL     1      -9.959   7.356  71.879  1.00  0.00    -0.170 C  
BRANCH  19  20
HETATM   20  N   UNL     1      -8.651   6.784  72.276  1.00  0.00    -0.121 NA 
HETATM   21  C   UNL     1      -8.593   6.125  73.583  1.00  0.00    -0.124 C  
HETATM   22  C   UNL     1      -8.143   7.194  74.565  1.00  0.00    -0.192 C  
HETATM   23  C   UNL     1      -7.302   8.148  73.726  1.00  0.00    -0.154 C  
HETATM   24  C   UNL     1      -7.532   7.729  72.270  1.00  0.00    -0.083 C  
HETATM   25  O   UNL     1      -5.930   8.033  74.091  1.00  0.00    -0.082 OA 
HETATM   26  H   UNL     1      -5.406   8.628  73.567  1.00  0.00     0.000 HD 
ENDBRANCH  19  20
ENDBRANCH  13  14
ENDBRANCH  12  13
ENDBRANCH  11  12
ENDBRANCH   8  11
ENDBRANCH   2   3
TORSDOF 7
ENDMDL
MODEL      252
REMARK 921   NORMALIZED FREE ENERGY PREDICTED BY IDOCK:   -3.39 KCAL/MOL
REMARK 922        TOTAL FREE ENERGY PREDICTED BY IDOCK:   -5.70 KCAL/MOL
REMARK 923 INTER-LIGAND FREE ENERGY PREDICTED BY IDOCK:   -5.13 KCAL/MOL
REMARK 924 INTRA-LIGAND FREE ENERGY PREDICTED BY IDOCK:   -0.57 KCAL/MOL
REMARK 927      BINDING AFFINITY PREDICTED BY RF-SCORE:    0.00 PKD
ROOT
HETATM    1  C   UNL     1     -11.537  16.021  64.133  1.00  0.00    -0.005 C  
HETATM    2  O   UNL     1     -12.546  15.155  64.630  1.00  0.00    -0.264 OA 
ENDROOT
BRANCH   2   3
HETATM    3  C   UNL     1     -12.166  14.234  65.570  1.00  0.00    -0.402 A  
HETATM    4  C   UNL     1     -12.407  12.853  65.563  1.00  0.00    -0.461 A  
HETATM    5  C   UNL     1     -11.961  12.078  66.642  1.00  0.00    -0.082 A  
HETATM    6  C   UNL     1     -11.535  14.815  66.680  1.00  0.00    -0.339 A  
HETATM    7  C   UNL     1     -11.133  14.042  67.770  1.00  0.00    -0.284 A  
HETATM    8  C   UNL     1     -11.382  12.672  67.766  1.00  0.00    -0.349 A  
BRANCH   4   9
HETATM    9  O   UNL     1     -13.069  12.277  64.509  1.00  0.00    -0.791 OA 
HETATM   10  C   UNL     1     -12.271  12.062  63.345  1.00  0.00    -0.519 C  
ENDBRANCH   4   9
BRANCH   8  11
HETATM   11  C   UNL     1     -11.043  11.830  68.963  1.00  0.00    -0.301 C  
BRANCH  11  12
HETATM   12  C   UNL     1     -10.434  10.491  68.589  1.00  0.00    -0.191 C  
BRANCH  12  13
HETATM   13  O   UNL     1      -9.107  10.671  68.094  1.00  0.00    -0.140 OA 
BRANCH  13  14
HETATM   14  C   UNL     1      -8.094   9.838  68.693  1.00  0.00    -0.105 C  
HETATM   15  C   UNL     1      -7.405  10.572  69.854  1.00  0.00    -0.116 C  
HETATM   16  C   UNL     1      -6.166   9.854  70.366  1.00  0.00    -0.094 C  
HETATM   17  C   UNL     1      -5.212   9.573  69.215  1.00  0.00    -0.036 C  
HETATM   18  C   UNL     1      -5.866   8.610  68.228  1.00  0.00    -0.042 C  
HETATM   19  C   UNL     1      -7.138   9.217  67.618  1.00  0.00    -0.082 C  
BRANCH  19  20
HETATM   20  N   UNL     1      -7.921   8.376  66.682  1.00  0.00    -0.096 NA 
HETATM   21  C   UNL     1      -8.851   7.418  67.284  1.00  0.00    -0.124 C  
HETATM   22  C   UNL     1      -8.077   6.116  67.413  1.00  0.00    -0.109 C  
HETATM   23  C   UNL     1      -7.060   6.167  66.280  1.00  0.00    -0.068 C  
HETATM   24  C   UNL     1      -7.124   7.597  65.732  1.00  0.00    -0.061 C  
HETATM   25  O   UNL     1      -7.400   5.211  65.281  1.00  0.00    -0.066 OA 
HETATM   26  H   UNL     1      -6.765   5.243  64.575  1.00  0.00     0.000 HD 
ENDBRANCH  19  20
ENDBRANCH  13  14
ENDBRANCH  12  13
ENDBRANCH  11  12
ENDBRANCH   8  11
ENDBRANCH   2   3
TORSDOF 7
ENDMDL
MODEL      253
REMARK 921   NORMALIZED FREE ENERGY PREDICTED BY IDOCK:   -3.38 KCAL/MOL
REMARK 922        TOTAL FREE ENERGY PREDICTED BY IDOCK:   -5.69 KCAL/MOL
REMARK 923 INTER-LIGAND FREE ENERGY PREDICTED BY IDOCK:   -5.14 KCAL/MOL
REMARK 924 INTRA-LIGAND FREE ENERGY PREDICTED BY IDOCK:   -0.55 KCAL/MOL
REMARK 927      BINDING AFFINITY PREDICTED BY RF-SCORE:    0.00 PKD
ROOT
HETATM    1  C   UNL     1      -9.659   4.001  66.629  1.00  0.00    -0.209 C  
HETATM    2  O   UNL     1     -10.426   5.187  66.776  1.00  0.00    -0.253 OA 
ENDROOT
BRANCH   2   3
HETATM    3  C   UNL     1      -9.734   6.364  66.888  1.00  0.00    -0.153 A  
HETATM    4  C   UNL     1      -9.880   7.353  67.871  1.00  0.00    -0.148 A  
HETATM    5  C   UNL     1      -9.095   8.511  67.794  1.00  0.00    -0.143 A  
HETATM    6  C   UNL     1      -8.849   6.580  65.823  1.00  0.00    -0.097 A  
HETATM    7  C   UNL     1      -8.102   7.756  65.730  1.00  0.00    -0.125 A  
HETATM    8  C   UNL     1      -8.255   8.741  66.701  1.00  0.00    -0.107 A  
BRANCH   4   9
HETATM    9  O   UNL     1     -10.779   7.179  68.892  1.00  0.00    -0.211 OA 
HETATM   10  C   UNL     1     -10.902   8.290  69.779  1.00  0.00    -0.185 C  
ENDBRANCH   4   9
BRANCH   8  11
HETATM   11  C   UNL     1      -7.533  10.053  66.579  1.00  0.00    -0.105 C  
BRANCH  11  12
HETATM   12  C   UNL     1      -7.613  10.890  67.843  1.00  0.00    -0.095 C  
BRANCH  12  13
HETATM   13  O   UNL     1      -7.784  12.269  67.513  1.00  0.00    -0.137 OA 
BRANCH  13  14
HETATM   14  C   UNL     1      -9.029  12.866  67.929  1.00  0.00    -0.193 C  
HETATM   15  C   UNL     1     -10.064  11.782  68.267  1.00  0.00    -0.199 C  
HETATM   16  C   UNL     1     -11.466  12.335  68.470  1.00  0.00    -0.349 C  
HETATM   17  C   UNL     1     -11.877  13.170  67.267  1.00  0.00    -0.420 C  
HETATM   18  C   UNL     1     -10.968  14.390  67.153  1.00  0.00    -0.305 C  
HETATM   19  C   UNL     1      -9.506  13.975  66.930  1.00  0.00    -0.265 C  
BRANCH  19  20
HETATM   20  N   UNL     1      -8.489  15.051  66.859  1.00  0.00    -0.237 NA 
HETATM   21  C   UNL     1      -8.002  15.578  68.136  1.00  0.00    -0.131 C  
HETATM   22  C   UNL     1      -8.884  16.775  68.453  1.00  0.00    -0.237 C  
HETATM   23  C   UNL     1      -9.316  17.298  67.088  1.00  0.00    -0.243 C  
HETATM   24  C   UNL     1      -8.883  16.228  66.081  1.00  0.00    -0.327 C  
HETATM   25  O   UNL     1      -8.684  18.546  66.826  1.00  0.00    -0.262 OA 
HETATM   26  H   UNL     1      -8.953  18.872  65.975  1.00  0.00     0.000 HD 
ENDBRANCH  19  20
ENDBRANCH  13  14
ENDBRANCH  12  13
ENDBRANCH  11  12
ENDBRANCH   8  11
ENDBRANCH   2   3
TORSDOF 7
ENDMDL
MODEL      254
REMARK 921   NORMALIZED FREE ENERGY PREDICTED BY IDOCK:   -3.37 KCAL/MOL
REMARK 922        TOTAL FREE ENERGY PREDICTED BY IDOCK:   -5.67 KCAL/MOL
REMARK 923 INTER-LIGAND FREE ENERGY PREDICTED BY IDOCK:   -5.36 KCAL/MOL
REMARK 924 INTRA-LIGAND FREE ENERGY PREDICTED BY IDOCK:   -0.31 KCAL/MOL
REMARK 927      BINDING AFFINITY PREDICTED BY RF-SCORE:    0.00 PKD
ROOT
HETATM    1  C   UNL     1      -6.008   2.428  65.333  1.00  0.00    -0.019 C  
HETATM    2  O   UNL     1      -7.367   2.505  64.927  1.00  0.00    -0.060 OA 
ENDROOT
BRANCH   2   3
HETATM    3  C   UNL     1      -8.109   3.538  65.439  1.00  0.00    -0.097 A  
HETATM    4  C   UNL     1      -8.054   4.892  65.079  1.00  0.00    -0.107 A  
HETATM    5  C   UNL     1      -8.878   5.807  65.747  1.00  0.00    -0.151 A  
HETATM    6  C   UNL     1      -8.944   3.140  66.493  1.00  0.00    -0.163 A  
HETATM    7  C   UNL     1      -9.730   4.066  67.181  1.00  0.00    -0.207 A  
HETATM    8  C   UNL     1      -9.667   5.411  66.830  1.00  0.00    -0.166 A  
BRANCH   4   9
HETATM    9  O   UNL     1      -7.204   5.305  64.085  1.00  0.00    -0.048 OA 
HETATM   10  C   UNL     1      -7.372   6.662  63.678  1.00  0.00    -0.072 C  
ENDBRANCH   4   9
BRANCH   8  11
HETATM   11  C   UNL     1     -10.432   6.441  67.612  1.00  0.00    -0.284 C  
BRANCH  11  12
HETATM   12  C   UNL     1      -9.771   7.808  67.592  1.00  0.00    -0.155 C  
BRANCH  12  13
HETATM   13  O   UNL     1     -10.757   8.836  67.698  1.00  0.00    -0.234 OA 
BRANCH  13  14
HETATM   14  C   UNL     1     -10.717   9.624  68.904  1.00  0.00    -0.206 C  
HETATM   15  C   UNL     1     -10.965   8.742  70.137  1.00  0.00    -0.236 C  
HETATM   16  C   UNL     1     -11.184   9.543  71.412  1.00  0.00    -0.452 C  
HETATM   17  C   UNL     1     -12.290  10.566  71.203  1.00  0.00    -0.510 C  
HETATM   18  C   UNL     1     -11.857  11.583  70.150  1.00  0.00    -0.440 C  
HETATM   19  C   UNL     1     -11.611  10.907  68.793  1.00  0.00    -0.309 C  
BRANCH  19  20
HETATM   20  N   UNL     1     -11.126  11.756  67.679  1.00  0.00    -0.235 NA 
HETATM   21  C   UNL     1      -9.674  11.884  67.537  1.00  0.00    -0.181 C  
HETATM   22  C   UNL     1      -9.290  13.128  68.323  1.00  0.00    -0.201 C  
HETATM   23  C   UNL     1     -10.529  14.012  68.260  1.00  0.00    -0.244 C  
HETATM   24  C   UNL     1     -11.637  13.129  67.678  1.00  0.00    -0.349 C  
HETATM   25  O   UNL     1     -10.275  15.143  67.432  1.00  0.00    -0.233 OA 
HETATM   26  H   UNL     1     -11.048  15.694  67.393  1.00  0.00     0.000 HD 
ENDBRANCH  19  20
ENDBRANCH  13  14
ENDBRANCH  12  13
ENDBRANCH  11  12
ENDBRANCH   8  11
ENDBRANCH   2   3
TORSDOF 7
ENDMDL
MODEL      255
REMARK 921   NORMALIZED FREE ENERGY PREDICTED BY IDOCK:   -3.37 KCAL/MOL
REMARK 922        TOTAL FREE ENERGY PREDICTED BY IDOCK:   -5.66 KCAL/MOL
REMARK 923 INTER-LIGAND FREE ENERGY PREDICTED BY IDOCK:   -5.14 KCAL/MOL
REMARK 924 INTRA-LIGAND FREE ENERGY PREDICTED BY IDOCK:   -0.52 KCAL/MOL
REMARK 927      BINDING AFFINITY PREDICTED BY RF-SCORE:    0.00 PKD
ROOT
HETATM    1  C   UNL     1      -8.754   3.680  67.232  1.00  0.00    -0.115 C  
HETATM    2  O   UNL     1      -8.894   4.181  65.911  1.00  0.00    -0.116 OA 
ENDROOT
BRANCH   2   3
HETATM    3  C   UNL     1      -8.895   5.543  65.761  1.00  0.00    -0.153 A  
HETATM    4  C   UNL     1      -8.165   6.304  64.837  1.00  0.00    -0.119 A  
HETATM    5  C   UNL     1      -8.279   7.700  64.863  1.00  0.00    -0.098 A  
HETATM    6  C   UNL     1      -9.678   6.198  66.723  1.00  0.00    -0.191 A  
HETATM    7  C   UNL     1      -9.751   7.591  66.769  1.00  0.00    -0.283 A  
HETATM    8  C   UNL     1      -9.017   8.345  65.858  1.00  0.00    -0.223 A  
BRANCH   4   9
HETATM    9  O   UNL     1      -7.355   5.680  63.922  1.00  0.00    -0.052 OA 
HETATM   10  C   UNL     1      -5.966   5.981  64.048  1.00  0.00    -0.025 C  
ENDBRANCH   4   9
BRANCH   8  11
HETATM   11  C   UNL     1      -9.006   9.845  65.941  1.00  0.00    -0.183 C  
BRANCH  11  12
HETATM   12  C   UNL     1      -8.970  10.356  67.370  1.00  0.00    -0.135 C  
BRANCH  12  13
HETATM   13  O   UNL     1     -10.129  11.145  67.643  1.00  0.00    -0.175 OA 
BRANCH  13  14
HETATM   14  C   UNL     1     -10.450  11.330  69.036  1.00  0.00    -0.194 C  
HETATM   15  C   UNL     1     -10.496   9.978  69.766  1.00  0.00    -0.291 C  
HETATM   16  C   UNL     1     -11.070  10.076  71.172  1.00  0.00    -0.270 C  
HETATM   17  C   UNL     1     -12.429  10.757  71.134  1.00  0.00    -0.519 C  
HETATM   18  C   UNL     1     -12.270  12.198  70.655  1.00  0.00    -0.392 C  
HETATM   19  C   UNL     1     -11.703  12.250  69.229  1.00  0.00    -0.330 C  
BRANCH  19  20
HETATM   20  N   UNL     1     -11.434  13.586  68.645  1.00  0.00    -0.285 NA 
HETATM   21  C   UNL     1     -10.034  14.014  68.605  1.00  0.00    -0.203 C  
HETATM   22  C   UNL     1      -9.807  14.803  69.884  1.00  0.00     0.237 C  
HETATM   23  C   UNL     1     -11.174  15.389  70.214  1.00  0.00    -0.309 C  
HETATM   24  C   UNL     1     -12.160  14.694  69.269  1.00  0.00    -0.272 C  
HETATM   25  O   UNL     1     -11.160  16.797  70.009  1.00  0.00    -0.449 OA 
HETATM   26  H   UNL     1     -12.013  17.162  70.215  1.00  0.00     0.000 HD 
ENDBRANCH  19  20
ENDBRANCH  13  14
ENDBRANCH  12  13
ENDBRANCH  11  12
ENDBRANCH   8  11
ENDBRANCH   2   3
TORSDOF 7
ENDMDL
MODEL      256
REMARK 921   NORMALIZED FREE ENERGY PREDICTED BY IDOCK:   -3.36 KCAL/MOL
REMARK 922        TOTAL FREE ENERGY PREDICTED BY IDOCK:   -5.66 KCAL/MOL
REMARK 923 INTER-LIGAND FREE ENERGY PREDICTED BY IDOCK:   -4.37 KCAL/MOL
REMARK 924 INTRA-LIGAND FREE ENERGY PREDICTED BY IDOCK:   -1.29 KCAL/MOL
REMARK 927      BINDING AFFINITY PREDICTED BY RF-SCORE:    0.00 PKD
ROOT
HETATM    1  C   UNL     1      -7.792   6.603  63.313  1.00  0.00    -0.108 C  
HETATM    2  O   UNL     1      -6.531   6.812  63.931  1.00  0.00    -0.037 OA 
ENDROOT
BRANCH   2   3
HETATM    3  C   UNL     1      -6.521   6.938  65.295  1.00  0.00    -0.043 A  
HETATM    4  C   UNL     1      -6.045   8.018  66.052  1.00  0.00    -0.041 A  
HETATM    5  C   UNL     1      -6.093   7.943  67.450  1.00  0.00    -0.050 A  
HETATM    6  C   UNL     1      -6.982   5.789  65.953  1.00  0.00    -0.065 A  
HETATM    7  C   UNL     1      -6.986   5.706  67.347  1.00  0.00    -0.065 A  
HETATM    8  C   UNL     1      -6.503   6.775  68.096  1.00  0.00    -0.053 A  
BRANCH   4   9
HETATM    9  O   UNL     1      -5.544   9.129  65.423  1.00  0.00    -0.048 OA 
HETATM   10  C   UNL     1      -6.502  10.154  65.160  1.00  0.00    -0.121 C  
ENDBRANCH   4   9
BRANCH   8  11
HETATM   11  C   UNL     1      -6.412   6.678  69.593  1.00  0.00    -0.044 C  
BRANCH  11  12
HETATM   12  C   UNL     1      -7.568   5.910  70.207  1.00  0.00    -0.094 C  
BRANCH  12  13
HETATM   13  O   UNL     1      -8.588   6.813  70.639  1.00  0.00    -0.139 OA 
BRANCH  13  14
HETATM   14  C   UNL     1      -9.677   7.020  69.718  1.00  0.00    -0.168 C  
HETATM   15  C   UNL     1      -9.935   5.751  68.890  1.00  0.00    -0.211 C  
HETATM   16  C   UNL     1     -10.898   5.977  67.733  1.00  0.00    -0.380 C  
HETATM   17  C   UNL     1     -10.419   7.138  66.875  1.00  0.00    -0.364 C  
HETATM   18  C   UNL     1     -10.451   8.428  67.691  1.00  0.00    -0.307 C  
HETATM   19  C   UNL     1      -9.505   8.344  68.898  1.00  0.00    -0.147 C  
BRANCH  19  20
HETATM   20  N   UNL     1      -9.469   9.501  69.825  1.00  0.00    -0.195 NA 
HETATM   21  C   UNL     1     -10.271   9.389  71.045  1.00  0.00    -0.299 C  
HETATM   22  C   UNL     1     -11.617  10.015  70.713  1.00  0.00    -0.444 C  
HETATM   23  C   UNL     1     -11.297  11.052  69.644  1.00  0.00    -0.292 C  
HETATM   24  C   UNL     1      -9.846  10.785  69.230  1.00  0.00    -0.138 C  
HETATM   25  O   UNL     1     -11.454  12.362  70.178  1.00  0.00    -0.519 OA 
HETATM   26  H   UNL     1     -11.255  13.009  69.511  1.00  0.00     0.000 HD 
ENDBRANCH  19  20
ENDBRANCH  13  14
ENDBRANCH  12  13
ENDBRANCH  11  12
ENDBRANCH   8  11
ENDBRANCH   2   3
TORSDOF 7
ENDMDL
MODEL      257
REMARK 921   NORMALIZED FREE ENERGY PREDICTED BY IDOCK:   -3.35 KCAL/MOL
REMARK 922        TOTAL FREE ENERGY PREDICTED BY IDOCK:   -5.65 KCAL/MOL
REMARK 923 INTER-LIGAND FREE ENERGY PREDICTED BY IDOCK:   -4.96 KCAL/MOL
REMARK 924 INTRA-LIGAND FREE ENERGY PREDICTED BY IDOCK:   -0.69 KCAL/MOL
REMARK 927      BINDING AFFINITY PREDICTED BY RF-SCORE:    0.00 PKD
ROOT
HETATM    1  C   UNL     1     -10.440   6.291  67.113  1.00  0.00    -0.263 C  
HETATM    2  O   UNL     1      -9.336   6.467  66.238  1.00  0.00    -0.161 OA 
ENDROOT
BRANCH   2   3
HETATM    3  C   UNL     1      -8.665   7.659  66.317  1.00  0.00    -0.152 A  
HETATM    4  C   UNL     1      -7.591   8.091  65.527  1.00  0.00    -0.085 A  
HETATM    5  C   UNL     1      -7.015   9.342  65.786  1.00  0.00    -0.085 A  
HETATM    6  C   UNL     1      -9.102   8.463  67.380  1.00  0.00    -0.152 A  
HETATM    7  C   UNL     1      -8.494   9.688  67.658  1.00  0.00    -0.125 A  
HETATM    8  C   UNL     1      -7.421  10.110  66.879  1.00  0.00    -0.096 A  
BRANCH   4   9
HETATM    9  O   UNL     1      -7.118   7.294  64.515  1.00  0.00    -0.053 OA 
HETATM   10  C   UNL     1      -6.206   7.934  63.623  1.00  0.00    -0.063 C  
ENDBRANCH   4   9
BRANCH   8  11
HETATM   11  C   UNL     1      -6.690  11.380  67.211  1.00  0.00    -0.111 C  
BRANCH  11  12
HETATM   12  C   UNL     1      -6.994  11.889  68.609  1.00  0.00    -0.095 C  
BRANCH  12  13
HETATM   13  O   UNL     1      -8.140  12.742  68.586  1.00  0.00    -0.110 OA 
BRANCH  13  14
HETATM   14  C   UNL     1      -7.942  14.044  68.001  1.00  0.00    -0.152 C  
HETATM   15  C   UNL     1      -7.126  14.944  68.941  1.00  0.00    -0.117 C  
HETATM   16  C   UNL     1      -7.095  16.400  68.501  1.00  0.00    -0.157 C  
HETATM   17  C   UNL     1      -8.512  16.914  68.296  1.00  0.00    -0.229 C  
HETATM   18  C   UNL     1      -9.175  16.153  67.151  1.00  0.00    -0.220 C  
HETATM   19  C   UNL     1      -9.284  14.655  67.469  1.00  0.00    -0.192 C  
BRANCH  19  20
HETATM   20  N   UNL     1      -9.854  13.770  66.426  1.00  0.00    -0.290 NA 
HETATM   21  C   UNL     1     -10.068  14.367  65.105  1.00  0.00    -0.326 C  
HETATM   22  C   UNL     1     -11.501  14.872  65.107  1.00  0.00    -0.357 C  
HETATM   23  C   UNL     1     -12.227  13.946  66.076  1.00  0.00    -0.462 C  
HETATM   24  C   UNL     1     -11.128  13.138  66.775  1.00  0.00    -0.289 C  
HETATM   25  O   UNL     1     -13.121  13.100  65.360  1.00  0.00    -0.618 OA 
HETATM   26  H   UNL     1     -13.573  12.523  65.965  1.00  0.00     0.000 HD 
ENDBRANCH  19  20
ENDBRANCH  13  14
ENDBRANCH  12  13
ENDBRANCH  11  12
ENDBRANCH   8  11
ENDBRANCH   2   3
TORSDOF 7
ENDMDL
MODEL      258
REMARK 921   NORMALIZED FREE ENERGY PREDICTED BY IDOCK:   -3.35 KCAL/MOL
REMARK 922        TOTAL FREE ENERGY PREDICTED BY IDOCK:   -5.64 KCAL/MOL
REMARK 923 INTER-LIGAND FREE ENERGY PREDICTED BY IDOCK:   -4.71 KCAL/MOL
REMARK 924 INTRA-LIGAND FREE ENERGY PREDICTED BY IDOCK:   -0.93 KCAL/MOL
REMARK 927      BINDING AFFINITY PREDICTED BY RF-SCORE:    0.00 PKD
ROOT
HETATM    1  C   UNL     1     -10.985  16.638  69.325  1.00  0.00    -0.261 C  
HETATM    2  O   UNL     1      -9.759  17.280  69.007  1.00  0.00    -0.263 OA 
ENDROOT
BRANCH   2   3
HETATM    3  C   UNL     1      -8.709  16.473  68.654  1.00  0.00    -0.244 A  
HETATM    4  C   UNL     1      -7.937  16.534  67.485  1.00  0.00    -0.158 A  
HETATM    5  C   UNL     1      -6.919  15.591  67.292  1.00  0.00    -0.206 A  
HETATM    6  C   UNL     1      -8.482  15.439  69.573  1.00  0.00    -0.213 A  
HETATM    7  C   UNL     1      -7.494  14.478  69.352  1.00  0.00    -0.068 A  
HETATM    8  C   UNL     1      -6.735  14.534  68.186  1.00  0.00    -0.129 A  
BRANCH   4   9
HETATM    9  O   UNL     1      -8.180  17.509  66.552  1.00  0.00    -0.242 OA 
HETATM   10  C   UNL     1      -7.279  18.615  66.589  1.00  0.00    -0.221 C  
ENDBRANCH   4   9
BRANCH   8  11
HETATM   11  C   UNL     1      -5.728  13.463  67.878  1.00  0.00    -0.129 C  
BRANCH  11  12
HETATM   12  C   UNL     1      -6.292  12.356  67.006  1.00  0.00     0.017 C  
BRANCH  12  13
HETATM   13  O   UNL     1      -6.895  11.346  67.816  1.00  0.00    -0.069 OA 
BRANCH  13  14
HETATM   14  C   UNL     1      -7.989  10.626  67.213  1.00  0.00    -0.116 C  
HETATM   15  C   UNL     1      -7.605  10.133  65.809  1.00  0.00    -0.134 C  
HETATM   16  C   UNL     1      -8.787   9.587  65.022  1.00  0.00    -0.232 C  
HETATM   17  C   UNL     1      -9.909  10.613  64.987  1.00  0.00    -0.353 C  
HETATM   18  C   UNL     1     -10.433  10.852  66.400  1.00  0.00    -0.307 C  
HETATM   19  C   UNL     1      -9.335  11.421  67.311  1.00  0.00    -0.167 C  
BRANCH  19  20
HETATM   20  N   UNL     1      -9.674  11.652  68.735  1.00  0.00    -0.147 NA 
HETATM   21  C   UNL     1      -9.872  10.460  69.563  1.00  0.00    -0.184 C  
HETATM   22  C   UNL     1     -11.363  10.165  69.514  1.00  0.00    -0.260 C  
HETATM   23  C   UNL     1     -12.010  11.527  69.295  1.00  0.00    -0.330 C  
HETATM   24  C   UNL     1     -10.858  12.483  68.965  1.00  0.00    -0.137 C  
HETATM   25  O   UNL     1     -12.700  11.930  70.473  1.00  0.00    -0.155 OA 
HETATM   26  H   UNL     1     -13.104  12.780  70.336  1.00  0.00     0.000 HD 
ENDBRANCH  19  20
ENDBRANCH  13  14
ENDBRANCH  12  13
ENDBRANCH  11  12
ENDBRANCH   8  11
ENDBRANCH   2   3
TORSDOF 7
ENDMDL
MODEL      259
REMARK 921   NORMALIZED FREE ENERGY PREDICTED BY IDOCK:   -3.34 KCAL/MOL
REMARK 922        TOTAL FREE ENERGY PREDICTED BY IDOCK:   -5.64 KCAL/MOL
REMARK 923 INTER-LIGAND FREE ENERGY PREDICTED BY IDOCK:   -4.71 KCAL/MOL
REMARK 924 INTRA-LIGAND FREE ENERGY PREDICTED BY IDOCK:   -0.93 KCAL/MOL
REMARK 927      BINDING AFFINITY PREDICTED BY RF-SCORE:    0.00 PKD
ROOT
HETATM    1  C   UNL     1     -11.152   5.163  73.160  1.00  0.00    -0.326 C  
HETATM    2  O   UNL     1     -11.085   6.541  73.496  1.00  0.00    -0.157 OA 
ENDROOT
BRANCH   2   3
HETATM    3  C   UNL     1     -10.866   7.420  72.468  1.00  0.00    -0.283 A  
HETATM    4  C   UNL     1     -11.751   7.776  71.441  1.00  0.00    -0.282 A  
HETATM    5  C   UNL     1     -11.325   8.676  70.456  1.00  0.00    -0.241 A  
HETATM    6  C   UNL     1      -9.559   7.930  72.455  1.00  0.00    -0.270 A  
HETATM    7  C   UNL     1      -9.129   8.793  71.445  1.00  0.00    -0.313 A  
HETATM    8  C   UNL     1     -10.006   9.136  70.421  1.00  0.00    -0.263 A  
BRANCH   4   9
HETATM    9  O   UNL     1     -13.016   7.246  71.411  1.00  0.00    -0.371 OA 
HETATM   10  C   UNL     1     -14.053   8.148  71.794  1.00  0.00    -0.439 C  
ENDBRANCH   4   9
BRANCH   8  11
HETATM   11  C   UNL     1      -9.544   9.989  69.274  1.00  0.00    -0.227 C  
BRANCH  11  12
HETATM   12  C   UNL     1      -8.517   9.295  68.398  1.00  0.00    -0.120 C  
BRANCH  12  13
HETATM   13  O   UNL     1      -9.151   8.320  67.569  1.00  0.00    -0.136 OA 
BRANCH  13  14
HETATM   14  C   UNL     1      -8.275   7.543  66.728  1.00  0.00    -0.124 C  
HETATM   15  C   UNL     1      -8.397   7.986  65.261  1.00  0.00    -0.151 C  
HETATM   16  C   UNL     1      -7.693   7.049  64.292  1.00  0.00    -0.117 C  
HETATM   17  C   UNL     1      -8.172   5.622  64.505  1.00  0.00    -0.125 C  
HETATM   18  C   UNL     1      -7.770   5.147  65.899  1.00  0.00    -0.091 C  
HETATM   19  C   UNL     1      -8.426   6.006  66.989  1.00  0.00    -0.108 C  
BRANCH  19  20
HETATM   20  N   UNL     1      -8.084   5.705  68.400  1.00  0.00    -0.102 NA 
HETATM   21  C   UNL     1      -7.055   4.687  68.623  1.00  0.00    -0.053 C  
HETATM   22  C   UNL     1      -7.802   3.373  68.784  1.00  0.00    -0.056 C  
HETATM   23  C   UNL     1      -9.156   3.776  69.355  1.00  0.00    -0.132 C  
HETATM   24  C   UNL     1      -9.214   5.303  69.240  1.00  0.00    -0.114 C  
HETATM   25  O   UNL     1      -9.256   3.351  70.710  1.00  0.00    -0.105 OA 
HETATM   26  H   UNL     1     -10.101   3.603  71.066  1.00  0.00     0.000 HD 
ENDBRANCH  19  20
ENDBRANCH  13  14
ENDBRANCH  12  13
ENDBRANCH  11  12
ENDBRANCH   8  11
ENDBRANCH   2   3
TORSDOF 7
ENDMDL
MODEL      260
REMARK 921   NORMALIZED FREE ENERGY PREDICTED BY IDOCK:   -3.32 KCAL/MOL
REMARK 922        TOTAL FREE ENERGY PREDICTED BY IDOCK:   -5.60 KCAL/MOL
REMARK 923 INTER-LIGAND FREE ENERGY PREDICTED BY IDOCK:   -4.31 KCAL/MOL
REMARK 924 INTRA-LIGAND FREE ENERGY PREDICTED BY IDOCK:   -1.29 KCAL/MOL
REMARK 927      BINDING AFFINITY PREDICTED BY RF-SCORE:    0.00 PKD
ROOT
HETATM    1  C   UNL     1      -7.906   6.645  63.574  1.00  0.00    -0.109 C  
HETATM    2  O   UNL     1      -7.371   7.819  64.165  1.00  0.00    -0.078 OA 
ENDROOT
BRANCH   2   3
HETATM    3  C   UNL     1      -7.379   7.884  65.534  1.00  0.00    -0.076 A  
HETATM    4  C   UNL     1      -8.227   8.644  66.351  1.00  0.00    -0.111 A  
HETATM    5  C   UNL     1      -8.054   8.599  67.740  1.00  0.00    -0.107 A  
HETATM    6  C   UNL     1      -6.344   7.141  66.122  1.00  0.00    -0.044 A  
HETATM    7  C   UNL     1      -6.153   7.136  67.504  1.00  0.00    -0.041 A  
HETATM    8  C   UNL     1      -6.989   7.900  68.313  1.00  0.00    -0.073 A  
BRANCH   4   9
HETATM    9  O   UNL     1      -9.211   9.416  65.788  1.00  0.00    -0.184 OA 
HETATM   10  C   UNL     1      -9.416  10.680  66.418  1.00  0.00    -0.171 C  
ENDBRANCH   4   9
BRANCH   8  11
HETATM   11  C   UNL     1      -6.751   7.986  69.794  1.00  0.00    -0.040 C  
BRANCH  11  12
HETATM   12  C   UNL     1      -6.774   6.629  70.474  1.00  0.00    -0.057 C  
BRANCH  12  13
HETATM   13  O   UNL     1      -7.989   6.464  71.208  1.00  0.00    -0.109 OA 
BRANCH  13  14
HETATM   14  C   UNL     1      -9.070   5.826  70.499  1.00  0.00    -0.147 C  
HETATM   15  C   UNL     1      -8.526   4.891  69.408  1.00  0.00    -0.092 C  
HETATM   16  C   UNL     1      -9.605   4.381  68.464  1.00  0.00    -0.208 C  
HETATM   17  C   UNL     1     -10.386   5.551  67.884  1.00  0.00    -0.240 C  
HETATM   18  C   UNL     1     -11.130   6.277  69.002  1.00  0.00    -0.446 C  
HETATM   19  C   UNL     1     -10.152   6.860  70.033  1.00  0.00    -0.182 C  
BRANCH  19  20
HETATM   20  N   UNL     1     -10.727   7.545  71.215  1.00  0.00    -0.224 NA 
HETATM   21  C   UNL     1     -10.956   6.721  72.404  1.00  0.00    -0.246 C  
HETATM   22  C   UNL     1     -12.393   6.234  72.299  1.00  0.00    -0.147 C  
HETATM   23  C   UNL     1     -13.104   7.325  71.507  1.00  0.00    -0.384 C  
HETATM   24  C   UNL     1     -11.995   8.238  70.975  1.00  0.00    -0.241 C  
HETATM   25  O   UNL     1     -14.000   8.034  72.357  1.00  0.00    -0.547 OA 
HETATM   26  H   UNL     1     -14.443   8.713  71.863  1.00  0.00     0.000 HD 
ENDBRANCH  19  20
ENDBRANCH  13  14
ENDBRANCH  12  13
ENDBRANCH  11  12
ENDBRANCH   8  11
ENDBRANCH   2   3
TORSDOF 7
ENDMDL
MODEL      261
REMARK 921   NORMALIZED FREE ENERGY PREDICTED BY IDOCK:   -3.31 KCAL/MOL
REMARK 922        TOTAL FREE ENERGY PREDICTED BY IDOCK:   -5.59 KCAL/MOL
REMARK 923 INTER-LIGAND FREE ENERGY PREDICTED BY IDOCK:   -4.92 KCAL/MOL
REMARK 924 INTRA-LIGAND FREE ENERGY PREDICTED BY IDOCK:   -0.67 KCAL/MOL
REMARK 927      BINDING AFFINITY PREDICTED BY RF-SCORE:    0.00 PKD
ROOT
HETATM    1  C   UNL     1      -9.209   3.928  67.301  1.00  0.00    -0.176 C  
HETATM    2  O   UNL     1      -9.144   4.729  66.130  1.00  0.00    -0.121 OA 
ENDROOT
BRANCH   2   3
HETATM    3  C   UNL     1      -9.402   6.067  66.278  1.00  0.00    -0.145 A  
HETATM    4  C   UNL     1      -8.612   7.144  65.853  1.00  0.00    -0.148 A  
HETATM    5  C   UNL     1      -9.037   8.450  66.130  1.00  0.00    -0.238 A  
HETATM    6  C   UNL     1     -10.568   6.319  67.016  1.00  0.00    -0.386 A  
HETATM    7  C   UNL     1     -10.961   7.623  67.324  1.00  0.00    -0.122 A  
HETATM    8  C   UNL     1     -10.170   8.690  66.911  1.00  0.00    -0.367 A  
BRANCH   4   9
HETATM    9  O   UNL     1      -7.442   6.912  65.176  1.00  0.00    -0.083 OA 
HETATM   10  C   UNL     1      -6.257   7.271  65.885  1.00  0.00    -0.038 C  
ENDBRANCH   4   9
BRANCH   8  11
HETATM   11  C   UNL     1     -10.519  10.097  67.305  1.00  0.00    -0.313 C  
BRANCH  11  12
HETATM   12  C   UNL     1     -10.097  10.435  68.724  1.00  0.00    -0.187 C  
BRANCH  12  13
HETATM   13  O   UNL     1      -9.870   9.238  69.470  1.00  0.00    -0.169 OA 
BRANCH  13  14
HETATM   14  C   UNL     1      -8.877   9.325  70.511  1.00  0.00    -0.241 C  
HETATM   15  C   UNL     1      -7.502   9.678  69.921  1.00  0.00    -0.127 C  
HETATM   16  C   UNL     1      -6.367   9.541  70.924  1.00  0.00    -0.089 C  
HETATM   17  C   UNL     1      -6.388   8.154  71.549  1.00  0.00    -0.043 C  
HETATM   18  C   UNL     1      -7.671   7.972  72.356  1.00  0.00    -0.146 C  
HETATM   19  C   UNL     1      -8.911   8.076  71.457  1.00  0.00    -0.143 C  
BRANCH  19  20
HETATM   20  N   UNL     1     -10.240   7.980  72.106  1.00  0.00    -0.223 NA 
HETATM   21  C   UNL     1     -10.250   7.679  73.539  1.00  0.00    -0.272 C  
HETATM   22  C   UNL     1     -10.367   6.167  73.642  1.00  0.00    -0.275 C  
HETATM   23  C   UNL     1     -11.120   5.759  72.382  1.00  0.00    -0.281 C  
HETATM   24  C   UNL     1     -11.158   7.012  71.501  1.00  0.00    -0.243 C  
HETATM   25  O   UNL     1     -12.431   5.320  72.721  1.00  0.00    -0.345 OA 
HETATM   26  H   UNL     1     -12.900   5.066  71.934  1.00  0.00     0.000 HD 
ENDBRANCH  19  20
ENDBRANCH  13  14
ENDBRANCH  12  13
ENDBRANCH  11  12
ENDBRANCH   8  11
ENDBRANCH   2   3
TORSDOF 7
ENDMDL
MODEL      262
REMARK 921   NORMALIZED FREE ENERGY PREDICTED BY IDOCK:   -3.30 KCAL/MOL
REMARK 922        TOTAL FREE ENERGY PREDICTED BY IDOCK:   -5.58 KCAL/MOL
REMARK 923 INTER-LIGAND FREE ENERGY PREDICTED BY IDOCK:   -5.14 KCAL/MOL
REMARK 924 INTRA-LIGAND FREE ENERGY PREDICTED BY IDOCK:   -0.44 KCAL/MOL
REMARK 927      BINDING AFFINITY PREDICTED BY RF-SCORE:    0.00 PKD
ROOT
HETATM    1  C   UNL     1      -6.597   2.327  68.059  1.00  0.00    -0.029 C  
HETATM    2  O   UNL     1      -7.776   2.394  67.271  1.00  0.00    -0.064 OA 
ENDROOT
BRANCH   2   3
HETATM    3  C   UNL     1      -8.370   3.623  67.146  1.00  0.00    -0.099 A  
HETATM    4  C   UNL     1      -9.316   4.024  66.191  1.00  0.00    -0.171 A  
HETATM    5  C   UNL     1      -9.783   5.344  66.209  1.00  0.00    -0.181 A  
HETATM    6  C   UNL     1      -7.874   4.565  68.059  1.00  0.00    -0.081 A  
HETATM    7  C   UNL     1      -8.314   5.890  68.041  1.00  0.00    -0.111 A  
HETATM    8  C   UNL     1      -9.244   6.288  67.086  1.00  0.00    -0.125 A  
BRANCH   4   9
HETATM    9  O   UNL     1      -9.772   3.127  65.259  1.00  0.00    -0.105 OA 
HETATM   10  C   UNL     1      -9.009   3.074  64.054  1.00  0.00    -0.102 C  
ENDBRANCH   4   9
BRANCH   8  11
HETATM   11  C   UNL     1      -9.667   7.726  66.986  1.00  0.00    -0.259 C  
BRANCH  11  12
HETATM   12  C   UNL     1     -10.441   8.200  68.203  1.00  0.00    -0.170 C  
BRANCH  12  13
HETATM   13  O   UNL     1     -10.683   9.606  68.119  1.00  0.00    -0.229 OA 
BRANCH  13  14
HETATM   14  C   UNL     1      -9.582  10.406  67.644  1.00  0.00    -0.149 C  
HETATM   15  C   UNL     1      -8.483  10.507  68.714  1.00  0.00    -0.141 C  
HETATM   16  C   UNL     1      -7.413  11.535  68.378  1.00  0.00    -0.109 C  
HETATM   17  C   UNL     1      -8.057  12.881  68.083  1.00  0.00    -0.158 C  
HETATM   18  C   UNL     1      -8.927  12.773  66.834  1.00  0.00    -0.213 C  
HETATM   19  C   UNL     1     -10.069  11.767  67.038  1.00  0.00    -0.209 C  
BRANCH  19  20
HETATM   20  N   UNL     1     -10.969  11.506  65.890  1.00  0.00    -0.272 NA 
HETATM   21  C   UNL     1     -10.337  11.398  64.573  1.00  0.00    -0.313 C  
HETATM   22  C   UNL     1     -10.388  12.795  63.975  1.00  0.00    -0.392 C  
HETATM   23  C   UNL     1     -11.621  13.430  64.604  1.00  0.00    -0.355 C  
HETATM   24  C   UNL     1     -12.055  12.473  65.719  1.00  0.00    -0.378 C  
HETATM   25  O   UNL     1     -12.641  13.584  63.623  1.00  0.00    -0.722 OA 
HETATM   26  H   UNL     1     -13.410  13.980  64.016  1.00  0.00     0.000 HD 
ENDBRANCH  19  20
ENDBRANCH  13  14
ENDBRANCH  12  13
ENDBRANCH  11  12
ENDBRANCH   8  11
ENDBRANCH   2   3
TORSDOF 7
ENDMDL
MODEL      263
REMARK 921   NORMALIZED FREE ENERGY PREDICTED BY IDOCK:   -3.28 KCAL/MOL
REMARK 922        TOTAL FREE ENERGY PREDICTED BY IDOCK:   -5.54 KCAL/MOL
REMARK 923 INTER-LIGAND FREE ENERGY PREDICTED BY IDOCK:   -4.99 KCAL/MOL
REMARK 924 INTRA-LIGAND FREE ENERGY PREDICTED BY IDOCK:   -0.55 KCAL/MOL
REMARK 927      BINDING AFFINITY PREDICTED BY RF-SCORE:    0.00 PKD
ROOT
HETATM    1  C   UNL     1      -9.321  10.441  62.765  1.00  0.00    -0.317 C  
HETATM    2  O   UNL     1      -8.973  10.979  64.031  1.00  0.00    -0.146 OA 
ENDROOT
BRANCH   2   3
HETATM    3  C   UNL     1      -9.494  10.356  65.135  1.00  0.00    -0.249 A  
HETATM    4  C   UNL     1     -10.241  10.933  66.172  1.00  0.00    -0.249 A  
HETATM    5  C   UNL     1     -10.660  10.128  67.239  1.00  0.00    -0.321 A  
HETATM    6  C   UNL     1      -9.138   9.002  65.217  1.00  0.00    -0.226 A  
HETATM    7  C   UNL     1      -9.523   8.217  66.305  1.00  0.00    -0.271 A  
HETATM    8  C   UNL     1     -10.255   8.795  67.339  1.00  0.00    -0.318 A  
BRANCH   4   9
HETATM    9  O   UNL     1     -10.553  12.268  66.132  1.00  0.00    -0.239 OA 
HETATM   10  C   UNL     1     -11.920  12.556  65.837  1.00  0.00    -0.409 C  
ENDBRANCH   4   9
BRANCH   8  11
HETATM   11  C   UNL     1     -10.606   7.999  68.564  1.00  0.00    -0.144 C  
BRANCH  11  12
HETATM   12  C   UNL     1      -9.536   6.987  68.936  1.00  0.00    -0.140 C  
BRANCH  12  13
HETATM   13  O   UNL     1      -9.257   7.055  70.335  1.00  0.00    -0.156 OA 
BRANCH  13  14
HETATM   14  C   UNL     1      -8.890   5.811  70.965  1.00  0.00    -0.138 C  
HETATM   15  C   UNL     1     -10.017   4.777  70.821  1.00  0.00    -0.291 C  
HETATM   16  C   UNL     1      -9.802   3.534  71.671  1.00  0.00    -0.227 C  
HETATM   17  C   UNL     1      -9.563   3.928  73.120  1.00  0.00    -0.145 C  
HETATM   18  C   UNL     1      -8.267   4.728  73.229  1.00  0.00    -0.100 C  
HETATM   19  C   UNL     1      -8.349   6.030  72.419  1.00  0.00    -0.116 C  
BRANCH  19  20
HETATM   20  N   UNL     1      -7.142   6.890  72.376  1.00  0.00    -0.070 NA 
HETATM   21  C   UNL     1      -5.993   6.448  73.169  1.00  0.00    -0.053 C  
HETATM   22  C   UNL     1      -6.131   7.137  74.517  1.00  0.00    -0.082 C  
HETATM   23  C   UNL     1      -6.879   8.427  74.206  1.00  0.00    -0.147 C  
HETATM   24  C   UNL     1      -7.361   8.287  72.758  1.00  0.00    -0.104 C  
HETATM   25  O   UNL     1      -6.006   9.542  74.359  1.00  0.00    -0.331 OA 
HETATM   26  H   UNL     1      -6.473  10.346  74.165  1.00  0.00     0.000 HD 
ENDBRANCH  19  20
ENDBRANCH  13  14
ENDBRANCH  12  13
ENDBRANCH  11  12
ENDBRANCH   8  11
ENDBRANCH   2   3
TORSDOF 7
ENDMDL
MODEL      264
REMARK 921   NORMALIZED FREE ENERGY PREDICTED BY IDOCK:   -3.27 KCAL/MOL
REMARK 922        TOTAL FREE ENERGY PREDICTED BY IDOCK:   -5.53 KCAL/MOL
REMARK 923 INTER-LIGAND FREE ENERGY PREDICTED BY IDOCK:   -5.16 KCAL/MOL
REMARK 924 INTRA-LIGAND FREE ENERGY PREDICTED BY IDOCK:   -0.37 KCAL/MOL
REMARK 927      BINDING AFFINITY PREDICTED BY RF-SCORE:    0.00 PKD
ROOT
HETATM    1  C   UNL     1      -8.305   6.743  69.984  1.00  0.00    -0.135 C  
HETATM    2  O   UNL     1      -8.016   7.802  70.885  1.00  0.00    -0.094 OA 
ENDROOT
BRANCH   2   3
HETATM    3  C   UNL     1      -7.419   8.918  70.359  1.00  0.00    -0.081 A  
HETATM    4  C   UNL     1      -6.155   9.439  70.669  1.00  0.00    -0.065 A  
HETATM    5  C   UNL     1      -5.733  10.619  70.042  1.00  0.00    -0.067 A  
HETATM    6  C   UNL     1      -8.251   9.617  69.473  1.00  0.00    -0.136 A  
HETATM    7  C   UNL     1      -7.839  10.814  68.885  1.00  0.00    -0.136 A  
HETATM    8  C   UNL     1      -6.589  11.336  69.203  1.00  0.00    -0.088 A  
BRANCH   4   9
HETATM    9  O   UNL     1      -5.349   8.795  71.573  1.00  0.00    -0.034 OA 
HETATM   10  C   UNL     1      -5.870   8.730  72.901  1.00  0.00    -0.075 C  
ENDBRANCH   4   9
BRANCH   8  11
HETATM   11  C   UNL     1      -6.156  12.667  68.657  1.00  0.00    -0.067 C  
BRANCH  11  12
HETATM   12  C   UNL     1      -7.227  13.734  68.786  1.00  0.00    -0.106 C  
BRANCH  12  13
HETATM   13  O   UNL     1      -7.821  13.996  67.514  1.00  0.00    -0.161 OA 
BRANCH  13  14
HETATM   14  C   UNL     1      -8.532  15.245  67.396  1.00  0.00    -0.179 C  
HETATM   15  C   UNL     1      -8.202  16.171  68.577  1.00  0.00    -0.186 C  
HETATM   16  C   UNL     1      -9.102  17.395  68.649  1.00  0.00    -0.261 C  
HETATM   17  C   UNL     1     -10.562  16.970  68.640  1.00  0.00    -0.362 C  
HETATM   18  C   UNL     1     -10.894  16.295  67.312  1.00  0.00    -0.216 C  
HETATM   19  C   UNL     1     -10.057  15.023  67.111  1.00  0.00    -0.239 C  
BRANCH  19  20
HETATM   20  N   UNL     1     -10.223  14.285  65.836  1.00  0.00    -0.310 NA 
HETATM   21  C   UNL     1     -10.781  15.038  64.711  1.00  0.00    -0.330 C  
HETATM   22  C   UNL     1     -12.281  14.798  64.756  1.00  0.00    -0.356 C  
HETATM   23  C   UNL     1     -12.424  13.423  65.397  1.00  0.00    -0.494 C  
HETATM   24  C   UNL     1     -11.030  13.067  65.924  1.00  0.00    -0.271 C  
HETATM   25  O   UNL     1     -12.870  12.480  64.427  1.00  0.00    -0.714 OA 
HETATM   26  H   UNL     1     -12.959  11.623  64.827  1.00  0.00     0.000 HD 
ENDBRANCH  19  20
ENDBRANCH  13  14
ENDBRANCH  12  13
ENDBRANCH  11  12
ENDBRANCH   8  11
ENDBRANCH   2   3
TORSDOF 7
ENDMDL
MODEL      265
REMARK 921   NORMALIZED FREE ENERGY PREDICTED BY IDOCK:   -3.26 KCAL/MOL
REMARK 922        TOTAL FREE ENERGY PREDICTED BY IDOCK:   -5.52 KCAL/MOL
REMARK 923 INTER-LIGAND FREE ENERGY PREDICTED BY IDOCK:   -4.95 KCAL/MOL
REMARK 924 INTRA-LIGAND FREE ENERGY PREDICTED BY IDOCK:   -0.57 KCAL/MOL
REMARK 927      BINDING AFFINITY PREDICTED BY RF-SCORE:    0.00 PKD
ROOT
HETATM    1  C   UNL     1     -10.018  18.285  66.106  1.00  0.00    -0.308 C  
HETATM    2  O   UNL     1     -10.746  17.104  65.802  1.00  0.00    -0.312 OA 
ENDROOT
BRANCH   2   3
HETATM    3  C   UNL     1     -10.196  15.915  66.204  1.00  0.00    -0.324 A  
HETATM    4  C   UNL     1     -10.849  14.689  66.392  1.00  0.00    -0.315 A  
HETATM    5  C   UNL     1     -10.110  13.586  66.841  1.00  0.00    -0.256 A  
HETATM    6  C   UNL     1      -8.834  16.023  66.521  1.00  0.00    -0.340 A  
HETATM    7  C   UNL     1      -8.116  14.930  67.009  1.00  0.00    -0.200 A  
HETATM    8  C   UNL     1      -8.769  13.717  67.206  1.00  0.00    -0.223 A  
BRANCH   4   9
HETATM    9  O   UNL     1     -12.192  14.580  66.135  1.00  0.00    -0.353 OA 
HETATM   10  C   UNL     1     -12.519  14.243  64.787  1.00  0.00    -0.374 C  
ENDBRANCH   4   9
BRANCH   8  11
HETATM   11  C   UNL     1      -8.044  12.550  67.814  1.00  0.00    -0.164 C  
BRANCH  11  12
HETATM   12  C   UNL     1      -8.983  11.461  68.301  1.00  0.00    -0.175 C  
BRANCH  12  13
HETATM   13  O   UNL     1      -8.245  10.423  68.947  1.00  0.00    -0.114 OA 
BRANCH  13  14
HETATM   14  C   UNL     1      -8.966   9.201  69.199  1.00  0.00    -0.144 C  
HETATM   15  C   UNL     1      -9.397   9.119  70.672  1.00  0.00    -0.312 C  
HETATM   16  C   UNL     1      -9.940   7.753  71.063  1.00  0.00    -0.191 C  
HETATM   17  C   UNL     1      -8.940   6.669  70.694  1.00  0.00    -0.151 C  
HETATM   18  C   UNL     1      -8.767   6.623  69.178  1.00  0.00    -0.130 C  
HETATM   19  C   UNL     1      -8.207   7.949  68.642  1.00  0.00    -0.127 C  
BRANCH  19  20
HETATM   20  N   UNL     1      -8.039   8.081  67.175  1.00  0.00    -0.115 NA 
HETATM   21  C   UNL     1      -8.354   6.900  66.370  1.00  0.00    -0.125 C  
HETATM   22  C   UNL     1      -7.042   6.151  66.202  1.00  0.00    -0.067 C  
HETATM   23  C   UNL     1      -5.976   7.238  66.272  1.00  0.00    -0.036 C  
HETATM   24  C   UNL     1      -6.705   8.502  66.739  1.00  0.00    -0.061 C  
HETATM   25  O   UNL     1      -5.386   7.421  64.989  1.00  0.00    -0.028 OA 
HETATM   26  H   UNL     1      -4.721   8.098  65.033  1.00  0.00     0.000 HD 
ENDBRANCH  19  20
ENDBRANCH  13  14
ENDBRANCH  12  13
ENDBRANCH  11  12
ENDBRANCH   8  11
ENDBRANCH   2   3
TORSDOF 7
ENDMDL
MODEL      266
REMARK 921   NORMALIZED FREE ENERGY PREDICTED BY IDOCK:   -3.26 KCAL/MOL
REMARK 922        TOTAL FREE ENERGY PREDICTED BY IDOCK:   -5.51 KCAL/MOL
REMARK 923 INTER-LIGAND FREE ENERGY PREDICTED BY IDOCK:   -3.90 KCAL/MOL
REMARK 924 INTRA-LIGAND FREE ENERGY PREDICTED BY IDOCK:   -1.61 KCAL/MOL
REMARK 927      BINDING AFFINITY PREDICTED BY RF-SCORE:    0.00 PKD
ROOT
HETATM    1  C   UNL     1      -8.439   2.259  65.112  1.00  0.00    -0.100 C  
HETATM    2  O   UNL     1      -9.127   2.592  66.309  1.00  0.00    -0.147 OA 
ENDROOT
BRANCH   2   3
HETATM    3  C   UNL     1      -8.649   3.660  67.022  1.00  0.00    -0.109 A  
HETATM    4  C   UNL     1      -9.210   4.941  67.126  1.00  0.00    -0.123 A  
HETATM    5  C   UNL     1      -8.547   5.915  67.885  1.00  0.00    -0.105 A  
HETATM    6  C   UNL     1      -7.414   3.400  67.634  1.00  0.00    -0.058 A  
HETATM    7  C   UNL     1      -6.740   4.389  68.352  1.00  0.00    -0.047 A  
HETATM    8  C   UNL     1      -7.292   5.663  68.445  1.00  0.00    -0.076 A  
BRANCH   4   9
HETATM    9  O   UNL     1     -10.391   5.227  66.491  1.00  0.00    -0.230 OA 
HETATM   10  C   UNL     1     -11.093   6.356  67.010  1.00  0.00    -0.329 C  
ENDBRANCH   4   9
BRANCH   8  11
HETATM   11  C   UNL     1      -6.547   6.770  69.134  1.00  0.00    -0.048 C  
BRANCH  11  12
HETATM   12  C   UNL     1      -6.097   6.396  70.535  1.00  0.00    -0.031 C  
BRANCH  12  13
HETATM   13  O   UNL     1      -7.046   6.853  71.499  1.00  0.00    -0.072 OA 
BRANCH  13  14
HETATM   14  C   UNL     1      -7.967   5.861  71.994  1.00  0.00    -0.107 C  
HETATM   15  C   UNL     1      -7.390   4.448  71.816  1.00  0.00    -0.068 C  
HETATM   16  C   UNL     1      -8.406   3.348  72.085  1.00  0.00    -0.081 C  
HETATM   17  C   UNL     1      -9.653   3.572  71.244  1.00  0.00    -0.242 C  
HETATM   18  C   UNL     1     -10.334   4.871  71.669  1.00  0.00    -0.241 C  
HETATM   19  C   UNL     1      -9.416   6.081  71.438  1.00  0.00    -0.156 C  
BRANCH  19  20
HETATM   20  N   UNL     1      -9.914   7.412  71.859  1.00  0.00    -0.170 NA 
HETATM   21  C   UNL     1     -11.187   7.437  72.582  1.00  0.00    -0.332 C  
HETATM   22  C   UNL     1     -12.259   7.646  71.525  1.00  0.00    -0.351 C  
HETATM   23  C   UNL     1     -11.553   8.425  70.422  1.00  0.00    -0.064 C  
HETATM   24  C   UNL     1     -10.064   8.389  70.779  1.00  0.00    -0.193 C  
HETATM   25  O   UNL     1     -12.047   9.760  70.380  1.00  0.00    -0.419 OA 
HETATM   26  H   UNL     1     -11.606  10.245  69.692  1.00  0.00     0.000 HD 
ENDBRANCH  19  20
ENDBRANCH  13  14
ENDBRANCH  12  13
ENDBRANCH  11  12
ENDBRANCH   8  11
ENDBRANCH   2   3
TORSDOF 7
ENDMDL
MODEL      267
REMARK 921   NORMALIZED FREE ENERGY PREDICTED BY IDOCK:   -3.21 KCAL/MOL
REMARK 922        TOTAL FREE ENERGY PREDICTED BY IDOCK:   -5.44 KCAL/MOL
REMARK 923 INTER-LIGAND FREE ENERGY PREDICTED BY IDOCK:   -5.57 KCAL/MOL
REMARK 924 INTRA-LIGAND FREE ENERGY PREDICTED BY IDOCK:    0.13 KCAL/MOL
REMARK 927      BINDING AFFINITY PREDICTED BY RF-SCORE:    0.00 PKD
ROOT
HETATM    1  C   UNL     1      -6.860   7.653  65.047  1.00  0.00    -0.051 C  
HETATM    2  O   UNL     1      -8.045   8.017  64.353  1.00  0.00    -0.148 OA 
ENDROOT
BRANCH   2   3
HETATM    3  C   UNL     1      -8.903   8.871  64.994  1.00  0.00    -0.140 A  
HETATM    4  C   UNL     1      -9.100  10.236  64.742  1.00  0.00    -0.219 A  
HETATM    5  C   UNL     1     -10.007  10.951  65.536  1.00  0.00    -0.315 A  
HETATM    6  C   UNL     1      -9.575   8.267  66.067  1.00  0.00    -0.151 A  
HETATM    7  C   UNL     1     -10.444   8.997  66.879  1.00  0.00    -0.293 A  
HETATM    8  C   UNL     1     -10.630  10.354  66.634  1.00  0.00    -0.245 A  
BRANCH   4   9
HETATM    9  O   UNL     1      -8.411  10.854  63.729  1.00  0.00    -0.054 OA 
HETATM   10  C   UNL     1      -9.102  10.911  62.482  1.00  0.00    -0.326 C  
ENDBRANCH   4   9
BRANCH   8  11
HETATM   11  C   UNL     1     -11.489  11.184  67.546  1.00  0.00    -0.296 C  
BRANCH  11  12
HETATM   12  C   UNL     1     -11.011  11.164  68.986  1.00  0.00    -0.235 C  
BRANCH  12  13
HETATM   13  O   UNL     1     -10.450   9.889  69.304  1.00  0.00    -0.197 OA 
BRANCH  13  14
HETATM   14  C   UNL     1     -11.245   9.050  70.166  1.00  0.00    -0.171 C  
HETATM   15  C   UNL     1     -12.021   9.899  71.185  1.00  0.00    -0.473 C  
HETATM   16  C   UNL     1     -12.679   9.070  72.278  1.00  0.00    -0.457 C  
HETATM   17  C   UNL     1     -11.648   8.170  72.942  1.00  0.00    -0.239 C  
HETATM   18  C   UNL     1     -11.115   7.162  71.928  1.00  0.00    -0.268 C  
HETATM   19  C   UNL     1     -10.407   7.868  70.763  1.00  0.00    -0.203 C  
BRANCH  19  20
HETATM   20  N   UNL     1      -9.886   7.023  69.662  1.00  0.00    -0.164 NA 
HETATM   21  C   UNL     1     -10.588   5.762  69.414  1.00  0.00    -0.313 C  
HETATM   22  C   UNL     1      -9.854   4.712  70.233  1.00  0.00    -0.314 C  
HETATM   23  C   UNL     1      -8.423   5.229  70.314  1.00  0.00    -0.110 C  
HETATM   24  C   UNL     1      -8.471   6.662  69.773  1.00  0.00    -0.132 C  
HETATM   25  O   UNL     1      -7.566   4.405  69.531  1.00  0.00    -0.054 OA 
HETATM   26  H   UNL     1      -6.673   4.727  69.582  1.00  0.00     0.000 HD 
ENDBRANCH  19  20
ENDBRANCH  13  14
ENDBRANCH  12  13
ENDBRANCH  11  12
ENDBRANCH   8  11
ENDBRANCH   2   3
TORSDOF 7
ENDMDL
MODEL      268
REMARK 921   NORMALIZED FREE ENERGY PREDICTED BY IDOCK:   -3.20 KCAL/MOL
REMARK 922        TOTAL FREE ENERGY PREDICTED BY IDOCK:   -5.44 KCAL/MOL
REMARK 923 INTER-LIGAND FREE ENERGY PREDICTED BY IDOCK:   -7.36 KCAL/MOL
REMARK 924 INTRA-LIGAND FREE ENERGY PREDICTED BY IDOCK:    1.93 KCAL/MOL
REMARK 927      BINDING AFFINITY PREDICTED BY RF-SCORE:    0.00 PKD
ROOT
HETATM    1  C   UNL     1      -8.102   5.934  68.650  1.00  0.00    -0.103 C  
HETATM    2  O   UNL     1      -9.460   6.107  69.027  1.00  0.00    -0.127 OA 
ENDROOT
BRANCH   2   3
HETATM    3  C   UNL     1      -9.968   7.377  68.953  1.00  0.00    -0.169 A  
HETATM    4  C   UNL     1     -10.555   8.126  69.983  1.00  0.00    -0.239 A  
HETATM    5  C   UNL     1     -11.049   9.406  69.698  1.00  0.00    -0.163 A  
HETATM    6  C   UNL     1      -9.938   7.903  67.654  1.00  0.00    -0.234 A  
HETATM    7  C   UNL     1     -10.471   9.162  67.370  1.00  0.00    -0.339 A  
HETATM    8  C   UNL     1     -11.063   9.899  68.392  1.00  0.00    -0.193 A  
BRANCH   4   9
HETATM    9  O   UNL     1     -10.639   7.604  71.249  1.00  0.00    -0.218 OA 
HETATM   10  C   UNL     1     -10.331   8.522  72.298  1.00  0.00    -0.332 C  
ENDBRANCH   4   9
BRANCH   8  11
HETATM   11  C   UNL     1     -11.724  11.216  68.099  1.00  0.00    -0.304 C  
BRANCH  11  12
HETATM   12  C   UNL     1     -11.052  12.383  68.801  1.00  0.00    -0.262 C  
BRANCH  12  13
HETATM   13  O   UNL     1     -12.013  13.393  69.110  1.00  0.00    -0.317 OA 
BRANCH  13  14
HETATM   14  C   UNL     1     -12.013  13.865  70.472  1.00  0.00    -0.314 C  
HETATM   15  C   UNL     1     -13.229  13.319  71.236  1.00  0.00    -0.226 C  
HETATM   16  C   UNL     1     -13.427  13.972  72.595  1.00  0.00    -0.650 C  
HETATM   17  C   UNL     1     -13.472  15.485  72.445  1.00  0.00    -0.606 C  
HETATM   18  C   UNL     1     -12.125  15.993  71.938  1.00  0.00    -0.590 C  
HETATM   19  C   UNL     1     -11.799  15.416  70.553  1.00  0.00    -0.339 C  
BRANCH  19  20
HETATM   20  N   UNL     1     -10.492  15.769  69.951  1.00  0.00    -0.307 NA 
HETATM   21  C   UNL     1     -10.434  17.024  69.198  1.00  0.00    -0.323 C  
HETATM   22  C   UNL     1     -10.718  16.652  67.752  1.00  0.00    -0.327 C  
HETATM   23  C   UNL     1     -10.219  15.218  67.626  1.00  0.00    -0.242 C  
HETATM   24  C   UNL     1      -9.925  14.756  69.057  1.00  0.00    -0.218 C  
HETATM   25  O   UNL     1      -9.049  15.181  66.816  1.00  0.00    -0.222 OA 
HETATM   26  H   UNL     1      -8.738  14.286  66.738  1.00  0.00     0.000 HD 
ENDBRANCH  19  20
ENDBRANCH  13  14
ENDBRANCH  12  13
ENDBRANCH  11  12
ENDBRANCH   8  11
ENDBRANCH   2   3
TORSDOF 7
ENDMDL
MODEL      269
REMARK 921   NORMALIZED FREE ENERGY PREDICTED BY IDOCK:   -3.20 KCAL/MOL
REMARK 922        TOTAL FREE ENERGY PREDICTED BY IDOCK:   -5.43 KCAL/MOL
REMARK 923 INTER-LIGAND FREE ENERGY PREDICTED BY IDOCK:   -4.86 KCAL/MOL
REMARK 924 INTRA-LIGAND FREE ENERGY PREDICTED BY IDOCK:   -0.57 KCAL/MOL
REMARK 927      BINDING AFFINITY PREDICTED BY RF-SCORE:    0.00 PKD
ROOT
HETATM    1  C   UNL     1     -13.731   9.538  72.584  1.00  0.00    -0.179 C  
HETATM    2  O   UNL     1     -13.379  10.881  72.288  1.00  0.00    -0.380 OA 
ENDROOT
BRANCH   2   3
HETATM    3  C   UNL     1     -12.449  11.076  71.301  1.00  0.00    -0.370 A  
HETATM    4  C   UNL     1     -12.236  12.234  70.541  1.00  0.00    -0.300 A  
HETATM    5  C   UNL     1     -11.249  12.225  69.547  1.00  0.00    -0.185 A  
HETATM    6  C   UNL     1     -11.708   9.920  71.012  1.00  0.00    -0.466 A  
HETATM    7  C   UNL     1     -10.757   9.907  69.991  1.00  0.00    -0.338 A  
HETATM    8  C   UNL     1     -10.555  11.055  69.231  1.00  0.00    -0.236 A  
BRANCH   4   9
HETATM    9  O   UNL     1     -12.988  13.357  70.776  1.00  0.00    -0.188 OA 
HETATM   10  C   UNL     1     -12.252  14.482  71.257  1.00  0.00    -0.355 C  
ENDBRANCH   4   9
BRANCH   8  11
HETATM   11  C   UNL     1      -9.603  11.043  68.068  1.00  0.00    -0.175 C  
BRANCH  11  12
HETATM   12  C   UNL     1     -10.286  10.724  66.750  1.00  0.00    -0.230 C  
BRANCH  12  13
HETATM   13  O   UNL     1     -10.316   9.312  66.537  1.00  0.00    -0.258 OA 
BRANCH  13  14
HETATM   14  C   UNL     1      -9.087   8.719  66.072  1.00  0.00    -0.213 C  
HETATM   15  C   UNL     1      -8.420   9.613  65.015  1.00  0.00    -0.160 C  
HETATM   16  C   UNL     1      -7.258   8.936  64.304  1.00  0.00    -0.091 C  
HETATM   17  C   UNL     1      -7.705   7.599  63.731  1.00  0.00    -0.126 C  
HETATM   18  C   UNL     1      -8.096   6.657  64.867  1.00  0.00    -0.115 C  
HETATM   19  C   UNL     1      -9.279   7.217  65.670  1.00  0.00     0.235 C  
BRANCH  19  20
HETATM   20  N   UNL     1      -9.739   6.442  66.847  1.00  0.00    -0.147 NA 
HETATM   21  C   UNL     1      -9.049   6.702  68.113  1.00  0.00    -0.119 C  
HETATM   22  C   UNL     1      -7.927   5.678  68.190  1.00  0.00    -0.097 C  
HETATM   23  C   UNL     1      -8.446   4.489  67.392  1.00  0.00    -0.104 C  
HETATM   24  C   UNL     1      -9.710   4.987  66.682  1.00  0.00    -0.177 C  
HETATM   25  O   UNL     1      -8.734   3.405  68.269  1.00  0.00    -0.089 OA 
HETATM   26  H   UNL     1      -9.058   2.664  67.771  1.00  0.00     0.000 HD 
ENDBRANCH  19  20
ENDBRANCH  13  14
ENDBRANCH  12  13
ENDBRANCH  11  12
ENDBRANCH   8  11
ENDBRANCH   2   3
TORSDOF 7
ENDMDL
MODEL      270
REMARK 921   NORMALIZED FREE ENERGY PREDICTED BY IDOCK:   -3.19 KCAL/MOL
REMARK 922        TOTAL FREE ENERGY PREDICTED BY IDOCK:   -5.42 KCAL/MOL
REMARK 923 INTER-LIGAND FREE ENERGY PREDICTED BY IDOCK:   -5.05 KCAL/MOL
REMARK 924 INTRA-LIGAND FREE ENERGY PREDICTED BY IDOCK:   -0.37 KCAL/MOL
REMARK 927      BINDING AFFINITY PREDICTED BY RF-SCORE:    0.00 PKD
ROOT
HETATM    1  C   UNL     1      -5.192   4.150  65.490  1.00  0.00    -0.009 C  
HETATM    2  O   UNL     1      -6.425   4.365  64.821  1.00  0.00    -0.037 OA 
ENDROOT
BRANCH   2   3
HETATM    3  C   UNL     1      -6.956   5.626  64.887  1.00  0.00    -0.056 A  
HETATM    4  C   UNL     1      -8.241   6.036  64.505  1.00  0.00    -0.095 A  
HETATM    5  C   UNL     1      -8.587   7.389  64.620  1.00  0.00     0.236 A  
HETATM    6  C   UNL     1      -6.031   6.586  65.322  1.00  0.00    -0.033 A  
HETATM    7  C   UNL     1      -6.370   7.938  65.393  1.00  0.00    -0.041 A  
HETATM    8  C   UNL     1      -7.643   8.344  65.004  1.00  0.00    -0.094 A  
BRANCH   4   9
HETATM    9  O   UNL     1      -9.141   5.117  64.028  1.00  0.00    -0.004 OA 
HETATM   10  C   UNL     1      -8.967   4.764  62.656  1.00  0.00    -0.108 C  
ENDBRANCH   4   9
BRANCH   8  11
HETATM   11  C   UNL     1      -8.006   9.802  64.983  1.00  0.00    -0.131 C  
BRANCH  11  12
HETATM   12  C   UNL     1      -8.969  10.155  63.864  1.00  0.00    -0.244 C  
BRANCH  12  13
HETATM   13  O   UNL     1     -10.284  10.350  64.385  1.00  0.00    -0.333 OA 
BRANCH  13  14
HETATM   14  C   UNL     1     -10.360  10.958  65.690  1.00  0.00    -0.242 C  
HETATM   15  C   UNL     1     -10.636   9.897  66.767  1.00  0.00    -0.214 C  
HETATM   16  C   UNL     1     -10.975  10.495  68.124  1.00  0.00    -0.330 C  
HETATM   17  C   UNL     1     -12.119  11.488  67.986  1.00  0.00     0.014 C  
HETATM   18  C   UNL     1     -11.677  12.664  67.118  1.00  0.00    -0.438 C  
HETATM   19  C   UNL     1     -11.312  12.202  65.700  1.00  0.00    -0.347 C  
BRANCH  19  20
HETATM   20  N   UNL     1     -10.806  13.224  64.753  1.00  0.00    -0.339 NA 
HETATM   21  C   UNL     1     -10.046  14.334  65.331  1.00  0.00    -0.351 C  
HETATM   22  C   UNL     1     -11.059  15.437  65.591  1.00  0.00    -0.272 C  
HETATM   23  C   UNL     1     -12.138  15.214  64.539  1.00  0.00    -0.301 C  
HETATM   24  C   UNL     1     -11.827  13.851  63.911  1.00  0.00    -0.278 C  
HETATM   25  O   UNL     1     -12.093  16.256  63.570  1.00  0.00    -1.004 OA 
HETATM   26  H   UNL     1     -12.767  16.116  62.914  1.00  0.00     0.000 HD 
ENDBRANCH  19  20
ENDBRANCH  13  14
ENDBRANCH  12  13
ENDBRANCH  11  12
ENDBRANCH   8  11
ENDBRANCH   2   3
TORSDOF 7
ENDMDL
MODEL      271
REMARK 921   NORMALIZED FREE ENERGY PREDICTED BY IDOCK:   -3.19 KCAL/MOL
REMARK 922        TOTAL FREE ENERGY PREDICTED BY IDOCK:   -5.42 KCAL/MOL
REMARK 923 INTER-LIGAND FREE ENERGY PREDICTED BY IDOCK:   -4.75 KCAL/MOL
REMARK 924 INTRA-LIGAND FREE ENERGY PREDICTED BY IDOCK:   -0.67 KCAL/MOL
REMARK 927      BINDING AFFINITY PREDICTED BY RF-SCORE:    0.00 PKD
ROOT
HETATM    1  C   UNL     1     -10.509  18.199  66.995  1.00  0.00    -0.370 C  
HETATM    2  O   UNL     1     -11.002  17.184  67.857  1.00  0.00    -0.343 OA 
ENDROOT
BRANCH   2   3
HETATM    3  C   UNL     1     -10.307  16.004  67.887  1.00  0.00    -0.269 A  
HETATM    4  C   UNL     1     -10.753  14.736  67.489  1.00  0.00    -0.269 A  
HETATM    5  C   UNL     1      -9.896  13.637  67.630  1.00  0.00    -0.228 A  
HETATM    6  C   UNL     1      -9.037  16.133  68.468  1.00  0.00    -0.208 A  
HETATM    7  C   UNL     1      -8.206  15.026  68.644  1.00  0.00    -0.156 A  
HETATM    8  C   UNL     1      -8.655  13.766  68.257  1.00  0.00    -0.175 A  
BRANCH   4   9
HETATM    9  O   UNL     1     -12.013  14.585  66.967  1.00  0.00    -0.404 OA 
HETATM   10  C   UNL     1     -12.137  13.551  65.990  1.00  0.00    -0.445 C  
ENDBRANCH   4   9
BRANCH   8  11
HETATM   11  C   UNL     1      -7.820  12.545  68.517  1.00  0.00    -0.108 C  
BRANCH  11  12
HETATM   12  C   UNL     1      -6.986  12.134  67.317  1.00  0.00    -0.148 C  
BRANCH  12  13
HETATM   13  O   UNL     1      -6.556  10.778  67.454  1.00  0.00    -0.067 OA 
BRANCH  13  14
HETATM   14  C   UNL     1      -7.401   9.786  66.838  1.00  0.00    -0.091 C  
HETATM   15  C   UNL     1      -8.174  10.389  65.655  1.00  0.00    -0.158 C  
HETATM   16  C   UNL     1      -9.264   9.472  65.121  1.00  0.00    -0.305 C  
HETATM   17  C   UNL     1     -10.185   9.041  66.252  1.00  0.00    -0.237 C  
HETATM   18  C   UNL     1      -9.403   8.204  67.261  1.00  0.00    -0.174 C  
HETATM   19  C   UNL     1      -8.266   9.018  67.896  1.00  0.00    -0.110 C  
BRANCH  19  20
HETATM   20  N   UNL     1      -7.376   8.323  68.856  1.00  0.00    -0.088 NA 
HETATM   21  C   UNL     1      -6.298   7.514  68.283  1.00  0.00    -0.044 C  
HETATM   22  C   UNL     1      -6.857   6.105  68.166  1.00  0.00    -0.067 C  
HETATM   23  C   UNL     1      -7.887   6.013  69.285  1.00  0.00    -0.103 C  
HETATM   24  C   UNL     1      -8.056   7.443  69.809  1.00  0.00    -0.127 C  
HETATM   25  O   UNL     1      -7.419   5.137  70.304  1.00  0.00    -0.063 OA 
HETATM   26  H   UNL     1      -8.062   5.080  71.001  1.00  0.00     0.000 HD 
ENDBRANCH  19  20
ENDBRANCH  13  14
ENDBRANCH  12  13
ENDBRANCH  11  12
ENDBRANCH   8  11
ENDBRANCH   2   3
TORSDOF 7
ENDMDL
MODEL      272
REMARK 921   NORMALIZED FREE ENERGY PREDICTED BY IDOCK:   -3.19 KCAL/MOL
REMARK 922        TOTAL FREE ENERGY PREDICTED BY IDOCK:   -5.41 KCAL/MOL
REMARK 923 INTER-LIGAND FREE ENERGY PREDICTED BY IDOCK:   -5.13 KCAL/MOL
REMARK 924 INTRA-LIGAND FREE ENERGY PREDICTED BY IDOCK:   -0.29 KCAL/MOL
REMARK 927      BINDING AFFINITY PREDICTED BY RF-SCORE:    0.00 PKD
ROOT
HETATM    1  C   UNL     1     -11.546  14.441  67.370  1.00  0.00    -0.375 C  
HETATM    2  O   UNL     1     -12.177  13.308  66.794  1.00  0.00    -0.363 OA 
ENDROOT
BRANCH   2   3
HETATM    3  C   UNL     1     -11.435  12.158  66.714  1.00  0.00    -0.356 A  
HETATM    4  C   UNL     1     -10.733  11.668  65.604  1.00  0.00    -0.278 A  
HETATM    5  C   UNL     1     -10.056  10.446  65.712  1.00  0.00    -0.329 A  
HETATM    6  C   UNL     1     -11.488  11.391  67.886  1.00  0.00    -0.361 A  
HETATM    7  C   UNL     1     -10.846  10.154  67.971  1.00  0.00    -0.320 A  
HETATM    8  C   UNL     1     -10.159   9.664  66.864  1.00  0.00    -0.290 A  
BRANCH   4   9
HETATM    9  O   UNL     1     -10.715  12.382  64.433  1.00  0.00    -0.297 OA 
HETATM   10  C   UNL     1     -10.209  11.671  63.304  1.00  0.00    -0.407 C  
ENDBRANCH   4   9
BRANCH   8  11
HETATM   11  C   UNL     1      -9.535   8.298  66.897  1.00  0.00    -0.240 C  
BRANCH  11  12
HETATM   12  C   UNL     1      -8.556   8.123  68.044  1.00  0.00    -0.129 C  
BRANCH  12  13
HETATM   13  O   UNL     1      -9.128   7.298  69.061  1.00  0.00    -0.135 OA 
BRANCH  13  14
HETATM   14  C   UNL     1      -8.239   6.338  69.665  1.00  0.00    -0.124 C  
HETATM   15  C   UNL     1      -6.886   6.316  68.936  1.00  0.00    -0.066 C  
HETATM   16  C   UNL     1      -5.996   5.157  69.359  1.00  0.00    -0.021 C  
HETATM   17  C   UNL     1      -6.749   3.843  69.218  1.00  0.00    -0.044 C  
HETATM   18  C   UNL     1      -7.933   3.822  70.181  1.00  0.00    -0.050 C  
HETATM   19  C   UNL     1      -8.931   4.945  69.859  1.00  0.00    -0.099 C  
BRANCH  19  20
HETATM   20  N   UNL     1     -10.108   5.093  70.746  1.00  0.00    -0.219 NA 
HETATM   21  C   UNL     1     -10.125   6.266  71.623  1.00  0.00    -0.188 C  
HETATM   22  C   UNL     1      -9.507   5.810  72.935  1.00  0.00    -0.160 C  
HETATM   23  C   UNL     1      -9.828   4.323  73.006  1.00  0.00    -0.135 C  
HETATM   24  C   UNL     1     -10.373   3.951  71.623  1.00  0.00     0.089 C  
HETATM   25  O   UNL     1     -10.791   4.084  74.028  1.00  0.00    -0.228 OA 
HETATM   26  H   UNL     1     -10.991   3.156  74.072  1.00  0.00     0.000 HD 
ENDBRANCH  19  20
ENDBRANCH  13  14
ENDBRANCH  12  13
ENDBRANCH  11  12
ENDBRANCH   8  11
ENDBRANCH   2   3
TORSDOF 7
ENDMDL
MODEL      273
REMARK 921   NORMALIZED FREE ENERGY PREDICTED BY IDOCK:   -3.18 KCAL/MOL
REMARK 922        TOTAL FREE ENERGY PREDICTED BY IDOCK:   -5.41 KCAL/MOL
REMARK 923 INTER-LIGAND FREE ENERGY PREDICTED BY IDOCK:   -4.26 KCAL/MOL
REMARK 924 INTRA-LIGAND FREE ENERGY PREDICTED BY IDOCK:   -1.15 KCAL/MOL
REMARK 927      BINDING AFFINITY PREDICTED BY RF-SCORE:    0.00 PKD
ROOT
HETATM    1  C   UNL     1      -6.907   8.700  72.040  1.00  0.00    -0.068 C  
HETATM    2  O   UNL     1      -8.318   8.777  72.175  1.00  0.00    -0.351 OA 
ENDROOT
BRANCH   2   3
HETATM    3  C   UNL     1      -9.027   9.162  71.068  1.00  0.00    -0.214 A  
HETATM    4  C   UNL     1     -10.387   8.944  70.803  1.00  0.00    -0.226 A  
HETATM    5  C   UNL     1     -10.923   9.392  69.588  1.00  0.00    -0.216 A  
HETATM    6  C   UNL     1      -8.227   9.773  70.092  1.00  0.00    -0.202 A  
HETATM    7  C   UNL     1      -8.761  10.177  68.867  1.00  0.00    -0.149 A  
HETATM    8  C   UNL     1     -10.108   9.949  68.601  1.00  0.00    -0.191 A  
BRANCH   4   9
HETATM    9  O   UNL     1     -11.172   8.302  71.726  1.00  0.00    -0.253 OA 
HETATM   10  C   UNL     1     -12.218   7.505  71.173  1.00  0.00    -0.301 C  
ENDBRANCH   4   9
BRANCH   8  11
HETATM   11  C   UNL     1     -10.689  10.291  67.258  1.00  0.00    -0.323 C  
BRANCH  11  12
HETATM   12  C   UNL     1      -9.688  10.144  66.127  1.00  0.00    -0.218 C  
BRANCH  12  13
HETATM   13  O   UNL     1      -9.646   8.789  65.676  1.00  0.00    -0.184 OA 
BRANCH  13  14
HETATM   14  C   UNL     1      -8.339   8.182  65.628  1.00  0.00    -0.143 C  
HETATM   15  C   UNL     1      -7.794   8.181  64.191  1.00  0.00    -0.142 C  
HETATM   16  C   UNL     1      -6.539   7.338  64.028  1.00  0.00    -0.044 C  
HETATM   17  C   UNL     1      -6.783   5.931  64.553  1.00  0.00    -0.046 C  
HETATM   18  C   UNL     1      -7.049   5.982  66.055  1.00  0.00    -0.074 C  
HETATM   19  C   UNL     1      -8.310   6.802  66.368  1.00  0.00    -0.121 C  
BRANCH  19  20
HETATM   20  N   UNL     1      -8.668   6.994  67.794  1.00  0.00    -0.122 NA 
HETATM   21  C   UNL     1      -7.642   6.649  68.780  1.00  0.00    -0.104 C  
HETATM   22  C   UNL     1      -7.910   5.203  69.166  1.00  0.00    -0.081 C  
HETATM   23  C   UNL     1      -9.410   5.031  68.967  1.00  0.00    -0.126 C  
HETATM   24  C   UNL     1      -9.876   6.291  68.230  1.00  0.00    -0.126 C  
HETATM   25  O   UNL     1     -10.054   4.897  70.230  1.00  0.00    -0.235 OA 
HETATM   26  H   UNL     1     -10.990   4.789  70.105  1.00  0.00     0.000 HD 
ENDBRANCH  19  20
ENDBRANCH  13  14
ENDBRANCH  12  13
ENDBRANCH  11  12
ENDBRANCH   8  11
ENDBRANCH   2   3
TORSDOF 7
ENDMDL
MODEL      274
REMARK 921   NORMALIZED FREE ENERGY PREDICTED BY IDOCK:   -3.18 KCAL/MOL
REMARK 922        TOTAL FREE ENERGY PREDICTED BY IDOCK:   -5.41 KCAL/MOL
REMARK 923 INTER-LIGAND FREE ENERGY PREDICTED BY IDOCK:   -4.91 KCAL/MOL
REMARK 924 INTRA-LIGAND FREE ENERGY PREDICTED BY IDOCK:   -0.50 KCAL/MOL
REMARK 927      BINDING AFFINITY PREDICTED BY RF-SCORE:    0.00 PKD
ROOT
HETATM    1  C   UNL     1      -7.016   2.762  67.389  1.00  0.00    -0.049 C  
HETATM    2  O   UNL     1      -7.063   4.022  66.736  1.00  0.00    -0.061 OA 
ENDROOT
BRANCH   2   3
HETATM    3  C   UNL     1      -7.787   5.012  67.347  1.00  0.00    -0.095 A  
HETATM    4  C   UNL     1      -8.936   5.655  66.866  1.00  0.00    -0.112 A  
HETATM    5  C   UNL     1      -9.517   6.674  67.632  1.00  0.00    -0.129 A  
HETATM    6  C   UNL     1      -7.215   5.440  68.554  1.00  0.00    -0.074 A  
HETATM    7  C   UNL     1      -7.776   6.486  69.290  1.00  0.00    -0.101 A  
HETATM    8  C   UNL     1      -8.910   7.130  68.805  1.00  0.00    -0.130 A  
BRANCH   4   9
HETATM    9  O   UNL     1      -9.478   5.282  65.663  1.00  0.00    -0.152 OA 
HETATM   10  C   UNL     1     -10.842   4.867  65.722  1.00  0.00    -0.066 C  
ENDBRANCH   4   9
BRANCH   8  11
HETATM   11  C   UNL     1      -9.482   8.316  69.528  1.00  0.00    -0.162 C  
BRANCH  11  12
HETATM   12  C   UNL     1     -10.793   8.796  68.931  1.00  0.00    -0.008 C  
BRANCH  12  13
HETATM   13  O   UNL     1     -10.560   9.888  68.041  1.00  0.00    -0.211 OA 
BRANCH  13  14
HETATM   14  C   UNL     1     -10.662  11.204  68.620  1.00  0.00    -0.198 C  
HETATM   15  C   UNL     1     -11.484  11.164  69.917  1.00  0.00    -0.386 C  
HETATM   16  C   UNL     1     -11.840  12.546  70.444  1.00  0.00    -0.246 C  
HETATM   17  C   UNL     1     -12.521  13.361  69.354  1.00  0.00     0.046 C  
HETATM   18  C   UNL     1     -11.545  13.599  68.205  1.00  0.00    -0.367 C  
HETATM   19  C   UNL     1     -11.106  12.274  67.564  1.00  0.00    -0.275 C  
BRANCH  19  20
HETATM   20  N   UNL     1     -10.109  12.336  66.469  1.00  0.00    -0.212 NA 
HETATM   21  C   UNL     1      -9.916  13.640  65.832  1.00  0.00    -0.291 C  
HETATM   22  C   UNL     1     -10.858  13.662  64.639  1.00  0.00    -0.416 C  
HETATM   23  C   UNL     1     -10.989  12.198  64.235  1.00  0.00    -0.339 C  
HETATM   24  C   UNL     1     -10.337  11.398  65.368  1.00  0.00    -0.279 C  
HETATM   25  O   UNL     1     -10.328  11.978  62.994  1.00  0.00    -0.594 OA 
HETATM   26  H   UNL     1     -10.410  11.065  62.742  1.00  0.00     0.000 HD 
ENDBRANCH  19  20
ENDBRANCH  13  14
ENDBRANCH  12  13
ENDBRANCH  11  12
ENDBRANCH   8  11
ENDBRANCH   2   3
TORSDOF 7
ENDMDL
MODEL      275
REMARK 921   NORMALIZED FREE ENERGY PREDICTED BY IDOCK:   -3.14 KCAL/MOL
REMARK 922        TOTAL FREE ENERGY PREDICTED BY IDOCK:   -5.35 KCAL/MOL
REMARK 923 INTER-LIGAND FREE ENERGY PREDICTED BY IDOCK:   -4.92 KCAL/MOL
REMARK 924 INTRA-LIGAND FREE ENERGY PREDICTED BY IDOCK:   -0.43 KCAL/MOL
REMARK 927      BINDING AFFINITY PREDICTED BY RF-SCORE:    0.00 PKD
ROOT
HETATM    1  C   UNL     1      -8.798   3.689  74.526  1.00  0.00    -0.090 C  
HETATM    2  O   UNL     1      -9.681   3.966  73.449  1.00  0.00    -0.110 OA 
ENDROOT
BRANCH   2   3
HETATM    3  C   UNL     1      -9.476   5.135  72.764  1.00  0.00    -0.142 A  
HETATM    4  C   UNL     1      -8.742   5.319  71.584  1.00  0.00    -0.134 A  
HETATM    5  C   UNL     1      -8.621   6.610  71.052  1.00  0.00    -0.137 A  
HETATM    6  C   UNL     1     -10.025   6.251  73.412  1.00  0.00    -0.194 A  
HETATM    7  C   UNL     1      -9.863   7.539  72.897  1.00  0.00    -0.272 A  
HETATM    8  C   UNL     1      -9.125   7.721  71.732  1.00  0.00    -0.171 A  
BRANCH   4   9
HETATM    9  O   UNL     1      -8.155   4.245  70.966  1.00  0.00    -0.069 OA 
HETATM   10  C   UNL     1      -8.909   3.685  69.892  1.00  0.00    -0.090 C  
ENDBRANCH   4   9
BRANCH   8  11
HETATM   11  C   UNL     1      -8.858   9.102  71.204  1.00  0.00    -0.233 C  
BRANCH  11  12
HETATM   12  C   UNL     1      -8.778   9.150  69.689  1.00  0.00    -0.145 C  
BRANCH  12  13
HETATM   13  O   UNL     1      -9.588  10.213  69.185  1.00  0.00    -0.189 OA 
BRANCH  13  14
HETATM   14  C   UNL     1      -9.024  10.971  68.096  1.00  0.00    -0.152 C  
HETATM   15  C   UNL     1      -7.530  10.653  67.930  1.00  0.00    -0.090 C  
HETATM   16  C   UNL     1      -6.820  11.595  66.969  1.00  0.00    -0.144 C  
HETATM   17  C   UNL     1      -7.059  13.039  67.383  1.00  0.00    -0.124 C  
HETATM   18  C   UNL     1      -8.544  13.370  67.258  1.00  0.00    -0.216 C  
HETATM   19  C   UNL     1      -9.390  12.492  68.192  1.00  0.00    -0.210 C  
BRANCH  19  20
HETATM   20  N   UNL     1     -10.862  12.654  68.142  1.00  0.00    -0.218 NA 
HETATM   21  C   UNL     1     -11.593  11.739  67.263  1.00  0.00    -0.269 C  
HETATM   22  C   UNL     1     -11.718  12.459  65.930  1.00  0.00    -0.476 C  
HETATM   23  C   UNL     1     -11.718  13.938  66.298  1.00  0.00    -0.383 C  
HETATM   24  C   UNL     1     -11.327  13.994  67.779  1.00  0.00    -0.303 C  
HETATM   25  O   UNL     1     -13.012  14.491  66.079  1.00  0.00    -0.357 OA 
HETATM   26  H   UNL     1     -13.011  15.413  66.309  1.00  0.00     0.000 HD 
ENDBRANCH  19  20
ENDBRANCH  13  14
ENDBRANCH  12  13
ENDBRANCH  11  12
ENDBRANCH   8  11
ENDBRANCH   2   3
TORSDOF 7
ENDMDL
MODEL      276
REMARK 921   NORMALIZED FREE ENERGY PREDICTED BY IDOCK:   -3.13 KCAL/MOL
REMARK 922        TOTAL FREE ENERGY PREDICTED BY IDOCK:   -5.34 KCAL/MOL
REMARK 923 INTER-LIGAND FREE ENERGY PREDICTED BY IDOCK:   -4.50 KCAL/MOL
REMARK 924 INTRA-LIGAND FREE ENERGY PREDICTED BY IDOCK:   -0.84 KCAL/MOL
REMARK 927      BINDING AFFINITY PREDICTED BY RF-SCORE:    0.00 PKD
ROOT
HETATM    1  C   UNL     1     -10.476  18.016  66.855  1.00  0.00    -0.341 C  
HETATM    2  O   UNL     1      -9.365  18.261  67.703  1.00  0.00    -0.264 OA 
ENDROOT
BRANCH   2   3
HETATM    3  C   UNL     1      -8.654  17.168  68.126  1.00  0.00    -0.232 A  
HETATM    4  C   UNL     1      -7.333  17.135  68.596  1.00  0.00    -0.238 A  
HETATM    5  C   UNL     1      -6.769  15.903  68.953  1.00  0.00    -0.134 A  
HETATM    6  C   UNL     1      -9.359  15.966  67.973  1.00  0.00    -0.201 A  
HETATM    7  C   UNL     1      -8.773  14.739  68.290  1.00  0.00    -0.170 A  
HETATM    8  C   UNL     1      -7.459  14.707  68.747  1.00  0.00    -0.135 A  
BRANCH   4   9
HETATM    9  O   UNL     1      -6.613  18.297  68.702  1.00  0.00    -0.213 OA 
HETATM   10  C   UNL     1      -5.735  18.358  69.826  1.00  0.00    -0.243 C  
ENDBRANCH   4   9
BRANCH   8  11
HETATM   11  C   UNL     1      -6.774  13.396  69.010  1.00  0.00    -0.108 C  
BRANCH  11  12
HETATM   12  C   UNL     1      -6.587  12.565  67.753  1.00  0.00    -0.121 C  
BRANCH  12  13
HETATM   13  O   UNL     1      -7.123  11.255  67.941  1.00  0.00    -0.074 OA 
BRANCH  13  14
HETATM   14  C   UNL     1      -8.439  11.029  67.396  1.00  0.00    -0.132 C  
HETATM   15  C   UNL     1      -9.471  10.860  68.522  1.00  0.00    -0.185 C  
HETATM   16  C   UNL     1     -10.824  10.374  68.026  1.00  0.00    -0.319 C  
HETATM   17  C   UNL     1     -10.654   9.105  67.204  1.00  0.00    -0.286 C  
HETATM   18  C   UNL     1      -9.843   9.412  65.947  1.00  0.00    -0.362 C  
HETATM   19  C   UNL     1      -8.433   9.907  66.303  1.00  0.00    -0.128 C  
BRANCH  19  20
HETATM   20  N   UNL     1      -7.542  10.303  65.187  1.00  0.00    -0.142 NA 
HETATM   21  C   UNL     1      -8.147  10.367  63.855  1.00  0.00    -0.096 C  
HETATM   22  C   UNL     1      -7.911   9.002  63.229  1.00  0.00    -0.148 C  
HETATM   23  C   UNL     1      -6.627   8.505  63.880  1.00  0.00    -0.076 C  
HETATM   24  C   UNL     1      -6.342   9.479  65.028  1.00  0.00    -0.083 C  
HETATM   25  O   UNL     1      -5.570   8.501  62.926  1.00  0.00    -0.069 OA 
HETATM   26  H   UNL     1      -4.769   8.190  63.332  1.00  0.00     0.000 HD 
ENDBRANCH  19  20
ENDBRANCH  13  14
ENDBRANCH  12  13
ENDBRANCH  11  12
ENDBRANCH   8  11
ENDBRANCH   2   3
TORSDOF 7
ENDMDL
MODEL      277
REMARK 921   NORMALIZED FREE ENERGY PREDICTED BY IDOCK:   -3.12 KCAL/MOL
REMARK 922        TOTAL FREE ENERGY PREDICTED BY IDOCK:   -5.32 KCAL/MOL
REMARK 923 INTER-LIGAND FREE ENERGY PREDICTED BY IDOCK:   -4.56 KCAL/MOL
REMARK 924 INTRA-LIGAND FREE ENERGY PREDICTED BY IDOCK:   -0.77 KCAL/MOL
REMARK 927      BINDING AFFINITY PREDICTED BY RF-SCORE:    0.00 PKD
ROOT
HETATM    1  C   UNL     1      -8.562   7.732  74.267  1.00  0.00    -0.215 C  
HETATM    2  O   UNL     1      -9.786   7.722  73.549  1.00  0.00    -0.300 OA 
ENDROOT
BRANCH   2   3
HETATM    3  C   UNL     1      -9.857   6.900  72.455  1.00  0.00    -0.157 A  
HETATM    4  C   UNL     1     -10.868   6.851  71.484  1.00  0.00    -0.230 A  
HETATM    5  C   UNL     1     -10.774   5.909  70.451  1.00  0.00    -0.373 A  
HETATM    6  C   UNL     1      -8.808   5.971  72.400  1.00  0.00    -0.133 A  
HETATM    7  C   UNL     1      -8.745   5.008  71.392  1.00  0.00    -0.141 A  
HETATM    8  C   UNL     1      -9.755   4.955  70.435  1.00  0.00    -0.284 A  
BRANCH   4   9
HETATM    9  O   UNL     1     -11.928   7.718  71.553  1.00  0.00    -0.281 OA 
HETATM   10  C   UNL     1     -11.706   8.987  70.939  1.00  0.00    -0.276 C  
ENDBRANCH   4   9
BRANCH   8  11
HETATM   11  C   UNL     1      -9.762   3.873  69.392  1.00  0.00    -0.172 C  
BRANCH  11  12
HETATM   12  C   UNL     1      -8.533   3.904  68.502  1.00  0.00    -0.091 C  
BRANCH  12  13
HETATM   13  O   UNL     1      -8.272   5.239  68.064  1.00  0.00    -0.098 OA 
BRANCH  13  14
HETATM   14  C   UNL     1      -8.718   5.562  66.732  1.00  0.00    -0.114 C  
HETATM   15  C   UNL     1      -8.732   4.308  65.845  1.00  0.00    -0.115 C  
HETATM   16  C   UNL     1      -8.951   4.618  64.372  1.00  0.00    -0.142 C  
HETATM   17  C   UNL     1      -7.935   5.648  63.899  1.00  0.00    -0.120 C  
HETATM   18  C   UNL     1      -8.160   6.967  64.634  1.00  0.00    -0.082 C  
HETATM   19  C   UNL     1      -7.958   6.802  66.147  1.00  0.00    -0.110 C  
BRANCH  19  20
HETATM   20  N   UNL     1      -8.201   7.985  67.006  1.00  0.00    -0.115 NA 
HETATM   21  C   UNL     1      -9.464   8.009  67.748  1.00  0.00    -0.145 C  
HETATM   22  C   UNL     1     -10.447   8.760  66.864  1.00  0.00    -0.319 C  
HETATM   23  C   UNL     1      -9.576   9.713  66.055  1.00  0.00    -0.242 C  
HETATM   24  C   UNL     1      -8.131   9.276  66.319  1.00  0.00    -0.107 C  
HETATM   25  O   UNL     1      -9.801  11.053  66.479  1.00  0.00    -0.193 OA 
HETATM   26  H   UNL     1      -9.257  11.647  65.974  1.00  0.00     0.000 HD 
ENDBRANCH  19  20
ENDBRANCH  13  14
ENDBRANCH  12  13
ENDBRANCH  11  12
ENDBRANCH   8  11
ENDBRANCH   2   3
TORSDOF 7
ENDMDL
MODEL      278
REMARK 921   NORMALIZED FREE ENERGY PREDICTED BY IDOCK:   -3.12 KCAL/MOL
REMARK 922        TOTAL FREE ENERGY PREDICTED BY IDOCK:   -5.32 KCAL/MOL
REMARK 923 INTER-LIGAND FREE ENERGY PREDICTED BY IDOCK:   -4.82 KCAL/MOL
REMARK 924 INTRA-LIGAND FREE ENERGY PREDICTED BY IDOCK:   -0.50 KCAL/MOL
REMARK 927      BINDING AFFINITY PREDICTED BY RF-SCORE:    0.00 PKD
ROOT
HETATM    1  C   UNL     1      -9.314   3.836  73.043  1.00  0.00    -0.106 C  
HETATM    2  O   UNL     1      -9.365   3.824  71.624  1.00  0.00    -0.113 OA 
ENDROOT
BRANCH   2   3
HETATM    3  C   UNL     1      -9.201   5.026  70.987  1.00  0.00    -0.147 A  
HETATM    4  C   UNL     1     -10.194   5.952  70.636  1.00  0.00    -0.209 A  
HETATM    5  C   UNL     1      -9.827   7.119  69.954  1.00  0.00    -0.174 A  
HETATM    6  C   UNL     1      -7.874   5.263  70.599  1.00  0.00    -0.089 A  
HETATM    7  C   UNL     1      -7.524   6.408  69.881  1.00  0.00    -0.088 A  
HETATM    8  C   UNL     1      -8.513   7.321  69.525  1.00  0.00    -0.133 A  
BRANCH   4   9
HETATM    9  O   UNL     1     -11.504   5.710  70.963  1.00  0.00    -0.074 OA 
HETATM   10  C   UNL     1     -12.039   6.566  71.973  1.00  0.00    -0.312 C  
ENDBRANCH   4   9
BRANCH   8  11
HETATM   11  C   UNL     1      -8.180   8.515  68.676  1.00  0.00    -0.122 C  
BRANCH  11  12
HETATM   12  C   UNL     1      -9.308   8.903  67.737  1.00  0.00    -0.141 C  
BRANCH  12  13
HETATM   13  O   UNL     1      -9.700  10.257  67.967  1.00  0.00    -0.147 OA 
BRANCH  13  14
HETATM   14  C   UNL     1     -10.268  10.949  66.838  1.00  0.00    -0.228 C  
HETATM   15  C   UNL     1     -10.134  10.105  65.561  1.00  0.00    -0.338 C  
HETATM   16  C   UNL     1     -10.484  10.873  64.295  1.00  0.00    -0.405 C  
HETATM   17  C   UNL     1      -9.675  12.159  64.224  1.00  0.00    -0.076 C  
HETATM   18  C   UNL     1     -10.064  13.076  65.381  1.00  0.00    -0.265 C  
HETATM   19  C   UNL     1      -9.750  12.425  66.736  1.00  0.00    -0.223 C  
BRANCH  19  20
HETATM   20  N   UNL     1     -10.128  13.170  67.960  1.00  0.00    -0.226 NA 
HETATM   21  C   UNL     1     -11.464  12.910  68.500  1.00  0.00    -0.310 C  
HETATM   22  C   UNL     1     -12.371  13.962  67.881  1.00  0.00    -0.016 C  
HETATM   23  C   UNL     1     -11.451  15.149  67.623  1.00  0.00    -0.309 C  
HETATM   24  C   UNL     1     -10.029  14.627  67.855  1.00  0.00    -0.221 C  
HETATM   25  O   UNL     1     -11.769  16.211  68.515  1.00  0.00    -0.348 OA 
HETATM   26  H   UNL     1     -11.195  16.951  68.354  1.00  0.00     0.000 HD 
ENDBRANCH  19  20
ENDBRANCH  13  14
ENDBRANCH  12  13
ENDBRANCH  11  12
ENDBRANCH   8  11
ENDBRANCH   2   3
TORSDOF 7
ENDMDL
MODEL      279
REMARK 921   NORMALIZED FREE ENERGY PREDICTED BY IDOCK:   -3.12 KCAL/MOL
REMARK 922        TOTAL FREE ENERGY PREDICTED BY IDOCK:   -5.32 KCAL/MOL
REMARK 923 INTER-LIGAND FREE ENERGY PREDICTED BY IDOCK:   -4.67 KCAL/MOL
REMARK 924 INTRA-LIGAND FREE ENERGY PREDICTED BY IDOCK:   -0.65 KCAL/MOL
REMARK 927      BINDING AFFINITY PREDICTED BY RF-SCORE:    0.00 PKD
ROOT
HETATM    1  C   UNL     1      -9.708  18.609  66.545  1.00  0.00    -0.351 C  
HETATM    2  O   UNL     1     -10.335  17.335  66.525  1.00  0.00    -0.321 OA 
ENDROOT
BRANCH   2   3
HETATM    3  C   UNL     1      -9.525  16.242  66.693  1.00  0.00    -0.248 A  
HETATM    4  C   UNL     1      -9.907  14.894  66.751  1.00  0.00    -0.246 A  
HETATM    5  C   UNL     1      -8.925  13.918  66.963  1.00  0.00    -0.251 A  
HETATM    6  C   UNL     1      -8.182  16.585  66.904  1.00  0.00    -0.250 A  
HETATM    7  C   UNL     1      -7.217  15.608  67.158  1.00  0.00    -0.230 A  
HETATM    8  C   UNL     1      -7.600  14.272  67.225  1.00  0.00    -0.118 A  
BRANCH   4   9
HETATM    9  O   UNL     1     -11.225  14.547  66.598  1.00  0.00    -0.329 OA 
HETATM   10  C   UNL     1     -11.809  13.898  67.727  1.00  0.00    -0.380 C  
ENDBRANCH   4   9
BRANCH   8  11
HETATM   11  C   UNL     1      -6.601  13.209  67.585  1.00  0.00    -0.165 C  
BRANCH  11  12
HETATM   12  C   UNL     1      -6.964  12.466  68.859  1.00  0.00    -0.091 C  
BRANCH  12  13
HETATM   13  O   UNL     1      -6.329  11.186  68.883  1.00  0.00    -0.045 OA 
BRANCH  13  14
HETATM   14  C   UNL     1      -6.614  10.364  70.032  1.00  0.00    -0.137 C  
HETATM   15  C   UNL     1      -5.362  10.200  70.907  1.00  0.00    -0.072 C  
HETATM   16  C   UNL     1      -5.523   9.148  71.994  1.00  0.00    -0.072 C  
HETATM   17  C   UNL     1      -5.976   7.831  71.382  1.00  0.00    -0.035 C  
HETATM   18  C   UNL     1      -7.363   8.000  70.765  1.00  0.00    -0.057 C  
HETATM   19  C   UNL     1      -7.344   9.036  69.632  1.00  0.00    -0.064 C  
BRANCH  19  20
HETATM   20  N   UNL     1      -8.632   9.356  68.972  1.00  0.00    -0.131 NA 
HETATM   21  C   UNL     1      -9.818   8.659  69.476  1.00  0.00    -0.187 C  
HETATM   22  C   UNL     1      -9.968   7.419  68.610  1.00  0.00    -0.174 C  
HETATM   23  C   UNL     1      -9.355   7.816  67.273  1.00  0.00    -0.145 C  
HETATM   24  C   UNL     1      -8.653   9.155  67.522  1.00  0.00    -0.116 C  
HETATM   25  O   UNL     1     -10.378   7.938  66.289  1.00  0.00    -0.461 OA 
HETATM   26  H   UNL     1      -9.995   8.186  65.455  1.00  0.00     0.000 HD 
ENDBRANCH  19  20
ENDBRANCH  13  14
ENDBRANCH  12  13
ENDBRANCH  11  12
ENDBRANCH   8  11
ENDBRANCH   2   3
TORSDOF 7
ENDMDL
MODEL      280
REMARK 921   NORMALIZED FREE ENERGY PREDICTED BY IDOCK:   -3.11 KCAL/MOL
REMARK 922        TOTAL FREE ENERGY PREDICTED BY IDOCK:   -5.31 KCAL/MOL
REMARK 923 INTER-LIGAND FREE ENERGY PREDICTED BY IDOCK:   -4.64 KCAL/MOL
REMARK 924 INTRA-LIGAND FREE ENERGY PREDICTED BY IDOCK:   -0.68 KCAL/MOL
REMARK 927      BINDING AFFINITY PREDICTED BY RF-SCORE:    0.00 PKD
ROOT
HETATM    1  C   UNL     1      -6.446   5.705  67.517  1.00  0.00    -0.047 C  
HETATM    2  O   UNL     1      -6.827   6.785  66.677  1.00  0.00    -0.058 OA 
ENDROOT
BRANCH   2   3
HETATM    3  C   UNL     1      -7.259   7.929  67.295  1.00  0.00    -0.090 A  
HETATM    4  C   UNL     1      -8.527   8.184  67.836  1.00  0.00    -0.132 A  
HETATM    5  C   UNL     1      -8.786   9.439  68.402  1.00  0.00    -0.128 A  
HETATM    6  C   UNL     1      -6.300   8.952  67.284  1.00  0.00    -0.060 A  
HETATM    7  C   UNL     1      -6.581  10.213  67.812  1.00  0.00    -0.067 A  
HETATM    8  C   UNL     1      -7.844  10.468  68.338  1.00  0.00    -0.110 A  
BRANCH   4   9
HETATM    9  O   UNL     1      -9.494   7.211  67.808  1.00  0.00    -0.126 OA 
HETATM   10  C   UNL     1     -10.049   6.881  69.081  1.00  0.00    -0.173 C  
ENDBRANCH   4   9
BRANCH   8  11
HETATM   11  C   UNL     1      -8.204  11.841  68.830  1.00  0.00    -0.027 C  
BRANCH  11  12
HETATM   12  C   UNL     1      -7.529  12.947  68.038  1.00  0.00    -0.125 C  
BRANCH  12  13
HETATM   13  O   UNL     1      -8.478  13.604  67.198  1.00  0.00    -0.203 OA 
BRANCH  13  14
HETATM   14  C   UNL     1      -9.798  13.026  67.168  1.00  0.00    -0.230 C  
HETATM   15  C   UNL     1      -9.983  12.159  65.912  1.00  0.00    -0.267 C  
HETATM   16  C   UNL     1     -11.424  11.725  65.691  1.00  0.00    -0.249 C  
HETATM   17  C   UNL     1     -12.341  12.938  65.695  1.00  0.00    -0.482 C  
HETATM   18  C   UNL     1     -12.319  13.596  67.072  1.00  0.00    -0.277 C  
HETATM   19  C   UNL     1     -10.911  14.099  67.424  1.00  0.00    -0.299 C  
BRANCH  19  20
HETATM   20  N   UNL     1     -10.714  14.710  68.760  1.00  0.00    -0.242 NA 
HETATM   21  C   UNL     1     -10.816  13.813  69.913  1.00  0.00     0.327 C  
HETATM   22  C   UNL     1     -12.265  13.888  70.368  1.00  0.00    -0.438 C  
HETATM   23  C   UNL     1     -12.717  15.285  69.961  1.00  0.00    -0.171 C  
HETATM   24  C   UNL     1     -11.601  15.834  69.065  1.00  0.00    -0.400 C  
HETATM   25  O   UNL     1     -12.900  16.091  71.120  1.00  0.00    -0.561 OA 
HETATM   26  H   UNL     1     -13.182  16.962  70.865  1.00  0.00     0.000 HD 
ENDBRANCH  19  20
ENDBRANCH  13  14
ENDBRANCH  12  13
ENDBRANCH  11  12
ENDBRANCH   8  11
ENDBRANCH   2   3
TORSDOF 7
ENDMDL
MODEL      281
REMARK 921   NORMALIZED FREE ENERGY PREDICTED BY IDOCK:   -3.10 KCAL/MOL
REMARK 922        TOTAL FREE ENERGY PREDICTED BY IDOCK:   -5.29 KCAL/MOL
REMARK 923 INTER-LIGAND FREE ENERGY PREDICTED BY IDOCK:   -4.75 KCAL/MOL
REMARK 924 INTRA-LIGAND FREE ENERGY PREDICTED BY IDOCK:   -0.54 KCAL/MOL
REMARK 927      BINDING AFFINITY PREDICTED BY RF-SCORE:    0.00 PKD
ROOT
HETATM    1  C   UNL     1      -9.217   7.669  66.392  1.00  0.00    -0.175 C  
HETATM    2  O   UNL     1     -10.540   7.411  66.838  1.00  0.00    -0.326 OA 
ENDROOT
BRANCH   2   3
HETATM    3  C   UNL     1     -10.797   7.611  68.169  1.00  0.00     0.024 A  
HETATM    4  C   UNL     1     -10.652   8.798  68.900  1.00  0.00    -0.155 A  
HETATM    5  C   UNL     1     -10.937   8.792  70.272  1.00  0.00    -0.255 A  
HETATM    6  C   UNL     1     -11.169   6.435  68.836  1.00  0.00    -0.385 A  
HETATM    7  C   UNL     1     -11.409   6.428  70.211  1.00  0.00    -0.468 A  
HETATM    8  C   UNL     1     -11.255   7.606  70.937  1.00  0.00    -0.282 A  
BRANCH   4   9
HETATM    9  O   UNL     1     -10.239   9.945  68.272  1.00  0.00    -0.162 OA 
HETATM   10  C   UNL     1     -10.431  11.143  69.024  1.00  0.00    -0.206 C  
ENDBRANCH   4   9
BRANCH   8  11
HETATM   11  C   UNL     1     -11.419   7.609  72.431  1.00  0.00    -0.392 C  
BRANCH  11  12
HETATM   12  C   UNL     1     -10.109   7.825  73.167  1.00  0.00    -0.327 C  
BRANCH  12  13
HETATM   13  O   UNL     1      -9.808   6.692  73.984  1.00  0.00    -0.227 OA 
BRANCH  13  14
HETATM   14  C   UNL     1      -9.884   5.408  73.331  1.00  0.00    -0.161 C  
HETATM   15  C   UNL     1     -11.032   4.570  73.916  1.00  0.00    -0.326 C  
HETATM   16  C   UNL     1     -11.012   3.122  73.452  1.00  0.00    -0.302 C  
HETATM   17  C   UNL     1      -9.649   2.504  73.726  1.00  0.00    -0.117 C  
HETATM   18  C   UNL     1      -8.586   3.215  72.893  1.00  0.00    -0.082 C  
HETATM   19  C   UNL     1      -8.487   4.701  73.270  1.00  0.00    -0.103 C  
BRANCH  19  20
HETATM   20  N   UNL     1      -7.537   5.543  72.504  1.00  0.00    -0.097 NA 
HETATM   21  C   UNL     1      -8.004   6.047  71.210  1.00  0.00    -0.113 C  
HETATM   22  C   UNL     1      -7.544   5.028  70.180  1.00  0.00    -0.060 C  
HETATM   23  C   UNL     1      -6.285   4.420  70.785  1.00  0.00    -0.021 C  
HETATM   24  C   UNL     1      -6.239   4.923  72.232  1.00  0.00    -0.029 C  
HETATM   25  O   UNL     1      -5.142   4.842  70.049  1.00  0.00     0.000 OA 
HETATM   26  H   UNL     1      -4.357   4.463  70.427  1.00  0.00     0.000 HD 
ENDBRANCH  19  20
ENDBRANCH  13  14
ENDBRANCH  12  13
ENDBRANCH  11  12
ENDBRANCH   8  11
ENDBRANCH   2   3
TORSDOF 7
ENDMDL
MODEL      282
REMARK 921   NORMALIZED FREE ENERGY PREDICTED BY IDOCK:   -3.10 KCAL/MOL
REMARK 922        TOTAL FREE ENERGY PREDICTED BY IDOCK:   -5.29 KCAL/MOL
REMARK 923 INTER-LIGAND FREE ENERGY PREDICTED BY IDOCK:   -5.12 KCAL/MOL
REMARK 924 INTRA-LIGAND FREE ENERGY PREDICTED BY IDOCK:   -0.16 KCAL/MOL
REMARK 927      BINDING AFFINITY PREDICTED BY RF-SCORE:    0.00 PKD
ROOT
HETATM    1  C   UNL     1      -7.376  10.228  62.688  1.00  0.00    -0.141 C  
HETATM    2  O   UNL     1      -7.243  10.298  64.100  1.00  0.00    -0.129 OA 
ENDROOT
BRANCH   2   3
HETATM    3  C   UNL     1      -8.202   9.664  64.845  1.00  0.00    -0.143 A  
HETATM    4  C   UNL     1      -9.304  10.241  65.493  1.00  0.00    -0.199 A  
HETATM    5  C   UNL     1     -10.160   9.422  66.240  1.00  0.00    -0.328 A  
HETATM    6  C   UNL     1      -7.952   8.293  65.005  1.00  0.00    -0.141 A  
HETATM    7  C   UNL     1      -8.786   7.492  65.787  1.00  0.00    -0.122 A  
HETATM    8  C   UNL     1      -9.873   8.069  66.438  1.00  0.00    -0.237 A  
BRANCH   4   9
HETATM    9  O   UNL     1      -9.532  11.589  65.388  1.00  0.00    -0.224 OA 
HETATM   10  C   UNL     1     -10.781  12.029  65.921  1.00  0.00    -0.275 C  
ENDBRANCH   4   9
BRANCH   8  11
HETATM   11  C   UNL     1     -10.735   7.251  67.357  1.00  0.00    -0.358 C  
BRANCH  11  12
HETATM   12  C   UNL     1     -10.014   6.836  68.627  1.00  0.00    -0.146 C  
BRANCH  12  13
HETATM   13  O   UNL     1      -9.698   7.985  69.415  1.00  0.00    -0.167 OA 
BRANCH  13  14
HETATM   14  C   UNL     1      -8.358   8.035  69.944  1.00  0.00    -0.121 C  
HETATM   15  C   UNL     1      -7.358   7.424  68.950  1.00  0.00    -0.091 C  
HETATM   16  C   UNL     1      -5.973   7.217  69.544  1.00  0.00    -0.027 C  
HETATM   17  C   UNL     1      -6.072   6.412  70.831  1.00  0.00    -0.031 C  
HETATM   18  C   UNL     1      -6.851   7.206  71.876  1.00  0.00    -0.059 C  
HETATM   19  C   UNL     1      -8.288   7.479  71.408  1.00  0.00    -0.107 C  
BRANCH  19  20
HETATM   20  N   UNL     1      -9.156   8.294  72.291  1.00  0.00    -0.199 NA 
HETATM   21  C   UNL     1      -9.470   7.729  73.605  1.00  0.00    -0.250 C  
HETATM   22  C   UNL     1     -10.780   6.978  73.429  1.00  0.00    -0.379 C  
HETATM   23  C   UNL     1     -11.490   7.716  72.300  1.00  0.00    -0.317 C  
HETATM   24  C   UNL     1     -10.447   8.674  71.714  1.00  0.00    -0.324 C  
HETATM   25  O   UNL     1     -12.615   8.421  72.815  1.00  0.00    -0.608 OA 
HETATM   26  H   UNL     1     -13.057   8.881  72.111  1.00  0.00     0.000 HD 
ENDBRANCH  19  20
ENDBRANCH  13  14
ENDBRANCH  12  13
ENDBRANCH  11  12
ENDBRANCH   8  11
ENDBRANCH   2   3
TORSDOF 7
ENDMDL
MODEL      283
REMARK 921   NORMALIZED FREE ENERGY PREDICTED BY IDOCK:   -3.10 KCAL/MOL
REMARK 922        TOTAL FREE ENERGY PREDICTED BY IDOCK:   -5.29 KCAL/MOL
REMARK 923 INTER-LIGAND FREE ENERGY PREDICTED BY IDOCK:   -4.98 KCAL/MOL
REMARK 924 INTRA-LIGAND FREE ENERGY PREDICTED BY IDOCK:   -0.30 KCAL/MOL
REMARK 927      BINDING AFFINITY PREDICTED BY RF-SCORE:    0.00 PKD
ROOT
HETATM    1  C   UNL     1     -10.542   5.227  73.825  1.00  0.00    -0.287 C  
HETATM    2  O   UNL     1     -10.362   6.579  74.218  1.00  0.00    -0.349 OA 
ENDROOT
BRANCH   2   3
HETATM    3  C   UNL     1     -10.080   7.481  73.225  1.00  0.00    -0.331 A  
HETATM    4  C   UNL     1     -10.989   8.163  72.405  1.00  0.00    -0.345 A  
HETATM    5  C   UNL     1     -10.499   9.028  71.417  1.00  0.00    -0.395 A  
HETATM    6  C   UNL     1      -8.704   7.637  73.004  1.00  0.00    -0.213 A  
HETATM    7  C   UNL     1      -8.224   8.468  71.989  1.00  0.00    -0.192 A  
HETATM    8  C   UNL     1      -9.129   9.136  71.168  1.00  0.00    -0.275 A  
BRANCH   4   9
HETATM    9  O   UNL     1     -12.338   7.982  72.575  1.00  0.00    -0.289 OA 
HETATM   10  C   UNL     1     -12.923   6.998  71.723  1.00  0.00    -0.310 C  
ENDBRANCH   4   9
BRANCH   8  11
HETATM   11  C   UNL     1      -8.643   9.964  70.013  1.00  0.00    -0.196 C  
BRANCH  11  12
HETATM   12  C   UNL     1      -7.727   9.194  69.079  1.00  0.00    -0.078 C  
BRANCH  12  13
HETATM   13  O   UNL     1      -8.473   8.651  67.989  1.00  0.00    -0.125 OA 
BRANCH  13  14
HETATM   14  C   UNL     1      -7.830   8.699  66.700  1.00  0.00    -0.097 C  
HETATM   15  C   UNL     1      -7.924  10.110  66.098  1.00  0.00    -0.125 C  
HETATM   16  C   UNL     1      -7.490  10.171  64.642  1.00  0.00    -0.132 C  
HETATM   17  C   UNL     1      -8.258   9.143  63.825  1.00  0.00    -0.173 C  
HETATM   18  C   UNL     1      -7.901   7.737  64.300  1.00  0.00    -0.138 C  
HETATM   19  C   UNL     1      -8.300   7.529  65.769  1.00  0.00    -0.142 C  
BRANCH  19  20
HETATM   20  N   UNL     1      -7.964   6.229  66.396  1.00  0.00    -0.107 NA 
HETATM   21  C   UNL     1      -8.186   5.032  65.582  1.00  0.00    -0.117 C  
HETATM   22  C   UNL     1      -9.587   4.552  65.927  1.00  0.00    -0.191 C  
HETATM   23  C   UNL     1      -9.803   5.018  67.361  1.00  0.00    -0.176 C  
HETATM   24  C   UNL     1      -8.635   5.961  67.669  1.00  0.00    -0.102 C  
HETATM   25  O   UNL     1      -9.812   3.896  68.239  1.00  0.00    -0.096 OA 
HETATM   26  H   UNL     1      -9.946   4.187  69.133  1.00  0.00     0.000 HD 
ENDBRANCH  19  20
ENDBRANCH  13  14
ENDBRANCH  12  13
ENDBRANCH  11  12
ENDBRANCH   8  11
ENDBRANCH   2   3
TORSDOF 7
ENDMDL
MODEL      284
REMARK 921   NORMALIZED FREE ENERGY PREDICTED BY IDOCK:   -3.09 KCAL/MOL
REMARK 922        TOTAL FREE ENERGY PREDICTED BY IDOCK:   -5.28 KCAL/MOL
REMARK 923 INTER-LIGAND FREE ENERGY PREDICTED BY IDOCK:   -4.86 KCAL/MOL
REMARK 924 INTRA-LIGAND FREE ENERGY PREDICTED BY IDOCK:   -0.42 KCAL/MOL
REMARK 927      BINDING AFFINITY PREDICTED BY RF-SCORE:    0.00 PKD
ROOT
HETATM    1  C   UNL     1     -10.908  16.557  69.172  1.00  0.00    -0.334 C  
HETATM    2  O   UNL     1      -9.778  15.697  69.153  1.00  0.00    -0.214 OA 
ENDROOT
BRANCH   2   3
HETATM    3  C   UNL     1      -9.930  14.486  68.529  1.00  0.00    -0.238 A  
HETATM    4  C   UNL     1      -9.224  14.000  67.420  1.00  0.00    -0.216 A  
HETATM    5  C   UNL     1      -9.551  12.739  66.904  1.00  0.00    -0.235 A  
HETATM    6  C   UNL     1     -10.982  13.726  69.061  1.00  0.00    -0.277 A  
HETATM    7  C   UNL     1     -11.329  12.490  68.513  1.00  0.00    -0.337 A  
HETATM    8  C   UNL     1     -10.634  12.013  67.406  1.00  0.00    -0.253 A  
BRANCH   4   9
HETATM    9  O   UNL     1      -8.227  14.754  66.856  1.00  0.00    -0.203 OA 
HETATM   10  C   UNL     1      -7.051  14.888  67.655  1.00  0.00    -0.186 C  
ENDBRANCH   4   9
BRANCH   8  11
HETATM   11  C   UNL     1     -11.044  10.730  66.741  1.00  0.00    -0.153 C  
BRANCH  11  12
HETATM   12  C   UNL     1     -10.570   9.499  67.491  1.00  0.00    -0.275 C  
BRANCH  12  13
HETATM   13  O   UNL     1     -10.036   8.538  66.579  1.00  0.00    -0.274 OA 
BRANCH  13  14
HETATM   14  C   UNL     1      -8.836   7.864  67.006  1.00  0.00    -0.130 C  
HETATM   15  C   UNL     1      -7.657   8.848  67.079  1.00  0.00    -0.094 C  
HETATM   16  C   UNL     1      -6.315   8.161  67.279  1.00  0.00    -0.056 C  
HETATM   17  C   UNL     1      -6.110   7.095  66.214  1.00  0.00    -0.036 C  
HETATM   18  C   UNL     1      -7.160   5.998  66.376  1.00  0.00    -0.068 C  
HETATM   19  C   UNL     1      -8.578   6.554  66.185  1.00  0.00    -0.145 C  
BRANCH  19  20
HETATM   20  N   UNL     1      -9.714   5.619  66.371  1.00  0.00    -0.157 NA 
HETATM   21  C   UNL     1     -10.326   5.588  67.701  1.00  0.00    -0.200 C  
HETATM   22  C   UNL     1      -9.613   4.480  68.459  1.00  0.00    -0.212 C  
HETATM   23  C   UNL     1      -9.180   3.501  67.375  1.00  0.00    -0.194 C  
HETATM   24  C   UNL     1      -9.426   4.221  66.045  1.00  0.00    -0.177 C  
HETATM   25  O   UNL     1      -9.945   2.304  67.470  1.00  0.00    -0.196 OA 
HETATM   26  H   UNL     1      -9.674   1.693  66.794  1.00  0.00     0.000 HD 
ENDBRANCH  19  20
ENDBRANCH  13  14
ENDBRANCH  12  13
ENDBRANCH  11  12
ENDBRANCH   8  11
ENDBRANCH   2   3
TORSDOF 7
ENDMDL
MODEL      285
REMARK 921   NORMALIZED FREE ENERGY PREDICTED BY IDOCK:   -3.08 KCAL/MOL
REMARK 922        TOTAL FREE ENERGY PREDICTED BY IDOCK:   -5.26 KCAL/MOL
REMARK 923 INTER-LIGAND FREE ENERGY PREDICTED BY IDOCK:   -7.40 KCAL/MOL
REMARK 924 INTRA-LIGAND FREE ENERGY PREDICTED BY IDOCK:    2.13 KCAL/MOL
REMARK 927      BINDING AFFINITY PREDICTED BY RF-SCORE:    0.00 PKD
ROOT
HETATM    1  C   UNL     1     -11.271  10.380  68.698  1.00  0.00    -0.248 C  
HETATM    2  O   UNL     1     -11.831  10.734  67.442  1.00  0.00    -0.382 OA 
ENDROOT
BRANCH   2   3
HETATM    3  C   UNL     1     -11.432  11.927  66.899  1.00  0.00    -0.322 A  
HETATM    4  C   UNL     1     -10.699  12.130  65.721  1.00  0.00    -0.267 A  
HETATM    5  C   UNL     1     -10.358  13.436  65.348  1.00  0.00    -0.321 A  
HETATM    6  C   UNL     1     -11.757  13.030  67.703  1.00  0.00    -0.415 A  
HETATM    7  C   UNL     1     -11.376  14.324  67.345  1.00  0.00    -0.349 A  
HETATM    8  C   UNL     1     -10.640  14.522  66.180  1.00  0.00    -0.308 A  
BRANCH   4   9
HETATM    9  O   UNL     1     -10.328  11.057  64.951  1.00  0.00    -0.288 OA 
HETATM   10  C   UNL     1     -10.795  11.097  63.603  1.00  0.00    -0.242 C  
ENDBRANCH   4   9
BRANCH   8  11
HETATM   11  C   UNL     1     -10.138  15.891  65.817  1.00  0.00    -0.389 C  
BRANCH  11  12
HETATM   12  C   UNL     1      -8.694  16.118  66.228  1.00  0.00    -0.337 C  
BRANCH  12  13
HETATM   13  O   UNL     1      -8.627  16.519  67.597  1.00  0.00    -0.179 OA 
BRANCH  13  14
HETATM   14  C   UNL     1      -9.025  17.876  67.876  1.00  0.00    -0.264 C  
HETATM   15  C   UNL     1     -10.490  18.106  67.471  1.00  0.00    -0.425 C  
HETATM   16  C   UNL     1     -10.898  19.571  67.504  1.00  0.00    -0.494 C  
HETATM   17  C   UNL     1      -9.932  20.401  66.672  1.00  0.00    -0.492 C  
HETATM   18  C   UNL     1      -8.540  20.349  67.296  1.00  0.00    -0.414 C  
HETATM   19  C   UNL     1      -7.993  18.914  67.316  1.00  0.00    -0.246 C  
BRANCH  19  20
HETATM   20  N   UNL     1      -6.671  18.691  67.948  1.00  0.00    -0.213 NA 
HETATM   21  C   UNL     1      -5.696  17.918  67.175  1.00  0.00    -0.135 C  
HETATM   22  C   UNL     1      -5.872  16.474  67.614  1.00  0.00    -0.163 C  
HETATM   23  C   UNL     1      -6.374  16.574  69.049  1.00  0.00    -0.169 C  
HETATM   24  C   UNL     1      -6.713  18.052  69.266  1.00  0.00    -0.209 C  
HETATM   25  O   UNL     1      -5.362  16.134  69.948  1.00  0.00    -0.128 OA 
HETATM   26  H   UNL     1      -5.676  16.196  70.843  1.00  0.00     0.000 HD 
ENDBRANCH  19  20
ENDBRANCH  13  14
ENDBRANCH  12  13
ENDBRANCH  11  12
ENDBRANCH   8  11
ENDBRANCH   2   3
TORSDOF 7
ENDMDL
MODEL      286
REMARK 921   NORMALIZED FREE ENERGY PREDICTED BY IDOCK:   -3.08 KCAL/MOL
REMARK 922        TOTAL FREE ENERGY PREDICTED BY IDOCK:   -5.26 KCAL/MOL
REMARK 923 INTER-LIGAND FREE ENERGY PREDICTED BY IDOCK:   -4.54 KCAL/MOL
REMARK 924 INTRA-LIGAND FREE ENERGY PREDICTED BY IDOCK:   -0.72 KCAL/MOL
REMARK 927      BINDING AFFINITY PREDICTED BY RF-SCORE:    0.00 PKD
ROOT
HETATM    1  C   UNL     1      -7.025  11.357  68.837  1.00  0.00    -0.098 C  
HETATM    2  O   UNL     1      -7.902  10.418  68.234  1.00  0.00    -0.101 OA 
ENDROOT
BRANCH   2   3
HETATM    3  C   UNL     1      -8.943   9.960  68.999  1.00  0.00    -0.160 A  
HETATM    4  C   UNL     1     -10.311  10.001  68.696  1.00  0.00    -0.190 A  
HETATM    5  C   UNL     1     -11.230   9.507  69.631  1.00  0.00    -0.138 A  
HETATM    6  C   UNL     1      -8.531   9.479  70.250  1.00  0.00    -0.237 A  
HETATM    7  C   UNL     1      -9.457   9.029  71.193  1.00  0.00    -0.348 A  
HETATM    8  C   UNL     1     -10.815   9.080  70.894  1.00  0.00    -0.323 A  
BRANCH   4   9
HETATM    9  O   UNL     1     -10.734  10.517  67.497  1.00  0.00    -0.235 OA 
HETATM   10  C   UNL     1     -11.222  11.856  67.559  1.00  0.00    -0.296 C  
ENDBRANCH   4   9
BRANCH   8  11
HETATM   11  C   UNL     1     -11.838   8.688  71.922  1.00  0.00    -0.420 C  
BRANCH  11  12
HETATM   12  C   UNL     1     -11.382   7.535  72.799  1.00  0.00    -0.336 C  
BRANCH  12  13
HETATM   13  O   UNL     1     -11.069   6.396  71.996  1.00  0.00    -0.241 OA 
BRANCH  13  14
HETATM   14  C   UNL     1      -9.955   5.598  72.444  1.00  0.00    -0.170 C  
HETATM   15  C   UNL     1      -9.827   5.656  73.974  1.00  0.00    -0.190 C  
HETATM   16  C   UNL     1      -8.533   5.044  74.490  1.00  0.00    -0.109 C  
HETATM   17  C   UNL     1      -7.341   5.674  73.786  1.00  0.00    -0.087 C  
HETATM   18  C   UNL     1      -7.386   5.340  72.297  1.00  0.00    -0.093 C  
HETATM   19  C   UNL     1      -8.649   5.914  71.638  1.00  0.00    -0.132 C  
BRANCH  19  20
HETATM   20  N   UNL     1      -8.868   5.622  70.201  1.00  0.00    -0.136 NA 
HETATM   21  C   UNL     1      -9.638   4.417  69.887  1.00  0.00    -0.205 C  
HETATM   22  C   UNL     1      -8.615   3.309  69.700  1.00  0.00    -0.112 C  
HETATM   23  C   UNL     1      -7.364   4.029  69.210  1.00  0.00    -0.054 C  
HETATM   24  C   UNL     1      -7.649   5.523  69.396  1.00  0.00    -0.078 C  
HETATM   25  O   UNL     1      -7.126   3.709  67.843  1.00  0.00    -0.050 OA 
HETATM   26  H   UNL     1      -6.346   4.158  67.538  1.00  0.00     0.000 HD 
ENDBRANCH  19  20
ENDBRANCH  13  14
ENDBRANCH  12  13
ENDBRANCH  11  12
ENDBRANCH   8  11
ENDBRANCH   2   3
TORSDOF 7
ENDMDL
MODEL      287
REMARK 921   NORMALIZED FREE ENERGY PREDICTED BY IDOCK:   -3.07 KCAL/MOL
REMARK 922        TOTAL FREE ENERGY PREDICTED BY IDOCK:   -5.24 KCAL/MOL
REMARK 923 INTER-LIGAND FREE ENERGY PREDICTED BY IDOCK:   -4.66 KCAL/MOL
REMARK 924 INTRA-LIGAND FREE ENERGY PREDICTED BY IDOCK:   -0.59 KCAL/MOL
REMARK 927      BINDING AFFINITY PREDICTED BY RF-SCORE:    0.00 PKD
ROOT
HETATM    1  C   UNL     1     -12.085  12.025  64.132  1.00  0.00    -0.362 C  
HETATM    2  O   UNL     1     -11.682  13.206  64.810  1.00  0.00    -0.322 OA 
ENDROOT
BRANCH   2   3
HETATM    3  C   UNL     1     -10.591  13.107  65.633  1.00  0.00    -0.277 A  
HETATM    4  C   UNL     1     -10.062  14.094  66.476  1.00  0.00    -0.280 A  
HETATM    5  C   UNL     1      -8.911  13.808  67.221  1.00  0.00    -0.225 A  
HETATM    6  C   UNL     1      -9.926  11.878  65.514  1.00  0.00    -0.266 A  
HETATM    7  C   UNL     1      -8.756  11.616  66.228  1.00  0.00    -0.136 A  
HETATM    8  C   UNL     1      -8.226  12.602  67.056  1.00  0.00    -0.110 A  
BRANCH   4   9
HETATM    9  O   UNL     1     -10.671  15.320  66.564  1.00  0.00    -0.303 OA 
HETATM   10  C   UNL     1     -11.427  15.530  67.756  1.00  0.00    -0.243 C  
ENDBRANCH   4   9
BRANCH   8  11
HETATM   11  C   UNL     1      -6.920  12.382  67.766  1.00  0.00    -0.118 C  
BRANCH  11  12
HETATM   12  C   UNL     1      -7.041  11.429  68.942  1.00  0.00    -0.109 C  
BRANCH  12  13
HETATM   13  O   UNL     1      -6.877  10.079  68.505  1.00  0.00    -0.054 OA 
BRANCH  13  14
HETATM   14  C   UNL     1      -7.481   9.070  69.338  1.00  0.00    -0.077 C  
HETATM   15  C   UNL     1      -6.912   9.132  70.764  1.00  0.00    -0.097 C  
HETATM   16  C   UNL     1      -7.317   7.944  71.623  1.00  0.00    -0.070 C  
HETATM   17  C   UNL     1      -6.963   6.644  70.917  1.00  0.00    -0.067 C  
HETATM   18  C   UNL     1      -7.778   6.518  69.632  1.00  0.00    -0.103 C  
HETATM   19  C   UNL     1      -7.456   7.659  68.656  1.00  0.00    -0.103 C  
BRANCH  19  20
HETATM   20  N   UNL     1      -8.214   7.709  67.383  1.00  0.00    -0.115 NA 
HETATM   21  C   UNL     1      -9.495   8.418  67.410  1.00  0.00    -0.147 C  
HETATM   22  C   UNL     1     -10.546   7.360  67.705  1.00  0.00    -0.309 C  
HETATM   23  C   UNL     1      -9.960   6.075  67.133  1.00  0.00    -0.156 C  
HETATM   24  C   UNL     1      -8.505   6.405  66.783  1.00  0.00    -0.112 C  
HETATM   25  O   UNL     1     -10.696   5.678  65.980  1.00  0.00    -0.493 OA 
HETATM   26  H   UNL     1     -10.330   4.877  65.624  1.00  0.00     0.000 HD 
ENDBRANCH  19  20
ENDBRANCH  13  14
ENDBRANCH  12  13
ENDBRANCH  11  12
ENDBRANCH   8  11
ENDBRANCH   2   3
TORSDOF 7
ENDMDL
MODEL      288
REMARK 921   NORMALIZED FREE ENERGY PREDICTED BY IDOCK:   -3.05 KCAL/MOL
REMARK 922        TOTAL FREE ENERGY PREDICTED BY IDOCK:   -5.22 KCAL/MOL
REMARK 923 INTER-LIGAND FREE ENERGY PREDICTED BY IDOCK:   -4.31 KCAL/MOL
REMARK 924 INTRA-LIGAND FREE ENERGY PREDICTED BY IDOCK:   -0.92 KCAL/MOL
REMARK 927      BINDING AFFINITY PREDICTED BY RF-SCORE:    0.00 PKD
ROOT
HETATM    1  C   UNL     1      -6.937   8.689  62.714  1.00  0.00    -0.090 C  
HETATM    2  O   UNL     1      -6.577   8.163  63.983  1.00  0.00    -0.065 OA 
ENDROOT
BRANCH   2   3
HETATM    3  C   UNL     1      -7.537   7.451  64.654  1.00  0.00    -0.105 A  
HETATM    4  C   UNL     1      -8.361   7.897  65.697  1.00  0.00    -0.142 A  
HETATM    5  C   UNL     1      -9.266   7.001  66.281  1.00  0.00    -0.166 A  
HETATM    6  C   UNL     1      -7.598   6.107  64.258  1.00  0.00    -0.096 A  
HETATM    7  C   UNL     1      -8.473   5.210  64.874  1.00  0.00    -0.149 A  
HETATM    8  C   UNL     1      -9.282   5.653  65.916  1.00  0.00    -0.145 A  
BRANCH   4   9
HETATM    9  O   UNL     1      -8.277   9.196  66.131  1.00  0.00    -0.108 OA 
HETATM   10  C   UNL     1      -7.970   9.346  67.517  1.00  0.00    -0.102 C  
ENDBRANCH   4   9
BRANCH   8  11
HETATM   11  C   UNL     1     -10.166   4.690  66.658  1.00  0.00    -0.250 C  
BRANCH  11  12
HETATM   12  C   UNL     1      -9.415   3.882  67.700  1.00  0.00    -0.185 C  
BRANCH  12  13
HETATM   13  O   UNL     1      -9.850   4.240  69.012  1.00  0.00    -0.165 OA 
BRANCH  13  14
HETATM   14  C   UNL     1      -9.235   5.413  69.581  1.00  0.00    -0.118 C  
HETATM   15  C   UNL     1      -7.710   5.370  69.397  1.00  0.00    -0.085 C  
HETATM   16  C   UNL     1      -6.980   6.445  70.188  1.00  0.00    -0.063 C  
HETATM   17  C   UNL     1      -7.387   6.383  71.652  1.00  0.00    -0.088 C  
HETATM   18  C   UNL     1      -8.871   6.710  71.788  1.00  0.00    -0.130 C  
HETATM   19  C   UNL     1      -9.737   5.686  71.040  1.00  0.00    -0.173 C  
BRANCH  19  20
HETATM   20  N   UNL     1     -11.203   5.903  71.029  1.00  0.00    -0.254 NA 
HETATM   21  C   UNL     1     -11.711   6.907  70.091  1.00  0.00    -0.253 C  
HETATM   22  C   UNL     1     -11.775   8.209  70.873  1.00  0.00    -0.259 C  
HETATM   23  C   UNL     1     -12.001   7.772  72.315  1.00  0.00    -0.309 C  
HETATM   24  C   UNL     1     -11.789   6.254  72.324  1.00  0.00    -0.278 C  
HETATM   25  O   UNL     1     -13.321   8.116  72.724  1.00  0.00    -0.531 OA 
HETATM   26  H   UNL     1     -13.461   7.844  73.623  1.00  0.00     0.000 HD 
ENDBRANCH  19  20
ENDBRANCH  13  14
ENDBRANCH  12  13
ENDBRANCH  11  12
ENDBRANCH   8  11
ENDBRANCH   2   3
TORSDOF 7
ENDMDL
MODEL      289
REMARK 921   NORMALIZED FREE ENERGY PREDICTED BY IDOCK:   -3.04 KCAL/MOL
REMARK 922        TOTAL FREE ENERGY PREDICTED BY IDOCK:   -5.21 KCAL/MOL
REMARK 923 INTER-LIGAND FREE ENERGY PREDICTED BY IDOCK:   -4.55 KCAL/MOL
REMARK 924 INTRA-LIGAND FREE ENERGY PREDICTED BY IDOCK:   -0.66 KCAL/MOL
REMARK 927      BINDING AFFINITY PREDICTED BY RF-SCORE:    0.00 PKD
ROOT
HETATM    1  C   UNL     1      -5.825   5.368  71.308  1.00  0.00    -0.017 C  
HETATM    2  O   UNL     1      -7.187   5.442  71.702  1.00  0.00    -0.078 OA 
ENDROOT
BRANCH   2   3
HETATM    3  C   UNL     1      -7.876   6.572  71.347  1.00  0.00    -0.100 A  
HETATM    4  C   UNL     1      -8.643   7.403  72.175  1.00  0.00    -0.113 A  
HETATM    5  C   UNL     1      -9.303   8.503  71.611  1.00  0.00    -0.311 A  
HETATM    6  C   UNL     1      -7.831   6.828  69.969  1.00  0.00    -0.111 A  
HETATM    7  C   UNL     1      -8.527   7.902  69.409  1.00  0.00    -0.133 A  
HETATM    8  C   UNL     1      -9.297   8.719  70.231  1.00  0.00    -0.193 A  
BRANCH   4   9
HETATM    9  O   UNL     1      -8.739   7.136  73.517  1.00  0.00    -0.129 OA 
HETATM   10  C   UNL     1     -10.052   7.264  74.061  1.00  0.00    -0.177 C  
ENDBRANCH   4   9
BRANCH   8  11
HETATM   11  C   UNL     1     -10.127   9.826  69.646  1.00  0.00    -0.250 C  
BRANCH  11  12
HETATM   12  C   UNL     1     -10.166   9.794  68.128  1.00  0.00    -0.186 C  
BRANCH  12  13
HETATM   13  O   UNL     1     -10.349  11.113  67.611  1.00  0.00    -0.182 OA 
BRANCH  13  14
HETATM   14  C   UNL     1      -9.161  11.768  67.124  1.00  0.00    -0.175 C  
HETATM   15  C   UNL     1      -8.005  10.764  66.987  1.00  0.00    -0.124 C  
HETATM   16  C   UNL     1      -6.663  11.428  66.720  1.00  0.00    -0.137 C  
HETATM   17  C   UNL     1      -6.385  12.488  67.775  1.00  0.00    -0.121 C  
HETATM   18  C   UNL     1      -7.422  13.603  67.671  1.00  0.00    -0.191 C  
HETATM   19  C   UNL     1      -8.839  13.070  67.933  1.00  0.00    -0.193 C  
BRANCH  19  20
HETATM   20  N   UNL     1      -9.966  14.025  67.808  1.00  0.00    -0.232 NA 
HETATM   21  C   UNL     1     -10.443  14.302  66.452  1.00  0.00    -0.282 C  
HETATM   22  C   UNL     1      -9.678  15.530  65.987  1.00  0.00    -0.378 C  
HETATM   23  C   UNL     1      -9.371  16.292  67.271  1.00  0.00    -0.224 C  
HETATM   24  C   UNL     1      -9.737  15.339  68.413  1.00  0.00    -0.213 C  
HETATM   25  O   UNL     1     -10.144  17.487  67.321  1.00  0.00    -0.305 OA 
HETATM   26  H   UNL     1      -9.953  17.961  68.122  1.00  0.00     0.000 HD 
ENDBRANCH  19  20
ENDBRANCH  13  14
ENDBRANCH  12  13
ENDBRANCH  11  12
ENDBRANCH   8  11
ENDBRANCH   2   3
TORSDOF 7
ENDMDL
MODEL      290
REMARK 921   NORMALIZED FREE ENERGY PREDICTED BY IDOCK:   -3.02 KCAL/MOL
REMARK 922        TOTAL FREE ENERGY PREDICTED BY IDOCK:   -5.18 KCAL/MOL
REMARK 923 INTER-LIGAND FREE ENERGY PREDICTED BY IDOCK:   -4.54 KCAL/MOL
REMARK 924 INTRA-LIGAND FREE ENERGY PREDICTED BY IDOCK:   -0.64 KCAL/MOL
REMARK 927      BINDING AFFINITY PREDICTED BY RF-SCORE:    0.00 PKD
ROOT
HETATM    1  C   UNL     1      -8.861   2.543  66.417  1.00  0.00    -0.131 C  
HETATM    2  O   UNL     1      -9.179   3.546  65.464  1.00  0.00    -0.145 OA 
ENDROOT
BRANCH   2   3
HETATM    3  C   UNL     1      -9.358   4.819  65.938  1.00  0.00    -0.159 A  
HETATM    4  C   UNL     1      -8.403   5.841  66.029  1.00  0.00    -0.126 A  
HETATM    5  C   UNL     1      -8.776   7.075  66.578  1.00  0.00    -0.138 A  
HETATM    6  C   UNL     1     -10.646   5.035  66.449  1.00  0.00    -0.317 A  
HETATM    7  C   UNL     1     -10.997   6.253  67.034  1.00  0.00    -0.442 A  
HETATM    8  C   UNL     1     -10.044   7.263  67.133  1.00  0.00    -0.306 A  
BRANCH   4   9
HETATM    9  O   UNL     1      -7.124   5.628  65.581  1.00  0.00    -0.064 OA 
HETATM   10  C   UNL     1      -6.170   5.341  66.603  1.00  0.00    -0.035 C  
ENDBRANCH   4   9
BRANCH   8  11
HETATM   11  C   UNL     1     -10.366   8.551  67.838  1.00  0.00    -0.281 C  
BRANCH  11  12
HETATM   12  C   UNL     1     -10.636   8.360  69.319  1.00  0.00    -0.182 C  
BRANCH  12  13
HETATM   13  O   UNL     1      -9.851   7.283  69.831  1.00  0.00    -0.176 OA 
BRANCH  13  14
HETATM   14  C   UNL     1      -9.500   7.367  71.227  1.00  0.00    -0.154 C  
HETATM   15  C   UNL     1      -8.448   8.463  71.457  1.00  0.00    -0.202 C  
HETATM   16  C   UNL     1      -7.853   8.438  72.856  1.00  0.00    -0.143 C  
HETATM   17  C   UNL     1      -7.318   7.050  73.171  1.00  0.00    -0.074 C  
HETATM   18  C   UNL     1      -8.469   6.048  73.198  1.00  0.00    -0.118 C  
HETATM   19  C   UNL     1      -9.162   5.961  71.830  1.00  0.00    -0.148 C  
BRANCH  19  20
HETATM   20  N   UNL     1     -10.342   5.072  71.712  1.00  0.00    -0.209 NA 
HETATM   21  C   UNL     1     -11.286   5.084  72.831  1.00  0.00    -0.253 C  
HETATM   22  C   UNL     1     -10.845   3.962  73.756  1.00  0.00    -0.326 C  
HETATM   23  C   UNL     1     -10.178   2.951  72.833  1.00  0.00    -0.152 C  
HETATM   24  C   UNL     1     -10.034   3.659  71.481  1.00  0.00    -0.111 C  
HETATM   25  O   UNL     1     -10.988   1.784  72.726  1.00  0.00    -0.151 OA 
HETATM   26  H   UNL     1     -10.571   1.154  72.150  1.00  0.00     0.000 HD 
ENDBRANCH  19  20
ENDBRANCH  13  14
ENDBRANCH  12  13
ENDBRANCH  11  12
ENDBRANCH   8  11
ENDBRANCH   2   3
TORSDOF 7
ENDMDL
MODEL      291
REMARK 921   NORMALIZED FREE ENERGY PREDICTED BY IDOCK:   -3.02 KCAL/MOL
REMARK 922        TOTAL FREE ENERGY PREDICTED BY IDOCK:   -5.18 KCAL/MOL
REMARK 923 INTER-LIGAND FREE ENERGY PREDICTED BY IDOCK:   -4.46 KCAL/MOL
REMARK 924 INTRA-LIGAND FREE ENERGY PREDICTED BY IDOCK:   -0.72 KCAL/MOL
REMARK 927      BINDING AFFINITY PREDICTED BY RF-SCORE:    0.00 PKD
ROOT
HETATM    1  C   UNL     1     -10.891   5.938  73.218  1.00  0.00    -0.261 C  
HETATM    2  O   UNL     1     -11.014   7.291  73.631  1.00  0.00    -0.294 OA 
ENDROOT
BRANCH   2   3
HETATM    3  C   UNL     1     -11.012   8.243  72.645  1.00  0.00    -0.316 A  
HETATM    4  C   UNL     1     -12.119   8.804  71.994  1.00  0.00    -0.377 A  
HETATM    5  C   UNL     1     -11.906   9.749  70.981  1.00  0.00    -0.442 A  
HETATM    6  C   UNL     1      -9.719   8.599  72.232  1.00  0.00    -0.357 A  
HETATM    7  C   UNL     1      -9.517   9.509  71.193  1.00  0.00    -0.032 A  
HETATM    8  C   UNL     1     -10.617  10.056  70.540  1.00  0.00    -0.313 A  
BRANCH   4   9
HETATM    9  O   UNL     1     -13.389   8.429  72.351  1.00  0.00    -0.288 OA 
HETATM   10  C   UNL     1     -13.991   7.460  71.494  1.00  0.00    -0.396 C  
ENDBRANCH   4   9
BRANCH   8  11
HETATM   11  C   UNL     1     -10.430  10.967  69.360  1.00  0.00    -0.177 C  
BRANCH  11  12
HETATM   12  C   UNL     1      -9.105  10.750  68.651  1.00  0.00    -0.173 C  
BRANCH  12  13
HETATM   13  O   UNL     1      -9.224   9.701  67.690  1.00  0.00    -0.131 OA 
BRANCH  13  14
HETATM   14  C   UNL     1      -8.056   8.875  67.512  1.00  0.00    -0.109 C  
HETATM   15  C   UNL     1      -7.807   8.012  68.759  1.00  0.00    -0.114 C  
HETATM   16  C   UNL     1      -6.460   7.306  68.739  1.00  0.00    -0.040 C  
HETATM   17  C   UNL     1      -5.346   8.315  68.504  1.00  0.00    -0.033 C  
HETATM   18  C   UNL     1      -5.501   8.939  67.120  1.00  0.00    -0.041 C  
HETATM   19  C   UNL     1      -6.828   9.703  67.001  1.00  0.00    -0.084 C  
BRANCH  19  20
HETATM   20  N   UNL     1      -7.153  10.317  65.691  1.00  0.00    -0.132 NA 
HETATM   21  C   UNL     1      -7.918   9.494  64.753  1.00  0.00    -0.123 C  
HETATM   22  C   UNL     1      -6.887   8.789  63.886  1.00  0.00    -0.087 C  
HETATM   23  C   UNL     1      -5.696   9.739  63.867  1.00  0.00    -0.105 C  
HETATM   24  C   UNL     1      -5.999  10.801  64.930  1.00  0.00     0.061 C  
HETATM   25  O   UNL     1      -5.559  10.319  62.574  1.00  0.00    -0.101 OA 
HETATM   26  H   UNL     1      -4.816  10.911  62.563  1.00  0.00     0.000 HD 
ENDBRANCH  19  20
ENDBRANCH  13  14
ENDBRANCH  12  13
ENDBRANCH  11  12
ENDBRANCH   8  11
ENDBRANCH   2   3
TORSDOF 7
ENDMDL
MODEL      292
REMARK 921   NORMALIZED FREE ENERGY PREDICTED BY IDOCK:   -3.01 KCAL/MOL
REMARK 922        TOTAL FREE ENERGY PREDICTED BY IDOCK:   -5.17 KCAL/MOL
REMARK 923 INTER-LIGAND FREE ENERGY PREDICTED BY IDOCK:   -3.66 KCAL/MOL
REMARK 924 INTRA-LIGAND FREE ENERGY PREDICTED BY IDOCK:   -1.50 KCAL/MOL
REMARK 927      BINDING AFFINITY PREDICTED BY RF-SCORE:    0.00 PKD
ROOT
HETATM    1  C   UNL     1      -9.182   1.680  71.163  1.00  0.00    -0.096 C  
HETATM    2  O   UNL     1      -7.823   2.090  71.181  1.00  0.00    -0.039 OA 
ENDROOT
BRANCH   2   3
HETATM    3  C   UNL     1      -7.525   3.279  70.567  1.00  0.00    -0.040 A  
HETATM    4  C   UNL     1      -7.189   3.488  69.222  1.00  0.00    -0.049 A  
HETATM    5  C   UNL     1      -6.884   4.786  68.791  1.00  0.00    -0.051 A  
HETATM    6  C   UNL     1      -7.495   4.361  71.459  1.00  0.00    -0.068 A  
HETATM    7  C   UNL     1      -7.148   5.643  71.029  1.00  0.00    -0.070 A  
HETATM    8  C   UNL     1      -6.804   5.847  69.695  1.00  0.00    -0.061 A  
BRANCH   4   9
HETATM    9  O   UNL     1      -7.163   2.431  68.349  1.00  0.00    -0.047 OA 
HETATM   10  C   UNL     1      -8.334   2.289  67.544  1.00  0.00    -0.074 C  
ENDBRANCH   4   9
BRANCH   8  11
HETATM   11  C   UNL     1      -6.340   7.196  69.224  1.00  0.00    -0.035 C  
BRANCH  11  12
HETATM   12  C   UNL     1      -7.048   8.341  69.924  1.00  0.00    -0.055 C  
BRANCH  12  13
HETATM   13  O   UNL     1      -8.187   8.755  69.168  1.00  0.00    -0.115 OA 
BRANCH  13  14
HETATM   14  C   UNL     1      -9.469   8.522  69.784  1.00  0.00    -0.166 C  
HETATM   15  C   UNL     1      -9.356   8.589  71.315  1.00  0.00    -0.261 C  
HETATM   16  C   UNL     1     -10.610   8.108  72.030  1.00  0.00    -0.334 C  
HETATM   17  C   UNL     1     -10.990   6.719  71.540  1.00  0.00    -0.274 C  
HETATM   18  C   UNL     1     -11.359   6.779  70.060  1.00  0.00    -0.396 C  
HETATM   19  C   UNL     1     -10.169   7.243  69.208  1.00  0.00    -0.193 C  
BRANCH  19  20
HETATM   20  N   UNL     1     -10.389   7.410  67.752  1.00  0.00    -0.198 NA 
HETATM   21  C   UNL     1     -11.393   6.540  67.137  1.00  0.00    -0.027 C  
HETATM   22  C   UNL     1     -10.633   5.325  66.630  1.00  0.00    -0.334 C  
HETATM   23  C   UNL     1      -9.236   5.852  66.328  1.00  0.00    -0.158 C  
HETATM   24  C   UNL     1      -9.191   7.264  66.922  1.00  0.00    -0.152 C  
HETATM   25  O   UNL     1      -9.020   5.872  64.921  1.00  0.00    -0.366 OA 
HETATM   26  H   UNL     1      -8.148   6.201  64.733  1.00  0.00     0.000 HD 
ENDBRANCH  19  20
ENDBRANCH  13  14
ENDBRANCH  12  13
ENDBRANCH  11  12
ENDBRANCH   8  11
ENDBRANCH   2   3
TORSDOF 7
ENDMDL
MODEL      293
REMARK 921   NORMALIZED FREE ENERGY PREDICTED BY IDOCK:   -3.01 KCAL/MOL
REMARK 922        TOTAL FREE ENERGY PREDICTED BY IDOCK:   -5.16 KCAL/MOL
REMARK 923 INTER-LIGAND FREE ENERGY PREDICTED BY IDOCK:   -7.37 KCAL/MOL
REMARK 924 INTRA-LIGAND FREE ENERGY PREDICTED BY IDOCK:    2.21 KCAL/MOL
REMARK 927      BINDING AFFINITY PREDICTED BY RF-SCORE:    0.00 PKD
ROOT
HETATM    1  C   UNL     1     -14.395   8.384  72.229  1.00  0.00    -0.371 C  
HETATM    2  O   UNL     1     -13.376   9.293  72.618  1.00  0.00    -0.430 OA 
ENDROOT
BRANCH   2   3
HETATM    3  C   UNL     1     -12.436   9.612  71.675  1.00  0.00    -0.407 A  
HETATM    4  C   UNL     1     -11.068   9.304  71.690  1.00  0.00    -0.368 A  
HETATM    5  C   UNL     1     -10.258   9.752  70.638  1.00  0.00    -0.290 A  
HETATM    6  C   UNL     1     -12.949  10.405  70.638  1.00  0.00    -0.357 A  
HETATM    7  C   UNL     1     -12.126  10.883  69.617  1.00  0.00    -0.400 A  
HETATM    8  C   UNL     1     -10.767  10.585  69.639  1.00  0.00    -0.302 A  
BRANCH   4   9
HETATM    9  O   UNL     1     -10.540   8.573  72.723  1.00  0.00    -0.248 OA 
HETATM   10  C   UNL     1      -9.145   8.296  72.611  1.00  0.00    -0.257 C  
ENDBRANCH   4   9
BRANCH   8  11
HETATM   11  C   UNL     1      -9.842  11.160  68.604  1.00  0.00    -0.207 C  
BRANCH  11  12
HETATM   12  C   UNL     1      -9.642  12.657  68.758  1.00  0.00     0.097 C  
BRANCH  12  13
HETATM   13  O   UNL     1     -10.901  13.330  68.728  1.00  0.00    -0.245 OA 
BRANCH  13  14
HETATM   14  C   UNL     1     -11.306  13.851  67.446  1.00  0.00    -0.326 C  
HETATM   15  C   UNL     1     -11.413  12.721  66.410  1.00  0.00    -0.409 C  
HETATM   16  C   UNL     1     -11.591  13.227  64.987  1.00  0.00    -0.342 C  
HETATM   17  C   UNL     1     -10.490  14.220  64.646  1.00  0.00    -0.325 C  
HETATM   18  C   UNL     1     -10.614  15.453  65.537  1.00  0.00    -0.400 C  
HETATM   19  C   UNL     1     -10.441  15.086  67.019  1.00  0.00    -0.278 C  
BRANCH  19  20
HETATM   20  N   UNL     1     -10.596  16.170  68.018  1.00  0.00    -0.293 NA 
HETATM   21  C   UNL     1      -9.617  16.203  69.107  1.00  0.00    -0.249 C  
HETATM   22  C   UNL     1     -10.237  15.407  70.243  1.00  0.00    -0.134 C  
HETATM   23  C   UNL     1     -11.738  15.577  70.048  1.00  0.00    -0.346 C  
HETATM   24  C   UNL     1     -11.904  16.230  68.672  1.00  0.00     0.024 C  
HETATM   25  O   UNL     1     -12.271  16.397  71.083  1.00  0.00    -0.509 OA 
HETATM   26  H   UNL     1     -13.208  16.503  70.961  1.00  0.00     0.000 HD 
ENDBRANCH  19  20
ENDBRANCH  13  14
ENDBRANCH  12  13
ENDBRANCH  11  12
ENDBRANCH   8  11
ENDBRANCH   2   3
TORSDOF 7
ENDMDL
MODEL      294
REMARK 921   NORMALIZED FREE ENERGY PREDICTED BY IDOCK:   -3.01 KCAL/MOL
REMARK 922        TOTAL FREE ENERGY PREDICTED BY IDOCK:   -5.16 KCAL/MOL
REMARK 923 INTER-LIGAND FREE ENERGY PREDICTED BY IDOCK:   -4.61 KCAL/MOL
REMARK 924 INTRA-LIGAND FREE ENERGY PREDICTED BY IDOCK:   -0.55 KCAL/MOL
REMARK 927      BINDING AFFINITY PREDICTED BY RF-SCORE:    0.00 PKD
ROOT
HETATM    1  C   UNL     1     -14.382   8.533  72.282  1.00  0.00    -0.390 C  
HETATM    2  O   UNL     1     -13.784   9.820  72.339  1.00  0.00    -0.376 OA 
ENDROOT
BRANCH   2   3
HETATM    3  C   UNL     1     -12.636  10.003  71.614  1.00  0.00    -0.427 A  
HETATM    4  C   UNL     1     -12.307  11.090  70.791  1.00  0.00    -0.398 A  
HETATM    5  C   UNL     1     -11.088  11.076  70.101  1.00  0.00    -0.175 A  
HETATM    6  C   UNL     1     -11.764   8.907  71.684  1.00  0.00    -0.411 A  
HETATM    7  C   UNL     1     -10.571   8.883  70.959  1.00  0.00    -0.315 A  
HETATM    8  C   UNL     1     -10.252   9.958  70.135  1.00  0.00    -0.326 A  
BRANCH   4   9
HETATM    9  O   UNL     1     -13.173  12.147  70.671  1.00  0.00     0.235 OA 
HETATM   10  C   UNL     1     -13.120  13.090  71.742  1.00  0.00    -0.373 C  
ENDBRANCH   4   9
BRANCH   8  11
HETATM   11  C   UNL     1      -9.021   9.921  69.275  1.00  0.00    -0.184 C  
BRANCH  11  12
HETATM   12  C   UNL     1      -9.300   9.434  67.864  1.00  0.00    -0.129 C  
BRANCH  12  13
HETATM   13  O   UNL     1      -9.766   8.084  67.890  1.00  0.00    -0.151 OA 
BRANCH  13  14
HETATM   14  C   UNL     1      -8.840   7.090  67.408  1.00  0.00    -0.119 C  
HETATM   15  C   UNL     1      -8.845   7.044  65.872  1.00  0.00    -0.126 C  
HETATM   16  C   UNL     1      -8.083   5.855  65.306  1.00  0.00    -0.133 C  
HETATM   17  C   UNL     1      -8.598   4.564  65.924  1.00  0.00    -0.115 C  
HETATM   18  C   UNL     1      -8.309   4.559  67.422  1.00  0.00    -0.104 C  
HETATM   19  C   UNL     1      -9.034   5.713  68.131  1.00  0.00    -0.111 C  
BRANCH  19  20
HETATM   20  N   UNL     1      -8.804   5.880  69.586  1.00  0.00    -0.130 NA 
HETATM   21  C   UNL     1      -7.447   6.248  69.998  1.00  0.00    -0.087 C  
HETATM   22  C   UNL     1      -6.733   4.937  70.287  1.00  0.00    -0.036 C  
HETATM   23  C   UNL     1      -7.845   3.990  70.723  1.00  0.00    -0.051 C  
HETATM   24  C   UNL     1      -9.155   4.719  70.406  1.00  0.00    -0.119 C  
HETATM   25  O   UNL     1      -7.726   3.711  72.114  1.00  0.00    -0.057 OA 
HETATM   26  H   UNL     1      -8.419   3.121  72.385  1.00  0.00     0.000 HD 
ENDBRANCH  19  20
ENDBRANCH  13  14
ENDBRANCH  12  13
ENDBRANCH  11  12
ENDBRANCH   8  11
ENDBRANCH   2   3
TORSDOF 7
ENDMDL
MODEL      295
REMARK 921   NORMALIZED FREE ENERGY PREDICTED BY IDOCK:   -2.98 KCAL/MOL
REMARK 922        TOTAL FREE ENERGY PREDICTED BY IDOCK:   -5.12 KCAL/MOL
REMARK 923 INTER-LIGAND FREE ENERGY PREDICTED BY IDOCK:   -4.89 KCAL/MOL
REMARK 924 INTRA-LIGAND FREE ENERGY PREDICTED BY IDOCK:   -0.23 KCAL/MOL
REMARK 927      BINDING AFFINITY PREDICTED BY RF-SCORE:    0.00 PKD
ROOT
HETATM    1  C   UNL     1     -11.785  15.456  68.156  1.00  0.00    -0.261 C  
HETATM    2  O   UNL     1     -11.000  14.514  67.440  1.00  0.00    -0.288 OA 
ENDROOT
BRANCH   2   3
HETATM    3  C   UNL     1     -10.887  13.261  67.981  1.00  0.00    -0.243 A  
HETATM    4  C   UNL     1     -10.281  12.133  67.410  1.00  0.00    -0.198 A  
HETATM    5  C   UNL     1     -10.297  10.922  68.115  1.00  0.00    -0.202 A  
HETATM    6  C   UNL     1     -11.541  13.138  69.216  1.00  0.00    -0.370 A  
HETATM    7  C   UNL     1     -11.589  11.917  69.891  1.00  0.00    -0.333 A  
HETATM    8  C   UNL     1     -10.997  10.796  69.317  1.00  0.00    -0.292 A  
BRANCH   4   9
HETATM    9  O   UNL     1      -9.682  12.224  66.180  1.00  0.00    -0.239 OA 
HETATM   10  C   UNL     1     -10.309  11.460  65.150  1.00  0.00    -0.290 C  
ENDBRANCH   4   9
BRANCH   8  11
HETATM   11  C   UNL     1     -11.111   9.450  69.977  1.00  0.00    -0.248 C  
BRANCH  11  12
HETATM   12  C   UNL     1      -9.912   9.116  70.846  1.00  0.00    -0.288 C  
BRANCH  12  13
HETATM   13  O   UNL     1      -9.073   8.165  70.187  1.00  0.00    -0.146 OA 
BRANCH  13  14
HETATM   14  C   UNL     1      -7.784   8.651  69.763  1.00  0.00    -0.088 C  
HETATM   15  C   UNL     1      -7.330   9.826  70.644  1.00  0.00    -0.070 C  
HETATM   16  C   UNL     1      -6.104  10.544  70.101  1.00  0.00    -0.105 C  
HETATM   17  C   UNL     1      -6.341  10.963  68.658  1.00  0.00    -0.050 C  
HETATM   18  C   UNL     1      -6.511   9.723  67.784  1.00  0.00    -0.057 C  
HETATM   19  C   UNL     1      -7.734   8.901  68.217  1.00  0.00    -0.096 C  
BRANCH  19  20
HETATM   20  N   UNL     1      -7.998   7.631  67.499  1.00  0.00    -0.118 NA 
HETATM   21  C   UNL     1      -8.819   7.720  66.290  1.00  0.00    -0.160 C  
HETATM   22  C   UNL     1     -10.249   7.471  66.743  1.00  0.00    -0.324 C  
HETATM   23  C   UNL     1     -10.107   6.576  67.968  1.00  0.00    -0.150 C  
HETATM   24  C   UNL     1      -8.613   6.577  68.309  1.00  0.00    -0.115 C  
HETATM   25  O   UNL     1     -10.571   5.265  67.666  1.00  0.00    -0.156 OA 
HETATM   26  H   UNL     1     -10.483   4.707  68.430  1.00  0.00     0.000 HD 
ENDBRANCH  19  20
ENDBRANCH  13  14
ENDBRANCH  12  13
ENDBRANCH  11  12
ENDBRANCH   8  11
ENDBRANCH   2   3
TORSDOF 7
ENDMDL
MODEL      296
REMARK 921   NORMALIZED FREE ENERGY PREDICTED BY IDOCK:   -2.95 KCAL/MOL
REMARK 922        TOTAL FREE ENERGY PREDICTED BY IDOCK:   -5.08 KCAL/MOL
REMARK 923 INTER-LIGAND FREE ENERGY PREDICTED BY IDOCK:   -4.10 KCAL/MOL
REMARK 924 INTRA-LIGAND FREE ENERGY PREDICTED BY IDOCK:   -0.98 KCAL/MOL
REMARK 927      BINDING AFFINITY PREDICTED BY RF-SCORE:    0.00 PKD
ROOT
HETATM    1  C   UNL     1      -5.991  12.564  70.334  1.00  0.00    -0.100 C  
HETATM    2  O   UNL     1      -6.113  11.257  69.795  1.00  0.00    -0.082 OA 
ENDROOT
BRANCH   2   3
HETATM    3  C   UNL     1      -7.381  10.814  69.521  1.00  0.00    -0.124 A  
HETATM    4  C   UNL     1      -8.298  11.353  68.608  1.00  0.00    -0.136 A  
HETATM    5  C   UNL     1      -9.567  10.771  68.495  1.00  0.00    -0.183 A  
HETATM    6  C   UNL     1      -7.773   9.743  70.337  1.00  0.00    -0.159 A  
HETATM    7  C   UNL     1      -9.055   9.197  70.248  1.00  0.00    -0.247 A  
HETATM    8  C   UNL     1      -9.967   9.741  69.348  1.00  0.00    -0.217 A  
BRANCH   4   9
HETATM    9  O   UNL     1      -7.947  12.433  67.839  1.00  0.00    -0.131 OA 
HETATM   10  C   UNL     1      -9.043  13.127  67.244  1.00  0.00    -0.217 C  
ENDBRANCH   4   9
BRANCH   8  11
HETATM   11  C   UNL     1     -11.381   9.234  69.294  1.00  0.00     0.176 C  
BRANCH  11  12
HETATM   12  C   UNL     1     -11.851   8.654  70.616  1.00  0.00    -0.102 C  
BRANCH  12  13
HETATM   13  O   UNL     1     -11.841   7.227  70.563  1.00  0.00    -0.276 OA 
BRANCH  13  14
HETATM   14  C   UNL     1     -11.214   6.560  71.677  1.00  0.00    -0.270 C  
HETATM   15  C   UNL     1     -11.034   7.528  72.857  1.00  0.00    -0.434 C  
HETATM   16  C   UNL     1     -10.159   6.963  73.966  1.00  0.00    -0.383 C  
HETATM   17  C   UNL     1      -8.829   6.496  73.395  1.00  0.00    -0.134 C  
HETATM   18  C   UNL     1      -9.062   5.338  72.428  1.00  0.00    -0.143 C  
HETATM   19  C   UNL     1      -9.931   5.774  71.239  1.00  0.00    -0.191 C  
BRANCH  19  20
HETATM   20  N   UNL     1     -10.297   4.742  70.240  1.00  0.00    -0.194 NA 
HETATM   21  C   UNL     1      -9.742   3.403  70.447  1.00  0.00    -0.080 C  
HETATM   22  C   UNL     1      -8.450   3.362  69.647  1.00  0.00    -0.097 C  
HETATM   23  C   UNL     1      -8.684   4.340  68.502  1.00  0.00    -0.097 C  
HETATM   24  C   UNL     1      -9.979   5.081  68.851  1.00  0.00    -0.166 C  
HETATM   25  O   UNL     1      -8.806   3.628  67.275  1.00  0.00    -0.109 OA 
HETATM   26  H   UNL     1      -8.952   4.238  66.561  1.00  0.00     0.000 HD 
ENDBRANCH  19  20
ENDBRANCH  13  14
ENDBRANCH  12  13
ENDBRANCH  11  12
ENDBRANCH   8  11
ENDBRANCH   2   3
TORSDOF 7
ENDMDL
MODEL      297
REMARK 921   NORMALIZED FREE ENERGY PREDICTED BY IDOCK:   -2.93 KCAL/MOL
REMARK 922        TOTAL FREE ENERGY PREDICTED BY IDOCK:   -5.05 KCAL/MOL
REMARK 923 INTER-LIGAND FREE ENERGY PREDICTED BY IDOCK:   -4.03 KCAL/MOL
REMARK 924 INTRA-LIGAND FREE ENERGY PREDICTED BY IDOCK:   -1.02 KCAL/MOL
REMARK 927      BINDING AFFINITY PREDICTED BY RF-SCORE:    0.00 PKD
ROOT
HETATM    1  C   UNL     1     -11.797  12.754  64.929  1.00  0.00    -0.379 C  
HETATM    2  O   UNL     1     -12.047  12.876  66.321  1.00  0.00    -0.415 OA 
ENDROOT
BRANCH   2   3
HETATM    3  C   UNL     1     -11.456  11.950  67.141  1.00  0.00    -0.319 A  
HETATM    4  C   UNL     1     -11.118  12.095  68.494  1.00  0.00    -0.252 A  
HETATM    5  C   UNL     1     -10.485  11.035  69.155  1.00  0.00    -0.238 A  
HETATM    6  C   UNL     1     -11.104  10.771  66.468  1.00  0.00    -0.061 A  
HETATM    7  C   UNL     1     -10.434   9.736  67.124  1.00  0.00    -0.316 A  
HETATM    8  C   UNL     1     -10.090   9.887  68.464  1.00  0.00    -0.186 A  
BRANCH   4   9
HETATM    9  O   UNL     1     -11.410  13.263  69.152  1.00  0.00    -0.266 OA 
HETATM   10  C   UNL     1     -12.338  13.129  70.228  1.00  0.00    -0.249 C  
ENDBRANCH   4   9
BRANCH   8  11
HETATM   11  C   UNL     1      -9.291   8.829  69.171  1.00  0.00    -0.149 C  
BRANCH  11  12
HETATM   12  C   UNL     1      -7.809   9.155  69.237  1.00  0.00    -0.095 C  
BRANCH  12  13
HETATM   13  O   UNL     1      -7.042   8.083  68.686  1.00  0.00    -0.068 OA 
BRANCH  13  14
HETATM   14  C   UNL     1      -6.643   8.238  67.310  1.00  0.00    -0.058 C  
HETATM   15  C   UNL     1      -6.181   9.678  67.037  1.00  0.00    -0.064 C  
HETATM   16  C   UNL     1      -5.984   9.974  65.558  1.00  0.00    -0.087 C  
HETATM   17  C   UNL     1      -7.243   9.615  64.783  1.00  0.00    -0.119 C  
HETATM   18  C   UNL     1      -7.489   8.112  64.870  1.00  0.00    -0.092 C  
HETATM   19  C   UNL     1      -7.719   7.670  66.323  1.00  0.00    -0.089 C  
BRANCH  19  20
HETATM   20  N   UNL     1      -7.913   6.223  66.578  1.00  0.00    -0.107 NA 
HETATM   21  C   UNL     1      -6.704   5.400  66.648  1.00  0.00    -0.058 C  
HETATM   22  C   UNL     1      -6.485   4.868  65.241  1.00  0.00    -0.036 C  
HETATM   23  C   UNL     1      -7.884   4.798  64.641  1.00  0.00    -0.088 C  
HETATM   24  C   UNL     1      -8.793   5.537  65.629  1.00  0.00    -0.152 C  
HETATM   25  O   UNL     1      -8.278   3.438  64.488  1.00  0.00    -0.089 OA 
HETATM   26  H   UNL     1      -9.150   3.395  64.115  1.00  0.00     0.000 HD 
ENDBRANCH  19  20
ENDBRANCH  13  14
ENDBRANCH  12  13
ENDBRANCH  11  12
ENDBRANCH   8  11
ENDBRANCH   2   3
TORSDOF 7
ENDMDL
MODEL      298
REMARK 921   NORMALIZED FREE ENERGY PREDICTED BY IDOCK:   -2.92 KCAL/MOL
REMARK 922        TOTAL FREE ENERGY PREDICTED BY IDOCK:   -5.04 KCAL/MOL
REMARK 923 INTER-LIGAND FREE ENERGY PREDICTED BY IDOCK:   -4.64 KCAL/MOL
REMARK 924 INTRA-LIGAND FREE ENERGY PREDICTED BY IDOCK:   -0.40 KCAL/MOL
REMARK 927      BINDING AFFINITY PREDICTED BY RF-SCORE:    0.00 PKD
ROOT
HETATM    1  C   UNL     1      -6.498   6.927  66.640  1.00  0.00    -0.047 C  
HETATM    2  O   UNL     1      -6.877   8.109  65.950  1.00  0.00    -0.058 OA 
ENDROOT
BRANCH   2   3
HETATM    3  C   UNL     1      -7.208   9.195  66.717  1.00  0.00    -0.086 A  
HETATM    4  C   UNL     1      -8.401   9.416  67.419  1.00  0.00    -0.125 A  
HETATM    5  C   UNL     1      -8.564  10.616  68.124  1.00  0.00    -0.123 A  
HETATM    6  C   UNL     1      -6.230  10.200  66.692  1.00  0.00    -0.070 A  
HETATM    7  C   UNL     1      -6.419  11.410  67.362  1.00  0.00    -0.083 A  
HETATM    8  C   UNL     1      -7.608  11.632  68.050  1.00  0.00    -0.117 A  
BRANCH   4   9
HETATM    9  O   UNL     1      -9.389   8.465  67.410  1.00  0.00    -0.143 OA 
HETATM   10  C   UNL     1      -9.787   8.003  68.700  1.00  0.00    -0.174 C  
ENDBRANCH   4   9
BRANCH   8  11
HETATM   11  C   UNL     1      -7.876  12.957  68.704  1.00  0.00    -0.044 C  
BRANCH  11  12
HETATM   12  C   UNL     1      -7.041  14.083  68.121  1.00  0.00    -0.125 C  
BRANCH  12  13
HETATM   13  O   UNL     1      -7.508  14.421  66.815  1.00  0.00     0.208 OA 
BRANCH  13  14
HETATM   14  C   UNL     1      -8.911  14.736  66.711  1.00  0.00    -0.266 C  
HETATM   15  C   UNL     1      -9.674  13.594  66.021  1.00  0.00    -0.239 C  
HETATM   16  C   UNL     1     -11.104  13.963  65.656  1.00  0.00    -0.298 C  
HETATM   17  C   UNL     1     -11.119  15.244  64.836  1.00  0.00    -0.435 C  
HETATM   18  C   UNL     1     -10.600  16.403  65.683  1.00  0.00    -0.337 C  
HETATM   19  C   UNL     1      -9.146  16.167  66.117  1.00  0.00    -0.347 C  
BRANCH  19  20
HETATM   20  N   UNL     1      -8.518  17.180  66.998  1.00  0.00    -0.202 NA 
HETATM   21  C   UNL     1      -8.985  17.222  68.385  1.00  0.00    -0.269 C  
HETATM   22  C   UNL     1     -10.102  18.253  68.414  1.00  0.00    -0.412 C  
HETATM   23  C   UNL     1      -9.748  19.224  67.295  1.00  0.00    -0.328 C  
HETATM   24  C   UNL     1      -8.607  18.561  66.518  1.00  0.00    -0.276 C  
HETATM   25  O   UNL     1      -9.346  20.473  67.848  1.00  0.00    -0.241 OA 
HETATM   26  H   UNL     1      -9.125  21.079  67.150  1.00  0.00     0.000 HD 
ENDBRANCH  19  20
ENDBRANCH  13  14
ENDBRANCH  12  13
ENDBRANCH  11  12
ENDBRANCH   8  11
ENDBRANCH   2   3
TORSDOF 7
ENDMDL
MODEL      299
REMARK 921   NORMALIZED FREE ENERGY PREDICTED BY IDOCK:   -2.92 KCAL/MOL
REMARK 922        TOTAL FREE ENERGY PREDICTED BY IDOCK:   -5.03 KCAL/MOL
REMARK 923 INTER-LIGAND FREE ENERGY PREDICTED BY IDOCK:   -4.52 KCAL/MOL
REMARK 924 INTRA-LIGAND FREE ENERGY PREDICTED BY IDOCK:   -0.52 KCAL/MOL
REMARK 927      BINDING AFFINITY PREDICTED BY RF-SCORE:    0.00 PKD
ROOT
HETATM    1  C   UNL     1     -11.296  16.323  68.511  1.00  0.00    -0.330 C  
HETATM    2  O   UNL     1     -10.207  17.061  67.976  1.00  0.00    -0.288 OA 
ENDROOT
BRANCH   2   3
HETATM    3  C   UNL     1      -8.978  16.455  67.995  1.00  0.00    -0.185 A  
HETATM    4  C   UNL     1      -7.959  16.557  67.038  1.00  0.00    -0.203 A  
HETATM    5  C   UNL     1      -6.776  15.828  67.223  1.00  0.00    -0.197 A  
HETATM    6  C   UNL     1      -8.814  15.587  69.084  1.00  0.00    -0.253 A  
HETATM    7  C   UNL     1      -7.650  14.832  69.237  1.00  0.00    -0.144 A  
HETATM    8  C   UNL     1      -6.643  14.926  68.280  1.00  0.00    -0.117 A  
BRANCH   4   9
HETATM    9  O   UNL     1      -8.125  17.363  65.940  1.00  0.00    -0.537 OA 
HETATM   10  C   UNL     1      -7.100  18.337  65.750  1.00  0.00    -0.224 C  
ENDBRANCH   4   9
BRANCH   8  11
HETATM   11  C   UNL     1      -5.419  14.059  68.372  1.00  0.00    -0.106 C  
BRANCH  11  12
HETATM   12  C   UNL     1      -5.629  12.678  67.776  1.00  0.00    -0.122 C  
BRANCH  12  13
HETATM   13  O   UNL     1      -7.022  12.369  67.722  1.00  0.00    -0.093 OA 
BRANCH  13  14
HETATM   14  C   UNL     1      -7.442  11.221  68.486  1.00  0.00    -0.115 C  
HETATM   15  C   UNL     1      -6.660  11.132  69.806  1.00  0.00    -0.138 C  
HETATM   16  C   UNL     1      -6.872   9.816  70.540  1.00  0.00    -0.129 C  
HETATM   17  C   UNL     1      -6.575   8.647  69.613  1.00  0.00    -0.039 C  
HETATM   18  C   UNL     1      -7.574   8.638  68.459  1.00  0.00    -0.095 C  
HETATM   19  C   UNL     1      -7.461   9.917  67.616  1.00  0.00    -0.090 C  
BRANCH  19  20
HETATM   20  N   UNL     1      -8.411  10.084  66.491  1.00  0.00    -0.125 NA 
HETATM   21  C   UNL     1      -9.570   9.189  66.471  1.00  0.00    -0.227 C  
HETATM   22  C   UNL     1      -9.158   7.998  65.621  1.00  0.00    -0.049 C  
HETATM   23  C   UNL     1      -8.134   8.566  64.646  1.00  0.00    -0.153 C  
HETATM   24  C   UNL     1      -7.817   9.976  65.156  1.00  0.00    -0.136 C  
HETATM   25  O   UNL     1      -8.682   8.599  63.332  1.00  0.00    -0.419 OA 
HETATM   26  H   UNL     1      -8.044   8.953  62.725  1.00  0.00     0.000 HD 
ENDBRANCH  19  20
ENDBRANCH  13  14
ENDBRANCH  12  13
ENDBRANCH  11  12
ENDBRANCH   8  11
ENDBRANCH   2   3
TORSDOF 7
ENDMDL
MODEL      300
REMARK 921   NORMALIZED FREE ENERGY PREDICTED BY IDOCK:   -2.90 KCAL/MOL
REMARK 922        TOTAL FREE ENERGY PREDICTED BY IDOCK:   -5.01 KCAL/MOL
REMARK 923 INTER-LIGAND FREE ENERGY PREDICTED BY IDOCK:   -4.35 KCAL/MOL
REMARK 924 INTRA-LIGAND FREE ENERGY PREDICTED BY IDOCK:   -0.67 KCAL/MOL
REMARK 927      BINDING AFFINITY PREDICTED BY RF-SCORE:    0.00 PKD
ROOT
HETATM    1  C   UNL     1      -6.528   2.344  67.799  1.00  0.00    -0.032 C  
HETATM    2  O   UNL     1      -6.528   3.650  67.243  1.00  0.00    -0.036 OA 
ENDROOT
BRANCH   2   3
HETATM    3  C   UNL     1      -7.577   4.467  67.576  1.00  0.00    -0.077 A  
HETATM    4  C   UNL     1      -8.705   4.771  66.801  1.00  0.00    -0.107 A  
HETATM    5  C   UNL     1      -9.659   5.662  67.310  1.00  0.00    -0.125 A  
HETATM    6  C   UNL     1      -7.403   5.101  68.815  1.00  0.00    -0.062 A  
HETATM    7  C   UNL     1      -8.338   6.019  69.295  1.00  0.00    -0.115 A  
HETATM    8  C   UNL     1      -9.452   6.329  68.519  1.00  0.00    -0.123 A  
BRANCH   4   9
HETATM    9  O   UNL     1      -8.863   4.199  65.565  1.00  0.00    -0.117 OA 
HETATM   10  C   UNL     1      -8.644   5.081  64.464  1.00  0.00    -0.143 C  
ENDBRANCH   4   9
BRANCH   8  11
HETATM   11  C   UNL     1     -10.427   7.379  68.969  1.00  0.00    -0.217 C  
BRANCH  11  12
HETATM   12  C   UNL     1     -10.889   8.279  67.836  1.00  0.00     0.033 C  
BRANCH  12  13
HETATM   13  O   UNL     1     -10.705   9.651  68.187  1.00  0.00    -0.229 OA 
BRANCH  13  14
HETATM   14  C   UNL     1     -10.059  10.472  67.194  1.00  0.00    -0.209 C  
HETATM   15  C   UNL     1      -8.727   9.844  66.752  1.00  0.00    -0.137 C  
HETATM   16  C   UNL     1      -7.880  10.775  65.898  1.00  0.00    -0.131 C  
HETATM   17  C   UNL     1      -7.682  12.103  66.613  1.00  0.00     0.122 C  
HETATM   18  C   UNL     1      -9.027  12.806  66.773  1.00  0.00    -0.188 C  
HETATM   19  C   UNL     1      -9.990  11.975  67.634  1.00  0.00    -0.191 C  
BRANCH  19  20
HETATM   20  N   UNL     1     -11.362  12.498  67.833  1.00  0.00    -0.270 NA 
HETATM   21  C   UNL     1     -11.886  13.377  66.785  1.00  0.00    -0.403 C  
HETATM   22  C   UNL     1     -11.551  14.792  67.226  1.00  0.00    -0.385 C  
HETATM   23  C   UNL     1     -11.521  14.716  68.748  1.00  0.00    -0.296 C  
HETATM   24  C   UNL     1     -11.574  13.223  69.087  1.00  0.00    -0.319 C  
HETATM   25  O   UNL     1     -12.637  15.415  69.290  1.00  0.00    -0.591 OA 
HETATM   26  H   UNL     1     -12.617  15.367  70.238  1.00  0.00     0.000 HD 
ENDBRANCH  19  20
ENDBRANCH  13  14
ENDBRANCH  12  13
ENDBRANCH  11  12
ENDBRANCH   8  11
ENDBRANCH   2   3
TORSDOF 7
ENDMDL
MODEL      301
REMARK 921   NORMALIZED FREE ENERGY PREDICTED BY IDOCK:   -2.85 KCAL/MOL
REMARK 922        TOTAL FREE ENERGY PREDICTED BY IDOCK:   -4.94 KCAL/MOL
REMARK 923 INTER-LIGAND FREE ENERGY PREDICTED BY IDOCK:   -4.21 KCAL/MOL
REMARK 924 INTRA-LIGAND FREE ENERGY PREDICTED BY IDOCK:   -0.73 KCAL/MOL
REMARK 927      BINDING AFFINITY PREDICTED BY RF-SCORE:    0.00 PKD
ROOT
HETATM    1  C   UNL     1      -8.133   7.374  62.364  1.00  0.00    -0.119 C  
HETATM    2  O   UNL     1      -6.871   7.738  62.903  1.00  0.00    -0.076 OA 
ENDROOT
BRANCH   2   3
HETATM    3  C   UNL     1      -6.858   8.202  64.192  1.00  0.00    -0.066 A  
HETATM    4  C   UNL     1      -6.841   9.537  64.622  1.00  0.00    -0.101 A  
HETATM    5  C   UNL     1      -6.796   9.809  65.996  1.00  0.00    -0.094 A  
HETATM    6  C   UNL     1      -6.772   7.174  65.142  1.00  0.00    -0.047 A  
HETATM    7  C   UNL     1      -6.684   7.455  66.507  1.00  0.00    -0.061 A  
HETATM    8  C   UNL     1      -6.657   8.781  66.931  1.00  0.00    -0.061 A  
BRANCH   4   9
HETATM    9  O   UNL     1      -6.872  10.554  63.703  1.00  0.00    -0.052 OA 
HETATM   10  C   UNL     1      -5.685  10.694  62.923  1.00  0.00    -0.137 C  
ENDBRANCH   4   9
BRANCH   8  11
HETATM   11  C   UNL     1      -6.471   9.114  68.384  1.00  0.00    -0.055 C  
BRANCH  11  12
HETATM   12  C   UNL     1      -6.554   7.894  69.284  1.00  0.00    -0.036 C  
BRANCH  12  13
HETATM   13  O   UNL     1      -7.558   8.084  70.283  1.00  0.00    -0.078 OA 
BRANCH  13  14
HETATM   14  C   UNL     1      -8.715   7.231  70.182  1.00  0.00    -0.140 C  
HETATM   15  C   UNL     1      -8.397   5.980  69.348  1.00  0.00    -0.115 C  
HETATM   16  C   UNL     1      -9.632   5.166  68.993  1.00  0.00    -0.204 C  
HETATM   17  C   UNL     1     -10.669   6.056  68.326  1.00  0.00    -0.352 C  
HETATM   18  C   UNL     1     -11.148   7.118  69.313  1.00  0.00    -0.112 C  
HETATM   19  C   UNL     1      -9.993   8.030  69.751  1.00  0.00    -0.191 C  
BRANCH  19  20
HETATM   20  N   UNL     1     -10.288   9.077  70.758  1.00  0.00    -0.223 NA 
HETATM   21  C   UNL     1     -10.560   8.618  72.121  1.00  0.00    -0.341 C  
HETATM   22  C   UNL     1     -12.069   8.458  72.210  1.00  0.00    -0.456 C  
HETATM   23  C   UNL     1     -12.615   9.473  71.214  1.00  0.00    -0.339 C  
HETATM   24  C   UNL     1     -11.401   9.967  70.420  1.00  0.00    -0.307 C  
HETATM   25  O   UNL     1     -13.252  10.540  71.909  1.00  0.00    -0.446 OA 
HETATM   26  H   UNL     1     -13.592  11.173  71.287  1.00  0.00     0.000 HD 
ENDBRANCH  19  20
ENDBRANCH  13  14
ENDBRANCH  12  13
ENDBRANCH  11  12
ENDBRANCH   8  11
ENDBRANCH   2   3
TORSDOF 7
ENDMDL
MODEL      302
REMARK 921   NORMALIZED FREE ENERGY PREDICTED BY IDOCK:   -2.85 KCAL/MOL
REMARK 922        TOTAL FREE ENERGY PREDICTED BY IDOCK:   -4.94 KCAL/MOL
REMARK 923 INTER-LIGAND FREE ENERGY PREDICTED BY IDOCK:   -4.43 KCAL/MOL
REMARK 924 INTRA-LIGAND FREE ENERGY PREDICTED BY IDOCK:   -0.52 KCAL/MOL
REMARK 927      BINDING AFFINITY PREDICTED BY RF-SCORE:    0.00 PKD
ROOT
HETATM    1  C   UNL     1      -9.736  11.108  63.052  1.00  0.00    -0.359 C  
HETATM    2  O   UNL     1      -9.551  11.806  64.275  1.00  0.00    -0.177 OA 
ENDROOT
BRANCH   2   3
HETATM    3  C   UNL     1     -10.022  11.202  65.411  1.00  0.00    -0.259 A  
HETATM    4  C   UNL     1     -10.703  11.801  66.481  1.00  0.00    -0.265 A  
HETATM    5  C   UNL     1     -11.077  11.012  67.577  1.00  0.00    -0.366 A  
HETATM    6  C   UNL     1      -9.684   9.843  65.488  1.00  0.00    -0.370 A  
HETATM    7  C   UNL     1     -10.022   9.075  66.604  1.00  0.00    -0.349 A  
HETATM    8  C   UNL     1     -10.689   9.674  67.669  1.00  0.00    -0.324 A  
BRANCH   4   9
HETATM    9  O   UNL     1     -10.996  13.140  66.444  1.00  0.00    -0.284 OA 
HETATM   10  C   UNL     1     -11.532  13.670  67.656  1.00  0.00    -0.325 C  
ENDBRANCH   4   9
BRANCH   8  11
HETATM   11  C   UNL     1     -10.986   8.895  68.919  1.00  0.00     0.044 C  
BRANCH  11  12
HETATM   12  C   UNL     1      -9.825   8.022  69.360  1.00  0.00    -0.181 C  
BRANCH  12  13
HETATM   13  O   UNL     1     -10.286   6.986  70.228  1.00  0.00    -0.190 OA 
BRANCH  13  14
HETATM   14  C   UNL     1      -9.330   6.500  71.191  1.00  0.00    -0.163 C  
HETATM   15  C   UNL     1      -9.000   7.588  72.225  1.00  0.00    -0.167 C  
HETATM   16  C   UNL     1      -7.820   7.230  73.116  1.00  0.00    -0.114 C  
HETATM   17  C   UNL     1      -6.616   6.860  72.263  1.00  0.00    -0.057 C  
HETATM   18  C   UNL     1      -6.921   5.598  71.461  1.00  0.00    -0.068 C  
HETATM   19  C   UNL     1      -8.098   5.822  70.499  1.00  0.00    -0.110 C  
BRANCH  19  20
HETATM   20  N   UNL     1      -8.555   4.667  69.691  1.00  0.00    -0.077 NA 
HETATM   21  C   UNL     1      -8.384   3.341  70.288  1.00  0.00    -0.055 C  
HETATM   22  C   UNL     1      -7.038   2.835  69.794  1.00  0.00    -0.040 C  
HETATM   23  C   UNL     1      -6.852   3.515  68.444  1.00  0.00    -0.046 C  
HETATM   24  C   UNL     1      -7.961   4.569  68.356  1.00  0.00    -0.079 C  
HETATM   25  O   UNL     1      -6.962   2.555  67.399  1.00  0.00    -0.043 OA 
HETATM   26  H   UNL     1      -6.846   2.979  66.557  1.00  0.00     0.000 HD 
ENDBRANCH  19  20
ENDBRANCH  13  14
ENDBRANCH  12  13
ENDBRANCH  11  12
ENDBRANCH   8  11
ENDBRANCH   2   3
TORSDOF 7
ENDMDL
MODEL      303
REMARK 921   NORMALIZED FREE ENERGY PREDICTED BY IDOCK:   -2.84 KCAL/MOL
REMARK 922        TOTAL FREE ENERGY PREDICTED BY IDOCK:   -4.92 KCAL/MOL
REMARK 923 INTER-LIGAND FREE ENERGY PREDICTED BY IDOCK:   -3.89 KCAL/MOL
REMARK 924 INTRA-LIGAND FREE ENERGY PREDICTED BY IDOCK:   -1.03 KCAL/MOL
REMARK 927      BINDING AFFINITY PREDICTED BY RF-SCORE:    0.00 PKD
ROOT
HETATM    1  C   UNL     1     -10.714   5.404  67.485  1.00  0.00    -0.058 C  
HETATM    2  O   UNL     1      -9.922   6.159  66.580  1.00  0.00    -0.161 OA 
ENDROOT
BRANCH   2   3
HETATM    3  C   UNL     1      -8.932   6.937  67.122  1.00  0.00    -0.120 A  
HETATM    4  C   UNL     1      -7.850   7.531  66.458  1.00  0.00    -0.102 A  
HETATM    5  C   UNL     1      -6.918   8.269  67.200  1.00  0.00    -0.075 A  
HETATM    6  C   UNL     1      -9.027   7.049  68.517  1.00  0.00    -0.122 A  
HETATM    7  C   UNL     1      -8.071   7.750  69.253  1.00  0.00    -0.127 A  
HETATM    8  C   UNL     1      -6.991   8.330  68.593  1.00  0.00    -0.068 A  
BRANCH   4   9
HETATM    9  O   UNL     1      -7.714   7.388  65.101  1.00  0.00    -0.097 OA 
HETATM   10  C   UNL     1      -6.881   6.303  64.692  1.00  0.00    -0.047 C  
ENDBRANCH   4   9
BRANCH   8  11
HETATM   11  C   UNL     1      -5.900   9.013  69.368  1.00  0.00    -0.034 C  
BRANCH  11  12
HETATM   12  C   UNL     1      -6.384   9.586  70.688  1.00  0.00    -0.086 C  
BRANCH  12  13
HETATM   13  O   UNL     1      -6.903  10.903  70.495  1.00  0.00    -0.241 OA 
BRANCH  13  14
HETATM   14  C   UNL     1      -6.635  11.503  69.213  1.00  0.00    -0.113 C  
HETATM   15  C   UNL     1      -5.445  12.471  69.305  1.00  0.00    -0.072 C  
HETATM   16  C   UNL     1      -5.266  13.322  68.057  1.00  0.00    -0.106 C  
HETATM   17  C   UNL     1      -6.567  14.037  67.722  1.00  0.00    -0.188 C  
HETATM   18  C   UNL     1      -7.641  13.011  67.368  1.00  0.00    -0.141 C  
HETATM   19  C   UNL     1      -7.934  12.082  68.556  1.00  0.00    -0.132 C  
BRANCH  19  20
HETATM   20  N   UNL     1      -8.916  10.991  68.349  1.00  0.00    -0.152 NA 
HETATM   21  C   UNL     1      -9.554  10.924  67.032  1.00  0.00    -0.173 C  
HETATM   22  C   UNL     1     -10.842  11.722  67.157  1.00  0.00    -0.303 C  
HETATM   23  C   UNL     1     -11.229  11.588  68.625  1.00  0.00    -0.248 C  
HETATM   24  C   UNL     1     -10.016  10.954  69.314  1.00  0.00    -0.113 C  
HETATM   25  O   UNL     1     -12.386  10.769  68.748  1.00  0.00    -0.812 OA 
HETATM   26  H   UNL     1     -12.627  10.686  69.664  1.00  0.00     0.000 HD 
ENDBRANCH  19  20
ENDBRANCH  13  14
ENDBRANCH  12  13
ENDBRANCH  11  12
ENDBRANCH   8  11
ENDBRANCH   2   3
TORSDOF 7
ENDMDL
MODEL      304
REMARK 921   NORMALIZED FREE ENERGY PREDICTED BY IDOCK:   -2.81 KCAL/MOL
REMARK 922        TOTAL FREE ENERGY PREDICTED BY IDOCK:   -4.88 KCAL/MOL
REMARK 923 INTER-LIGAND FREE ENERGY PREDICTED BY IDOCK:   -4.92 KCAL/MOL
REMARK 924 INTRA-LIGAND FREE ENERGY PREDICTED BY IDOCK:    0.03 KCAL/MOL
REMARK 927      BINDING AFFINITY PREDICTED BY RF-SCORE:    0.00 PKD
ROOT
HETATM    1  C   UNL     1      -9.457  17.159  67.986  1.00  0.00    -0.262 C  
HETATM    2  O   UNL     1      -8.533  16.784  68.997  1.00  0.00    -0.231 OA 
ENDROOT
BRANCH   2   3
HETATM    3  C   UNL     1      -8.076  15.493  68.972  1.00  0.00    -0.220 A  
HETATM    4  C   UNL     1      -8.727  14.363  68.456  1.00  0.00    -0.180 A  
HETATM    5  C   UNL     1      -8.102  13.113  68.555  1.00  0.00    -0.087 A  
HETATM    6  C   UNL     1      -6.842  15.337  69.621  1.00  0.00    -0.187 A  
HETATM    7  C   UNL     1      -6.247  14.081  69.753  1.00  0.00    -0.137 A  
HETATM    8  C   UNL     1      -6.900  12.960  69.250  1.00  0.00    -0.018 A  
BRANCH   4   9
HETATM    9  O   UNL     1      -9.957  14.491  67.864  1.00  0.00    -0.221 OA 
HETATM   10  C   UNL     1     -10.100  13.800  66.623  1.00  0.00    -0.277 C  
ENDBRANCH   4   9
BRANCH   8  11
HETATM   11  C   UNL     1      -6.328  11.586  69.456  1.00  0.00    -0.116 C  
BRANCH  11  12
HETATM   12  C   UNL     1      -6.941  10.547  68.535  1.00  0.00    -0.066 C  
BRANCH  12  13
HETATM   13  O   UNL     1      -7.054   9.293  69.209  1.00  0.00    -0.056 OA 
BRANCH  13  14
HETATM   14  C   UNL     1      -8.085   8.409  68.725  1.00  0.00    -0.121 C  
HETATM   15  C   UNL     1      -7.900   8.131  67.225  1.00  0.00    -0.105 C  
HETATM   16  C   UNL     1      -9.086   7.413  66.598  1.00  0.00    -0.184 C  
HETATM   17  C   UNL     1     -10.370   8.175  66.890  1.00  0.00    -0.401 C  
HETATM   18  C   UNL     1     -10.639   8.175  68.393  1.00  0.00    -0.148 C  
HETATM   19  C   UNL     1      -9.513   8.886  69.158  1.00  0.00    -0.157 C  
BRANCH  19  20
HETATM   20  N   UNL     1      -9.600   8.916  70.637  1.00  0.00    -0.197 NA 
HETATM   21  C   UNL     1      -9.091   7.741  71.348  1.00  0.00    -0.134 C  
HETATM   22  C   UNL     1     -10.290   6.826  71.545  1.00  0.00    -0.228 C  
HETATM   23  C   UNL     1     -11.482   7.773  71.605  1.00  0.00    -0.261 C  
HETATM   24  C   UNL     1     -10.943   9.142  71.176  1.00  0.00    -0.320 C  
HETATM   25  O   UNL     1     -12.005   7.810  72.929  1.00  0.00    -0.602 OA 
HETATM   26  H   UNL     1     -12.748   8.401  72.966  1.00  0.00     0.000 HD 
ENDBRANCH  19  20
ENDBRANCH  13  14
ENDBRANCH  12  13
ENDBRANCH  11  12
ENDBRANCH   8  11
ENDBRANCH   2   3
TORSDOF 7
ENDMDL
MODEL      305
REMARK 921   NORMALIZED FREE ENERGY PREDICTED BY IDOCK:   -2.80 KCAL/MOL
REMARK 922        TOTAL FREE ENERGY PREDICTED BY IDOCK:   -4.87 KCAL/MOL
REMARK 923 INTER-LIGAND FREE ENERGY PREDICTED BY IDOCK:   -4.43 KCAL/MOL
REMARK 924 INTRA-LIGAND FREE ENERGY PREDICTED BY IDOCK:   -0.44 KCAL/MOL
REMARK 927      BINDING AFFINITY PREDICTED BY RF-SCORE:    0.00 PKD
ROOT
HETATM    1  C   UNL     1     -12.561  11.773  64.322  1.00  0.00    -0.005 C  
HETATM    2  O   UNL     1     -12.168  12.496  65.480  1.00  0.00    -0.528 OA 
ENDROOT
BRANCH   2   3
HETATM    3  C   UNL     1     -11.154  11.962  66.231  1.00  0.00    -0.314 A  
HETATM    4  C   UNL     1     -10.415  12.591  67.242  1.00  0.00    -0.220 A  
HETATM    5  C   UNL     1      -9.388  11.880  67.877  1.00  0.00    -0.187 A  
HETATM    6  C   UNL     1     -10.814  10.658  65.841  1.00  0.00    -0.030 A  
HETATM    7  C   UNL     1      -9.761   9.973  66.449  1.00  0.00    -0.266 A  
HETATM    8  C   UNL     1      -9.021  10.603  67.446  1.00  0.00    -0.138 A  
BRANCH   4   9
HETATM    9  O   UNL     1     -10.702  13.883  67.600  1.00  0.00    -0.247 OA 
HETATM   10  C   UNL     1      -9.736  14.499  68.451  1.00  0.00    -0.224 C  
ENDBRANCH   4   9
BRANCH   8  11
HETATM   11  C   UNL     1      -7.827   9.924  68.055  1.00  0.00    -0.086 C  
BRANCH  11  12
HETATM   12  C   UNL     1      -8.206   8.804  69.006  1.00  0.00    -0.117 C  
BRANCH  12  13
HETATM   13  O   UNL     1      -9.394   8.152  68.555  1.00  0.00    -0.139 OA 
BRANCH  13  14
HETATM   14  C   UNL     1     -10.231   7.587  69.583  1.00  0.00    -0.205 C  
HETATM   15  C   UNL     1     -10.759   8.686  70.518  1.00  0.00    -0.252 C  
HETATM   16  C   UNL     1     -11.440   8.138  71.763  1.00  0.00    -0.337 C  
HETATM   17  C   UNL     1     -10.513   7.168  72.480  1.00  0.00    -0.254 C  
HETATM   18  C   UNL     1     -10.249   5.956  71.590  1.00  0.00    -0.249 C  
HETATM   19  C   UNL     1      -9.546   6.366  70.287  1.00  0.00    -0.164 C  
BRANCH  19  20
HETATM   20  N   UNL     1      -9.275   5.304  69.289  1.00  0.00    -0.110 NA 
HETATM   21  C   UNL     1      -9.826   3.978  69.576  1.00  0.00    -0.064 C  
HETATM   22  C   UNL     1      -8.729   3.223  70.308  1.00  0.00    -0.125 C  
HETATM   23  C   UNL     1      -7.436   3.837  69.785  1.00  0.00    -0.052 C  
HETATM   24  C   UNL     1      -7.859   5.078  68.992  1.00  0.00    -0.080 C  
HETATM   25  O   UNL     1      -6.753   2.899  68.960  1.00  0.00    -0.036 OA 
HETATM   26  H   UNL     1      -5.947   3.282  68.635  1.00  0.00     0.000 HD 
ENDBRANCH  19  20
ENDBRANCH  13  14
ENDBRANCH  12  13
ENDBRANCH  11  12
ENDBRANCH   8  11
ENDBRANCH   2   3
TORSDOF 7
ENDMDL
MODEL      306
REMARK 921   NORMALIZED FREE ENERGY PREDICTED BY IDOCK:   -2.78 KCAL/MOL
REMARK 922        TOTAL FREE ENERGY PREDICTED BY IDOCK:   -4.84 KCAL/MOL
REMARK 923 INTER-LIGAND FREE ENERGY PREDICTED BY IDOCK:   -3.90 KCAL/MOL
REMARK 924 INTRA-LIGAND FREE ENERGY PREDICTED BY IDOCK:   -0.94 KCAL/MOL
REMARK 927      BINDING AFFINITY PREDICTED BY RF-SCORE:    0.00 PKD
ROOT
HETATM    1  C   UNL     1     -10.722   5.511  73.890  1.00  0.00    -0.221 C  
HETATM    2  O   UNL     1     -10.716   6.878  73.506  1.00  0.00    -0.325 OA 
ENDROOT
BRANCH   2   3
HETATM    3  C   UNL     1     -10.716   7.146  72.163  1.00  0.00    -0.215 A  
HETATM    4  C   UNL     1     -11.798   7.071  71.274  1.00  0.00    -0.330 A  
HETATM    5  C   UNL     1     -11.586   7.355  69.919  1.00  0.00     0.053 A  
HETATM    6  C   UNL     1      -9.440   7.448  71.666  1.00  0.00    -0.163 A  
HETATM    7  C   UNL     1      -9.230   7.687  70.307  1.00  0.00    -0.157 A  
HETATM    8  C   UNL     1     -10.304   7.603  69.425  1.00  0.00    -0.214 A  
BRANCH   4   9
HETATM    9  O   UNL     1     -13.043   6.726  71.736  1.00  0.00    -0.336 OA 
HETATM   10  C   UNL     1     -13.984   7.798  71.781  1.00  0.00    -0.385 C  
ENDBRANCH   4   9
BRANCH   8  11
HETATM   11  C   UNL     1     -10.092   7.766  67.946  1.00  0.00    -0.232 C  
BRANCH  11  12
HETATM   12  C   UNL     1      -9.222   6.673  67.351  1.00  0.00    -0.122 C  
BRANCH  12  13
HETATM   13  O   UNL     1      -9.943   5.442  67.296  1.00  0.00    -0.143 OA 
BRANCH  13  14
HETATM   14  C   UNL     1      -9.176   4.281  66.917  1.00  0.00    -0.148 C  
HETATM   15  C   UNL     1      -9.471   3.888  65.461  1.00  0.00    -0.171 C  
HETATM   16  C   UNL     1      -8.892   2.534  65.077  1.00  0.00    -0.121 C  
HETATM   17  C   UNL     1      -9.348   1.472  66.065  1.00  0.00     0.114 C  
HETATM   18  C   UNL     1      -8.784   1.781  67.450  1.00  0.00    -0.123 C  
HETATM   19  C   UNL     1      -9.302   3.129  67.972  1.00  0.00    -0.194 C  
BRANCH  19  20
HETATM   20  N   UNL     1      -8.795   3.599  69.283  1.00  0.00    -0.091 NA 
HETATM   21  C   UNL     1      -7.649   2.877  69.840  1.00  0.00    -0.043 C  
HETATM   22  C   UNL     1      -8.234   1.796  70.734  1.00  0.00    -0.063 C  
HETATM   23  C   UNL     1      -9.561   2.376  71.207  1.00  0.00    -0.152 C  
HETATM   24  C   UNL     1      -9.790   3.631  70.358  1.00  0.00    -0.026 C  
HETATM   25  O   UNL     1      -9.485   2.692  72.593  1.00  0.00    -0.095 OA 
HETATM   26  H   UNL     1     -10.313   3.053  72.888  1.00  0.00     0.000 HD 
ENDBRANCH  19  20
ENDBRANCH  13  14
ENDBRANCH  12  13
ENDBRANCH  11  12
ENDBRANCH   8  11
ENDBRANCH   2   3
TORSDOF 7
ENDMDL
MODEL      307
REMARK 921   NORMALIZED FREE ENERGY PREDICTED BY IDOCK:   -2.78 KCAL/MOL
REMARK 922        TOTAL FREE ENERGY PREDICTED BY IDOCK:   -4.83 KCAL/MOL
REMARK 923 INTER-LIGAND FREE ENERGY PREDICTED BY IDOCK:   -4.52 KCAL/MOL
REMARK 924 INTRA-LIGAND FREE ENERGY PREDICTED BY IDOCK:   -0.31 KCAL/MOL
REMARK 927      BINDING AFFINITY PREDICTED BY RF-SCORE:    0.00 PKD
ROOT
HETATM    1  C   UNL     1     -10.050  16.549  65.006  1.00  0.00     0.506 C  
HETATM    2  O   UNL     1     -11.160  15.687  64.806  1.00  0.00    -0.441 OA 
ENDROOT
BRANCH   2   3
HETATM    3  C   UNL     1     -11.097  14.448  65.387  1.00  0.00    -0.331 A  
HETATM    4  C   UNL     1     -10.883  14.147  66.739  1.00  0.00    -0.296 A  
HETATM    5  C   UNL     1     -10.819  12.804  67.136  1.00  0.00    -0.282 A  
HETATM    6  C   UNL     1     -11.188  13.403  64.457  1.00  0.00    -0.393 A  
HETATM    7  C   UNL     1     -11.080  12.069  64.854  1.00  0.00    -0.368 A  
HETATM    8  C   UNL     1     -10.856  11.772  66.196  1.00  0.00    -0.336 A  
BRANCH   4   9
HETATM    9  O   UNL     1     -10.740  15.159  67.654  1.00  0.00    -0.272 OA 
HETATM   10  C   UNL     1     -10.104  14.779  68.874  1.00  0.00    -0.237 C  
ENDBRANCH   4   9
BRANCH   8  11
HETATM   11  C   UNL     1     -10.646  10.352  66.638  1.00  0.00    -0.245 C  
BRANCH  11  12
HETATM   12  C   UNL     1      -9.361   9.750  66.099  1.00  0.00    -0.191 C  
BRANCH  12  13
HETATM   13  O   UNL     1      -8.965   8.632  66.896  1.00  0.00    -0.131 OA 
BRANCH  13  14
HETATM   14  C   UNL     1      -9.144   8.779  68.319  1.00  0.00    -0.141 C  
HETATM   15  C   UNL     1      -8.277   9.926  68.859  1.00  0.00    -0.118 C  
HETATM   16  C   UNL     1      -8.226   9.974  70.379  1.00  0.00     0.151 C  
HETATM   17  C   UNL     1      -7.802   8.621  70.930  1.00  0.00    -0.129 C  
HETATM   18  C   UNL     1      -8.857   7.573  70.588  1.00  0.00    -0.146 C  
HETATM   19  C   UNL     1      -9.006   7.409  69.068  1.00  0.00    -0.131 C  
BRANCH  19  20
HETATM   20  N   UNL     1     -10.039   6.467  68.576  1.00  0.00    -0.145 NA 
HETATM   21  C   UNL     1     -10.806   5.745  69.594  1.00  0.00    -0.348 C  
HETATM   22  C   UNL     1     -10.070   4.434  69.814  1.00  0.00    -0.101 C  
HETATM   23  C   UNL     1      -9.392   4.153  68.479  1.00  0.00    -0.156 C  
HETATM   24  C   UNL     1      -9.551   5.436  67.657  1.00  0.00    -0.127 C  
HETATM   25  O   UNL     1     -10.017   3.044  67.842  1.00  0.00    -0.113 OA 
HETATM   26  H   UNL     1      -9.594   2.869  67.009  1.00  0.00     0.000 HD 
ENDBRANCH  19  20
ENDBRANCH  13  14
ENDBRANCH  12  13
ENDBRANCH  11  12
ENDBRANCH   8  11
ENDBRANCH   2   3
TORSDOF 7
ENDMDL
MODEL      308
REMARK 921   NORMALIZED FREE ENERGY PREDICTED BY IDOCK:   -2.77 KCAL/MOL
REMARK 922        TOTAL FREE ENERGY PREDICTED BY IDOCK:   -4.83 KCAL/MOL
REMARK 923 INTER-LIGAND FREE ENERGY PREDICTED BY IDOCK:   -4.93 KCAL/MOL
REMARK 924 INTRA-LIGAND FREE ENERGY PREDICTED BY IDOCK:    0.11 KCAL/MOL
REMARK 927      BINDING AFFINITY PREDICTED BY RF-SCORE:    0.00 PKD
ROOT
HETATM    1  C   UNL     1      -8.531   8.300  67.060  1.00  0.00    -0.122 C  
HETATM    2  O   UNL     1      -7.809   8.464  68.271  1.00  0.00    -0.107 OA 
ENDROOT
BRANCH   2   3
HETATM    3  C   UNL     1      -7.455   9.742  68.616  1.00  0.00    -0.075 A  
HETATM    4  C   UNL     1      -6.543  10.142  69.602  1.00  0.00    -0.069 A  
HETATM    5  C   UNL     1      -6.340  11.510  69.828  1.00  0.00    -0.140 A  
HETATM    6  C   UNL     1      -8.182  10.717  67.917  1.00  0.00    -0.113 A  
HETATM    7  C   UNL     1      -8.005  12.077  68.178  1.00  0.00    -0.152 A  
HETATM    8  C   UNL     1      -7.107  12.472  69.165  1.00  0.00     0.020 A  
BRANCH   4   9
HETATM    9  O   UNL     1      -5.862   9.200  70.330  1.00  0.00    -0.032 OA 
HETATM   10  C   UNL     1      -5.238   9.694  71.515  1.00  0.00    -0.069 C  
ENDBRANCH   4   9
BRANCH   8  11
HETATM   11  C   UNL     1      -6.962  13.922  69.530  1.00  0.00     0.021 C  
BRANCH  11  12
HETATM   12  C   UNL     1      -7.754  14.842  68.618  1.00  0.00    -0.130 C  
BRANCH  12  13
HETATM   13  O   UNL     1      -8.416  15.849  69.385  1.00  0.00    -0.255 OA 
BRANCH  13  14
HETATM   14  C   UNL     1      -9.852  15.885  69.269  1.00  0.00    -0.259 C  
HETATM   15  C   UNL     1     -10.513  15.660  70.639  1.00  0.00    -0.023 C  
HETATM   16  C   UNL     1     -12.015  15.438  70.550  1.00  0.00    -0.394 C  
HETATM   17  C   UNL     1     -12.319  14.314  69.570  1.00  0.00    -0.272 C  
HETATM   18  C   UNL     1     -11.882  14.723  68.166  1.00  0.00    -0.318 C  
HETATM   19  C   UNL     1     -10.367  14.970  68.106  1.00  0.00    -0.239 C  
BRANCH  19  20
HETATM   20  N   UNL     1      -9.797  15.434  66.819  1.00  0.00    -0.238 NA 
HETATM   21  C   UNL     1      -9.593  16.877  66.674  1.00  0.00    -0.267 C  
HETATM   22  C   UNL     1     -10.857  17.410  66.020  1.00  0.00     0.016 C  
HETATM   23  C   UNL     1     -11.378  16.239  65.196  1.00  0.00     0.018 C  
HETATM   24  C   UNL     1     -10.544  15.028  65.627  1.00  0.00    -0.346 C  
HETATM   25  O   UNL     1     -11.219  16.515  63.809  1.00  0.00    -1.389 OA 
HETATM   26  H   UNL     1     -11.544  15.785  63.295  1.00  0.00     0.000 HD 
ENDBRANCH  19  20
ENDBRANCH  13  14
ENDBRANCH  12  13
ENDBRANCH  11  12
ENDBRANCH   8  11
ENDBRANCH   2   3
TORSDOF 7
ENDMDL
MODEL      309
REMARK 921   NORMALIZED FREE ENERGY PREDICTED BY IDOCK:   -2.77 KCAL/MOL
REMARK 922        TOTAL FREE ENERGY PREDICTED BY IDOCK:   -4.83 KCAL/MOL
REMARK 923 INTER-LIGAND FREE ENERGY PREDICTED BY IDOCK:   -3.74 KCAL/MOL
REMARK 924 INTRA-LIGAND FREE ENERGY PREDICTED BY IDOCK:   -1.08 KCAL/MOL
REMARK 927      BINDING AFFINITY PREDICTED BY RF-SCORE:    0.00 PKD
ROOT
HETATM    1  C   UNL     1     -11.104   6.439  66.914  1.00  0.00    -0.272 C  
HETATM    2  O   UNL     1     -10.423   7.682  66.986  1.00  0.00    -0.304 OA 
ENDROOT
BRANCH   2   3
HETATM    3  C   UNL     1      -9.620   7.889  68.078  1.00  0.00    -0.151 A  
HETATM    4  C   UNL     1      -8.242   7.656  68.184  1.00  0.00    -0.124 A  
HETATM    5  C   UNL     1      -7.602   7.901  69.406  1.00  0.00    -0.103 A  
HETATM    6  C   UNL     1     -10.335   8.307  69.210  1.00  0.00    -0.223 A  
HETATM    7  C   UNL     1      -9.697   8.507  70.435  1.00  0.00    -0.193 A  
HETATM    8  C   UNL     1      -8.330   8.265  70.541  1.00  0.00    -0.124 A  
BRANCH   4   9
HETATM    9  O   UNL     1      -7.538   7.198  67.100  1.00  0.00    -0.099 OA 
HETATM   10  C   UNL     1      -6.565   8.108  66.588  1.00  0.00    -0.056 C  
ENDBRANCH   4   9
BRANCH   8  11
HETATM   11  C   UNL     1      -7.634   8.385  71.867  1.00  0.00    -0.146 C  
BRANCH  11  12
HETATM   12  C   UNL     1      -6.526   7.363  72.046  1.00  0.00    -0.043 C  
BRANCH  12  13
HETATM   13  O   UNL     1      -6.997   6.251  72.809  1.00  0.00    -0.073 OA 
BRANCH  13  14
HETATM   14  C   UNL     1      -8.428   6.082  72.857  1.00  0.00    -0.117 C  
HETATM   15  C   UNL     1      -8.950   6.286  74.288  1.00  0.00    -0.153 C  
HETATM   16  C   UNL     1     -10.406   5.879  74.458  1.00  0.00    -0.238 C  
HETATM   17  C   UNL     1     -10.610   4.454  73.967  1.00  0.00    -0.332 C  
HETATM   18  C   UNL     1     -10.337   4.382  72.467  1.00  0.00    -0.252 C  
HETATM   19  C   UNL     1      -8.883   4.761  72.148  1.00  0.00    -0.124 C  
BRANCH  19  20
HETATM   20  N   UNL     1      -8.479   4.797  70.723  1.00  0.00    -0.100 NA 
HETATM   21  C   UNL     1      -9.500   4.421  69.742  1.00  0.00    -0.184 C  
HETATM   22  C   UNL     1      -9.312   2.932  69.500  1.00  0.00    -0.199 C  
HETATM   23  C   UNL     1      -7.830   2.692  69.759  1.00  0.00    -0.042 C  
HETATM   24  C   UNL     1      -7.306   3.986  70.389  1.00  0.00    -0.042 C  
HETATM   25  O   UNL     1      -7.164   2.402  68.534  1.00  0.00    -0.047 OA 
HETATM   26  H   UNL     1      -6.240   2.252  68.696  1.00  0.00     0.000 HD 
ENDBRANCH  19  20
ENDBRANCH  13  14
ENDBRANCH  12  13
ENDBRANCH  11  12
ENDBRANCH   8  11
ENDBRANCH   2   3
TORSDOF 7
ENDMDL
MODEL      310
REMARK 921   NORMALIZED FREE ENERGY PREDICTED BY IDOCK:   -2.74 KCAL/MOL
REMARK 922        TOTAL FREE ENERGY PREDICTED BY IDOCK:   -4.79 KCAL/MOL
REMARK 923 INTER-LIGAND FREE ENERGY PREDICTED BY IDOCK:   -4.42 KCAL/MOL
REMARK 924 INTRA-LIGAND FREE ENERGY PREDICTED BY IDOCK:   -0.37 KCAL/MOL
REMARK 927      BINDING AFFINITY PREDICTED BY RF-SCORE:    0.00 PKD
ROOT
HETATM    1  C   UNL     1      -8.061   7.647  62.846  1.00  0.00    -0.086 C  
HETATM    2  O   UNL     1      -7.549   7.280  64.118  1.00  0.00    -0.098 OA 
ENDROOT
BRANCH   2   3
HETATM    3  C   UNL     1      -6.995   8.278  64.876  1.00  0.00    -0.074 A  
HETATM    4  C   UNL     1      -7.153   8.497  66.252  1.00  0.00    -0.078 A  
HETATM    5  C   UNL     1      -6.525   9.602  66.842  1.00  0.00    -0.067 A  
HETATM    6  C   UNL     1      -6.257   9.196  64.115  1.00  0.00    -0.076 A  
HETATM    7  C   UNL     1      -5.670  10.317  64.704  1.00  0.00    -0.132 A  
HETATM    8  C   UNL     1      -5.838  10.540  66.068  1.00  0.00    -0.106 A  
BRANCH   4   9
HETATM    9  O   UNL     1      -7.914   7.636  67.001  1.00  0.00    -0.112 OA 
HETATM   10  C   UNL     1      -9.228   8.105  67.304  1.00  0.00    -0.138 C  
ENDBRANCH   4   9
BRANCH   8  11
HETATM   11  C   UNL     1      -5.294  11.784  66.711  1.00  0.00    -0.092 C  
BRANCH  11  12
HETATM   12  C   UNL     1      -5.791  11.978  68.133  1.00  0.00    -0.053 C  
BRANCH  12  13
HETATM   13  O   UNL     1      -7.158  12.392  68.128  1.00  0.00    -0.080 OA 
BRANCH  13  14
HETATM   14  C   UNL     1      -7.413  13.712  67.609  1.00  0.00    -0.183 C  
HETATM   15  C   UNL     1      -6.301  14.685  68.031  1.00  0.00    -0.165 C  
HETATM   16  C   UNL     1      -6.632  16.140  67.732  1.00  0.00    -0.172 C  
HETATM   17  C   UNL     1      -7.978  16.504  68.340  1.00  0.00    -0.194 C  
HETATM   18  C   UNL     1      -9.082  15.687  67.673  1.00  0.00    -0.193 C  
HETATM   19  C   UNL     1      -8.878  14.183  67.907  1.00  0.00    -0.182 C  
BRANCH  19  20
HETATM   20  N   UNL     1      -9.839  13.252  67.269  1.00  0.00    -0.229 NA 
HETATM   21  C   UNL     1     -11.170  13.785  66.971  1.00  0.00    -0.311 C  
HETATM   22  C   UNL     1     -12.029  13.449  68.179  1.00  0.00    -0.356 C  
HETATM   23  C   UNL     1     -11.405  12.180  68.745  1.00  0.00    -0.288 C  
HETATM   24  C   UNL     1     -10.077  12.006  68.002  1.00  0.00    -0.198 C  
HETATM   25  O   UNL     1     -12.274  11.074  68.526  1.00  0.00    -0.757 OA 
HETATM   26  H   UNL     1     -11.884  10.282  68.879  1.00  0.00     0.000 HD 
ENDBRANCH  19  20
ENDBRANCH  13  14
ENDBRANCH  12  13
ENDBRANCH  11  12
ENDBRANCH   8  11
ENDBRANCH   2   3
TORSDOF 7
ENDMDL
MODEL      311
REMARK 921   NORMALIZED FREE ENERGY PREDICTED BY IDOCK:   -2.73 KCAL/MOL
REMARK 922        TOTAL FREE ENERGY PREDICTED BY IDOCK:   -4.77 KCAL/MOL
REMARK 923 INTER-LIGAND FREE ENERGY PREDICTED BY IDOCK:   -4.33 KCAL/MOL
REMARK 924 INTRA-LIGAND FREE ENERGY PREDICTED BY IDOCK:   -0.44 KCAL/MOL
REMARK 927      BINDING AFFINITY PREDICTED BY RF-SCORE:    0.00 PKD
ROOT
HETATM    1  C   UNL     1     -11.516  11.353  67.629  1.00  0.00    -0.273 C  
HETATM    2  O   UNL     1     -12.424  12.284  67.059  1.00  0.00    -0.198 OA 
ENDROOT
BRANCH   2   3
HETATM    3  C   UNL     1     -11.883  13.383  66.445  1.00  0.00    -0.396 A  
HETATM    4  C   UNL     1     -11.386  13.475  65.137  1.00  0.00    -0.301 A  
HETATM    5  C   UNL     1     -10.838  14.689  64.701  1.00  0.00    -0.332 A  
HETATM    6  C   UNL     1     -11.769  14.487  67.302  1.00  0.00    -0.429 A  
HETATM    7  C   UNL     1     -11.182  15.679  66.872  1.00  0.00    -0.106 A  
HETATM    8  C   UNL     1     -10.680  15.765  65.577  1.00  0.00    -0.397 A  
BRANCH   4   9
HETATM    9  O   UNL     1     -11.443  12.388  64.303  1.00  0.00    -0.323 OA 
HETATM   10  C   UNL     1     -12.547  12.383  63.397  1.00  0.00    -0.366 C  
ENDBRANCH   4   9
BRANCH   8  11
HETATM   11  C   UNL     1      -9.963  17.002  65.116  1.00  0.00     0.740 C  
BRANCH  11  12
HETATM   12  C   UNL     1      -8.575  17.138  65.716  1.00  0.00     0.237 C  
BRANCH  12  13
HETATM   13  O   UNL     1      -8.603  18.026  66.834  1.00  0.00    -0.236 OA 
BRANCH  13  14
HETATM   14  C   UNL     1      -7.671  19.124  66.788  1.00  0.00    -0.246 C  
HETATM   15  C   UNL     1      -7.601  19.718  65.373  1.00  0.00     0.024 C  
HETATM   16  C   UNL     1      -6.461  20.709  65.195  1.00  0.00    -0.290 C  
HETATM   17  C   UNL     1      -5.146  20.075  65.621  1.00  0.00    -0.179 C  
HETATM   18  C   UNL     1      -5.186  19.760  67.114  1.00  0.00    -0.157 C  
HETATM   19  C   UNL     1      -6.296  18.750  67.439  1.00  0.00    -0.191 C  
BRANCH  19  20
HETATM   20  N   UNL     1      -6.501  18.388  68.862  1.00  0.00    -0.231 NA 
HETATM   21  C   UNL     1      -7.571  19.094  69.570  1.00  0.00     0.072 C  
HETATM   22  C   UNL     1      -6.909  20.293  70.229  1.00  0.00     0.131 C  
HETATM   23  C   UNL     1      -5.475  19.845  70.477  1.00  0.00    -0.253 C  
HETATM   24  C   UNL     1      -5.318  18.525  69.714  1.00  0.00    -0.204 C  
HETATM   25  O   UNL     1      -5.256  19.669  71.873  1.00  0.00    -0.422 OA 
HETATM   26  H   UNL     1      -4.362  19.389  72.027  1.00  0.00     0.000 HD 
ENDBRANCH  19  20
ENDBRANCH  13  14
ENDBRANCH  12  13
ENDBRANCH  11  12
ENDBRANCH   8  11
ENDBRANCH   2   3
TORSDOF 7
ENDMDL
MODEL      312
REMARK 921   NORMALIZED FREE ENERGY PREDICTED BY IDOCK:   -2.71 KCAL/MOL
REMARK 922        TOTAL FREE ENERGY PREDICTED BY IDOCK:   -4.74 KCAL/MOL
REMARK 923 INTER-LIGAND FREE ENERGY PREDICTED BY IDOCK:   -4.36 KCAL/MOL
REMARK 924 INTRA-LIGAND FREE ENERGY PREDICTED BY IDOCK:   -0.39 KCAL/MOL
REMARK 927      BINDING AFFINITY PREDICTED BY RF-SCORE:    0.00 PKD
ROOT
HETATM    1  C   UNL     1      -9.956   1.501  71.878  1.00  0.00    -0.140 C  
HETATM    2  O   UNL     1      -8.864   1.988  72.645  1.00  0.00    -0.062 OA 
ENDROOT
BRANCH   2   3
HETATM    3  C   UNL     1      -8.554   3.316  72.510  1.00  0.00    -0.084 A  
HETATM    4  C   UNL     1      -7.311   3.876  72.183  1.00  0.00    -0.056 A  
HETATM    5  C   UNL     1      -7.187   5.271  72.125  1.00  0.00    -0.087 A  
HETATM    6  C   UNL     1      -9.627   4.162  72.824  1.00  0.00    -0.170 A  
HETATM    7  C   UNL     1      -9.483   5.550  72.805  1.00  0.00    -0.160 A  
HETATM    8  C   UNL     1      -8.246   6.105  72.491  1.00  0.00    -0.108 A  
BRANCH   4   9
HETATM    9  O   UNL     1      -6.238   3.062  71.924  1.00  0.00    -0.013 OA 
HETATM   10  C   UNL     1      -6.232   2.473  70.624  1.00  0.00    -0.023 C  
ENDBRANCH   4   9
BRANCH   8  11
HETATM   11  C   UNL     1      -8.038   7.592  72.551  1.00  0.00    -0.123 C  
BRANCH  11  12
HETATM   12  C   UNL     1      -9.314   8.376  72.308  1.00  0.00    -0.286 C  
BRANCH  12  13
HETATM   13  O   UNL     1      -9.246   9.054  71.052  1.00  0.00    -0.226 OA 
BRANCH  13  14
HETATM   14  C   UNL     1     -10.231   8.665  70.073  1.00  0.00    -0.194 C  
HETATM   15  C   UNL     1     -10.607   7.185  70.241  1.00  0.00    -0.245 C  
HETATM   16  C   UNL     1     -11.447   6.646  69.092  1.00  0.00    -0.199 C  
HETATM   17  C   UNL     1     -10.754   6.919  67.766  1.00  0.00    -0.321 C  
HETATM   18  C   UNL     1     -10.660   8.425  67.535  1.00  0.00    -0.285 C  
HETATM   19  C   UNL     1      -9.820   9.104  68.626  1.00  0.00    -0.164 C  
BRANCH  19  20
HETATM   20  N   UNL     1      -9.686  10.579  68.573  1.00  0.00    -0.159 NA 
HETATM   21  C   UNL     1     -10.776  11.358  69.163  1.00  0.00    -0.189 C  
HETATM   22  C   UNL     1     -11.737  11.654  68.023  1.00  0.00    -0.351 C  
HETATM   23  C   UNL     1     -10.854  11.678  66.782  1.00  0.00    -0.277 C  
HETATM   24  C   UNL     1      -9.493  11.137  67.233  1.00  0.00    -0.164 C  
HETATM   25  O   UNL     1     -10.748  13.010  66.289  1.00  0.00    -0.272 OA 
HETATM   26  H   UNL     1     -10.197  13.025  65.515  1.00  0.00     0.000 HD 
ENDBRANCH  19  20
ENDBRANCH  13  14
ENDBRANCH  12  13
ENDBRANCH  11  12
ENDBRANCH   8  11
ENDBRANCH   2   3
TORSDOF 7
ENDMDL
MODEL      313
REMARK 921   NORMALIZED FREE ENERGY PREDICTED BY IDOCK:   -2.70 KCAL/MOL
REMARK 922        TOTAL FREE ENERGY PREDICTED BY IDOCK:   -4.73 KCAL/MOL
REMARK 923 INTER-LIGAND FREE ENERGY PREDICTED BY IDOCK:   -4.01 KCAL/MOL
REMARK 924 INTRA-LIGAND FREE ENERGY PREDICTED BY IDOCK:   -0.71 KCAL/MOL
REMARK 927      BINDING AFFINITY PREDICTED BY RF-SCORE:    0.00 PKD
ROOT
HETATM    1  C   UNL     1      -5.959  12.572  70.303  1.00  0.00    -0.126 C  
HETATM    2  O   UNL     1      -5.618  11.499  69.437  1.00  0.00    -0.051 OA 
ENDROOT
BRANCH   2   3
HETATM    3  C   UNL     1      -6.580  11.087  68.552  1.00  0.00    -0.059 A  
HETATM    4  C   UNL     1      -7.158  11.826  67.510  1.00  0.00    -0.113 A  
HETATM    5  C   UNL     1      -8.158  11.233  66.728  1.00  0.00    -0.159 A  
HETATM    6  C   UNL     1      -7.052   9.794  68.821  1.00  0.00    -0.067 A  
HETATM    7  C   UNL     1      -8.079   9.227  68.064  1.00  0.00    -0.104 A  
HETATM    8  C   UNL     1      -8.659   9.966  67.037  1.00  0.00    -0.130 A  
BRANCH   4   9
HETATM    9  O   UNL     1      -6.743  13.111  67.267  1.00  0.00    -0.144 OA 
HETATM   10  C   UNL     1      -7.695  14.121  67.598  1.00  0.00    -0.174 C  
ENDBRANCH   4   9
BRANCH   8  11
HETATM   11  C   UNL     1      -9.825   9.417  66.265  1.00  0.00    -0.351 C  
BRANCH  11  12
HETATM   12  C   UNL     1     -10.650   8.427  67.068  1.00  0.00    -0.246 C  
BRANCH  12  13
HETATM   13  O   UNL     1     -10.518   7.114  66.521  1.00  0.00    -0.167 OA 
BRANCH  13  14
HETATM   14  C   UNL     1     -10.587   6.028  67.466  1.00  0.00    -0.273 C  
HETATM   15  C   UNL     1     -10.898   6.555  68.876  1.00  0.00    -0.354 C  
HETATM   16  C   UNL     1     -10.739   5.499  69.959  1.00  0.00    -0.356 C  
HETATM   17  C   UNL     1      -9.359   4.865  69.871  1.00  0.00    -0.204 C  
HETATM   18  C   UNL     1      -9.218   4.119  68.547  1.00  0.00    -0.200 C  
HETATM   19  C   UNL     1      -9.347   5.076  67.353  1.00  0.00    -0.127 C  
BRANCH  19  20
HETATM   20  N   UNL     1      -9.292   4.490  65.993  1.00  0.00    -0.145 NA 
HETATM   21  C   UNL     1      -8.983   3.061  65.907  1.00  0.00    -0.145 C  
HETATM   22  C   UNL     1      -7.475   2.975  65.735  1.00  0.00    -0.073 C  
HETATM   23  C   UNL     1      -7.100   4.272  65.029  1.00  0.00    -0.062 C  
HETATM   24  C   UNL     1      -8.360   5.144  65.073  1.00  0.00    -0.144 C  
HETATM   25  O   UNL     1      -6.703   3.997  63.689  1.00  0.00    -0.040 OA 
HETATM   26  H   UNL     1      -6.470   4.806  63.249  1.00  0.00     0.000 HD 
ENDBRANCH  19  20
ENDBRANCH  13  14
ENDBRANCH  12  13
ENDBRANCH  11  12
ENDBRANCH   8  11
ENDBRANCH   2   3
TORSDOF 7
ENDMDL
MODEL      314
REMARK 921   NORMALIZED FREE ENERGY PREDICTED BY IDOCK:   -2.69 KCAL/MOL
REMARK 922        TOTAL FREE ENERGY PREDICTED BY IDOCK:   -4.71 KCAL/MOL
REMARK 923 INTER-LIGAND FREE ENERGY PREDICTED BY IDOCK:   -3.98 KCAL/MOL
REMARK 924 INTRA-LIGAND FREE ENERGY PREDICTED BY IDOCK:   -0.74 KCAL/MOL
REMARK 927      BINDING AFFINITY PREDICTED BY RF-SCORE:    0.00 PKD
ROOT
HETATM    1  C   UNL     1      -7.847  10.221  63.398  1.00  0.00    -0.136 C  
HETATM    2  O   UNL     1      -8.044  10.476  64.780  1.00  0.00    -0.154 OA 
ENDROOT
BRANCH   2   3
HETATM    3  C   UNL     1      -8.873   9.621  65.457  1.00  0.00    -0.172 A  
HETATM    4  C   UNL     1      -9.961   9.952  66.277  1.00  0.00    -0.256 A  
HETATM    5  C   UNL     1     -10.671   8.926  66.913  1.00  0.00    -0.153 A  
HETATM    6  C   UNL     1      -8.488   8.278  65.337  1.00  0.00    -0.189 A  
HETATM    7  C   UNL     1      -9.175   7.265  66.009  1.00  0.00    -0.079 A  
HETATM    8  C   UNL     1     -10.248   7.597  66.831  1.00  0.00    -0.365 A  
BRANCH   4   9
HETATM    9  O   UNL     1     -10.319  11.265  66.446  1.00  0.00    -0.229 OA 
HETATM   10  C   UNL     1      -9.738  11.904  67.583  1.00  0.00    -0.185 C  
ENDBRANCH   4   9
BRANCH   8  11
HETATM   11  C   UNL     1     -10.949   6.540  67.636  1.00  0.00    -0.426 C  
BRANCH  11  12
HETATM   12  C   UNL     1      -9.988   5.656  68.412  1.00  0.00    -0.156 C  
BRANCH  12  13
HETATM   13  O   UNL     1      -9.289   6.424  69.391  1.00  0.00    -0.141 OA 
BRANCH  13  14
HETATM   14  C   UNL     1      -7.918   6.045  69.627  1.00  0.00    -0.106 C  
HETATM   15  C   UNL     1      -7.318   5.376  68.381  1.00  0.00    -0.072 C  
HETATM   16  C   UNL     1      -5.965   4.730  68.640  1.00  0.00    -0.026 C  
HETATM   17  C   UNL     1      -6.061   3.774  69.819  1.00  0.00    -0.023 C  
HETATM   18  C   UNL     1      -6.393   4.554  71.089  1.00  0.00    -0.019 C  
HETATM   19  C   UNL     1      -7.754   5.255  70.970  1.00  0.00    -0.097 C  
BRANCH  19  20
HETATM   20  N   UNL     1      -8.191   6.104  72.103  1.00  0.00    -0.110 NA 
HETATM   21  C   UNL     1      -7.660   5.759  73.424  1.00  0.00    -0.095 C  
HETATM   22  C   UNL     1      -8.685   4.827  74.051  1.00  0.00    -0.108 C  
HETATM   23  C   UNL     1     -10.009   5.244  73.423  1.00  0.00    -0.168 C  
HETATM   24  C   UNL     1      -9.642   6.201  72.284  1.00  0.00    -0.152 C  
HETATM   25  O   UNL     1     -10.827   5.884  74.397  1.00  0.00    -0.362 OA 
HETATM   26  H   UNL     1     -11.652   6.144  74.005  1.00  0.00     0.000 HD 
ENDBRANCH  19  20
ENDBRANCH  13  14
ENDBRANCH  12  13
ENDBRANCH  11  12
ENDBRANCH   8  11
ENDBRANCH   2   3
TORSDOF 7
ENDMDL
MODEL      315
REMARK 921   NORMALIZED FREE ENERGY PREDICTED BY IDOCK:   -2.69 KCAL/MOL
REMARK 922        TOTAL FREE ENERGY PREDICTED BY IDOCK:   -4.71 KCAL/MOL
REMARK 923 INTER-LIGAND FREE ENERGY PREDICTED BY IDOCK:   -4.87 KCAL/MOL
REMARK 924 INTRA-LIGAND FREE ENERGY PREDICTED BY IDOCK:    0.16 KCAL/MOL
REMARK 927      BINDING AFFINITY PREDICTED BY RF-SCORE:    0.00 PKD
ROOT
HETATM    1  C   UNL     1      -5.894  10.107  64.890  1.00  0.00    -0.123 C  
HETATM    2  O   UNL     1      -6.858   9.903  65.913  1.00  0.00    -0.091 OA 
ENDROOT
BRANCH   2   3
HETATM    3  C   UNL     1      -7.230  11.001  66.642  1.00  0.00    -0.143 A  
HETATM    4  C   UNL     1      -8.397  11.766  66.504  1.00  0.00    -0.093 A  
HETATM    5  C   UNL     1      -8.582  12.881  67.331  1.00  0.00    -0.195 A  
HETATM    6  C   UNL     1      -6.253  11.402  67.564  1.00  0.00    -0.069 A  
HETATM    7  C   UNL     1      -6.426  12.540  68.354  1.00  0.00    -0.066 A  
HETATM    8  C   UNL     1      -7.580  13.303  68.208  1.00  0.00    -0.139 A  
BRANCH   4   9
HETATM    9  O   UNL     1      -9.340  11.417  65.571  1.00  0.00    -0.221 OA 
HETATM   10  C   UNL     1     -10.266  12.451  65.238  1.00  0.00    -0.282 C  
ENDBRANCH   4   9
BRANCH   8  11
HETATM   11  C   UNL     1      -7.753  14.581  68.979  1.00  0.00    -0.113 C  
BRANCH  11  12
HETATM   12  C   UNL     1      -6.552  15.504  68.869  1.00  0.00    -0.113 C  
BRANCH  12  13
HETATM   13  O   UNL     1      -6.911  16.831  69.255  1.00  0.00    -0.226 OA 
BRANCH  13  14
HETATM   14  C   UNL     1      -8.011  17.421  68.533  1.00  0.00    -0.266 C  
HETATM   15  C   UNL     1      -9.345  16.801  68.975  1.00  0.00    -0.212 C  
HETATM   16  C   UNL     1     -10.513  17.194  68.084  1.00  0.00    -0.366 C  
HETATM   17  C   UNL     1     -10.188  16.886  66.630  1.00  0.00    -0.312 C  
HETATM   18  C   UNL     1      -9.014  17.748  66.172  1.00  0.00    -0.123 C  
HETATM   19  C   UNL     1      -7.749  17.443  66.988  1.00  0.00    -0.206 C  
BRANCH  19  20
HETATM   20  N   UNL     1      -6.536  18.245  66.701  1.00  0.00    -0.185 NA 
HETATM   21  C   UNL     1      -6.197  19.292  67.667  1.00  0.00    -0.203 C  
HETATM   22  C   UNL     1      -6.856  20.560  67.150  1.00  0.00    -0.341 C  
HETATM   23  C   UNL     1      -6.906  20.370  65.639  1.00  0.00    -0.247 C  
HETATM   24  C   UNL     1      -6.525  18.907  65.394  1.00  0.00    -0.273 C  
HETATM   25  O   UNL     1      -5.991  21.260  65.008  1.00  0.00    -0.261 OA 
HETATM   26  H   UNL     1      -6.023  21.141  64.066  1.00  0.00     0.000 HD 
ENDBRANCH  19  20
ENDBRANCH  13  14
ENDBRANCH  12  13
ENDBRANCH  11  12
ENDBRANCH   8  11
ENDBRANCH   2   3
TORSDOF 7
ENDMDL
MODEL      316
REMARK 921   NORMALIZED FREE ENERGY PREDICTED BY IDOCK:   -2.68 KCAL/MOL
REMARK 922        TOTAL FREE ENERGY PREDICTED BY IDOCK:   -4.70 KCAL/MOL
REMARK 923 INTER-LIGAND FREE ENERGY PREDICTED BY IDOCK:   -4.00 KCAL/MOL
REMARK 924 INTRA-LIGAND FREE ENERGY PREDICTED BY IDOCK:   -0.70 KCAL/MOL
REMARK 927      BINDING AFFINITY PREDICTED BY RF-SCORE:    0.00 PKD
ROOT
HETATM    1  C   UNL     1     -10.515  18.298  66.871  1.00  0.00    -0.373 C  
HETATM    2  O   UNL     1      -9.372  18.584  67.663  1.00  0.00    -0.277 OA 
ENDROOT
BRANCH   2   3
HETATM    3  C   UNL     1      -8.657  17.513  68.131  1.00  0.00    -0.258 A  
HETATM    4  C   UNL     1      -7.294  17.469  68.455  1.00  0.00    -0.243 A  
HETATM    5  C   UNL     1      -6.736  16.260  68.890  1.00  0.00    -0.156 A  
HETATM    6  C   UNL     1      -9.416  16.335  68.195  1.00  0.00    -0.215 A  
HETATM    7  C   UNL     1      -8.842  15.125  68.588  1.00  0.00    -0.186 A  
HETATM    8  C   UNL     1      -7.486  15.081  68.900  1.00  0.00    -0.143 A  
BRANCH   4   9
HETATM    9  O   UNL     1      -6.526  18.601  68.348  1.00  0.00    -0.216 OA 
HETATM   10  C   UNL     1      -6.028  18.865  67.037  1.00  0.00    -0.159 C  
ENDBRANCH   4   9
BRANCH   8  11
HETATM   11  C   UNL     1      -6.821  13.777  69.238  1.00  0.00    -0.078 C  
BRANCH  11  12
HETATM   12  C   UNL     1      -6.954  12.744  68.133  1.00  0.00    -0.096 C  
BRANCH  12  13
HETATM   13  O   UNL     1      -7.154  11.445  68.692  1.00  0.00    -0.081 OA 
BRANCH  13  14
HETATM   14  C   UNL     1      -8.264  10.695  68.159  1.00  0.00    -0.116 C  
HETATM   15  C   UNL     1      -9.492  11.600  67.976  1.00  0.00    -0.185 C  
HETATM   16  C   UNL     1     -10.763  10.828  67.656  1.00  0.00    -0.305 C  
HETATM   17  C   UNL     1     -10.994   9.746  68.700  1.00  0.00    -0.189 C  
HETATM   18  C   UNL     1      -9.864   8.721  68.637  1.00  0.00    -0.180 C  
HETATM   19  C   UNL     1      -8.508   9.368  68.955  1.00  0.00    -0.129 C  
BRANCH  19  20
HETATM   20  N   UNL     1      -7.302   8.511  68.875  1.00  0.00    -0.084 NA 
HETATM   21  C   UNL     1      -7.498   7.147  68.378  1.00  0.00    -0.106 C  
HETATM   22  C   UNL     1      -7.723   6.286  69.610  1.00  0.00    -0.099 C  
HETATM   23  C   UNL     1      -6.958   7.002  70.716  1.00  0.00    -0.065 C  
HETATM   24  C   UNL     1      -6.562   8.361  70.130  1.00  0.00    -0.039 C  
HETATM   25  O   UNL     1      -5.814   6.240  71.085  1.00  0.00    -0.025 OA 
HETATM   26  H   UNL     1      -5.337   6.687  71.775  1.00  0.00     0.000 HD 
ENDBRANCH  19  20
ENDBRANCH  13  14
ENDBRANCH  12  13
ENDBRANCH  11  12
ENDBRANCH   8  11
ENDBRANCH   2   3
TORSDOF 7
ENDMDL
MODEL      317
REMARK 921   NORMALIZED FREE ENERGY PREDICTED BY IDOCK:   -2.67 KCAL/MOL
REMARK 922        TOTAL FREE ENERGY PREDICTED BY IDOCK:   -4.69 KCAL/MOL
REMARK 923 INTER-LIGAND FREE ENERGY PREDICTED BY IDOCK:   -5.12 KCAL/MOL
REMARK 924 INTRA-LIGAND FREE ENERGY PREDICTED BY IDOCK:    0.44 KCAL/MOL
REMARK 927      BINDING AFFINITY PREDICTED BY RF-SCORE:    0.00 PKD
ROOT
HETATM    1  C   UNL     1     -10.554  10.115  65.926  1.00  0.00     0.028 C  
HETATM    2  O   UNL     1     -10.908  11.127  66.856  1.00  0.00    -0.262 OA 
ENDROOT
BRANCH   2   3
HETATM    3  C   UNL     1     -11.205  10.722  68.131  1.00  0.00    -0.302 A  
HETATM    4  C   UNL     1     -11.768  11.485  69.163  1.00  0.00    -0.329 A  
HETATM    5  C   UNL     1     -11.967  10.893  70.418  1.00  0.00    -0.453 A  
HETATM    6  C   UNL     1     -10.805   9.403  68.392  1.00  0.00    -0.156 A  
HETATM    7  C   UNL     1     -10.968   8.835  69.657  1.00  0.00    -0.114 A  
HETATM    8  C   UNL     1     -11.517   9.598  70.683  1.00  0.00    -0.376 A  
BRANCH   4   9
HETATM    9  O   UNL     1     -12.117  12.793  68.938  1.00  0.00    -0.269 OA 
HETATM   10  C   UNL     1     -11.185  13.756  69.428  1.00  0.00    -0.207 C  
ENDBRANCH   4   9
BRANCH   8  11
HETATM   11  C   UNL     1     -11.621   9.044  72.076  1.00  0.00    -0.413 C  
BRANCH  11  12
HETATM   12  C   UNL     1     -10.458   8.137  72.438  1.00  0.00    -0.319 C  
BRANCH  12  13
HETATM   13  O   UNL     1     -10.920   7.018  73.196  1.00  0.00    -0.295 OA 
BRANCH  13  14
HETATM   14  C   UNL     1     -10.672   5.721  72.618  1.00  0.00    -0.240 C  
HETATM   15  C   UNL     1     -11.361   4.620  73.439  1.00  0.00    -0.394 C  
HETATM   16  C   UNL     1     -10.937   3.217  73.033  1.00  0.00    -0.137 C  
HETATM   17  C   UNL     1      -9.421   3.099  73.068  1.00  0.00    -0.130 C  
HETATM   18  C   UNL     1      -8.808   4.029  72.024  1.00  0.00    -0.136 C  
HETATM   19  C   UNL     1      -9.149   5.497  72.320  1.00  0.00    -0.142 C  
BRANCH  19  20
HETATM   20  N   UNL     1      -8.675   6.520  71.359  1.00  0.00    -0.130 NA 
HETATM   21  C   UNL     1      -8.446   6.072  69.983  1.00  0.00    -0.131 C  
HETATM   22  C   UNL     1      -6.977   5.685  69.914  1.00  0.00    -0.062 C  
HETATM   23  C   UNL     1      -6.304   6.568  70.957  1.00  0.00    -0.048 C  
HETATM   24  C   UNL     1      -7.446   7.215  71.748  1.00  0.00    -0.086 C  
HETATM   25  O   UNL     1      -5.496   7.548  70.314  1.00  0.00    -0.023 OA 
HETATM   26  H   UNL     1      -5.076   8.098  70.964  1.00  0.00     0.000 HD 
ENDBRANCH  19  20
ENDBRANCH  13  14
ENDBRANCH  12  13
ENDBRANCH  11  12
ENDBRANCH   8  11
ENDBRANCH   2   3
TORSDOF 7
ENDMDL
MODEL      318
REMARK 921   NORMALIZED FREE ENERGY PREDICTED BY IDOCK:   -2.63 KCAL/MOL
REMARK 922        TOTAL FREE ENERGY PREDICTED BY IDOCK:   -4.63 KCAL/MOL
REMARK 923 INTER-LIGAND FREE ENERGY PREDICTED BY IDOCK:   -4.75 KCAL/MOL
REMARK 924 INTRA-LIGAND FREE ENERGY PREDICTED BY IDOCK:    0.12 KCAL/MOL
REMARK 927      BINDING AFFINITY PREDICTED BY RF-SCORE:    0.00 PKD
ROOT
HETATM    1  C   UNL     1      -6.937  17.276  69.067  1.00  0.00    -0.235 C  
HETATM    2  O   UNL     1      -6.841  16.654  67.794  1.00  0.00    -0.130 OA 
ENDROOT
BRANCH   2   3
HETATM    3  C   UNL     1      -7.619  15.545  67.585  1.00  0.00    -0.161 A  
HETATM    4  C   UNL     1      -7.484  14.280  68.174  1.00  0.00    -0.131 A  
HETATM    5  C   UNL     1      -8.367  13.258  67.802  1.00  0.00    -0.171 A  
HETATM    6  C   UNL     1      -8.597  15.743  66.599  1.00  0.00    -0.322 A  
HETATM    7  C   UNL     1      -9.445  14.707  66.203  1.00  0.00    -0.308 A  
HETATM    8  C   UNL     1      -9.302  13.449  66.782  1.00  0.00    -0.260 A  
BRANCH   4   9
HETATM    9  O   UNL     1      -6.499  14.057  69.102  1.00  0.00    -0.100 OA 
HETATM   10  C   UNL     1      -5.874  12.777  69.017  1.00  0.00    -0.076 C  
ENDBRANCH   4   9
BRANCH   8  11
HETATM   11  C   UNL     1     -10.139  12.293  66.311  1.00  0.00    -0.253 C  
BRANCH  11  12
HETATM   12  C   UNL     1      -9.349  11.002  66.193  1.00  0.00    -0.191 C  
BRANCH  12  13
HETATM   13  O   UNL     1     -10.224   9.876  66.279  1.00  0.00    -0.243 OA 
BRANCH  13  14
HETATM   14  C   UNL     1     -10.852   9.664  67.559  1.00  0.00    -0.198 C  
HETATM   15  C   UNL     1     -11.780  10.837  67.910  1.00  0.00    -0.059 C  
HETATM   16  C   UNL     1     -12.277  10.798  69.347  1.00  0.00    -0.242 C  
HETATM   17  C   UNL     1     -11.100  10.688  70.304  1.00  0.00    -0.310 C  
HETATM   18  C   UNL     1     -10.381   9.360  70.084  1.00  0.00    -0.273 C  
HETATM   19  C   UNL     1      -9.810   9.266  68.661  1.00  0.00    -0.162 C  
BRANCH  19  20
HETATM   20  N   UNL     1      -9.133   8.006  68.273  1.00  0.00    -0.135 NA 
HETATM   21  C   UNL     1      -9.981   6.949  67.719  1.00  0.00    -0.148 C  
HETATM   22  C   UNL     1     -10.382   6.079  68.899  1.00  0.00    -0.273 C  
HETATM   23  C   UNL     1      -9.227   6.222  69.883  1.00  0.00    -0.151 C  
HETATM   24  C   UNL     1      -8.361   7.363  69.339  1.00  0.00    -0.132 C  
HETATM   25  O   UNL     1      -8.497   5.002  69.953  1.00  0.00    -0.086 OA 
HETATM   26  H   UNL     1      -7.776   5.092  70.567  1.00  0.00     0.000 HD 
ENDBRANCH  19  20
ENDBRANCH  13  14
ENDBRANCH  12  13
ENDBRANCH  11  12
ENDBRANCH   8  11
ENDBRANCH   2   3
TORSDOF 7
ENDMDL
MODEL      319
REMARK 921   NORMALIZED FREE ENERGY PREDICTED BY IDOCK:   -2.61 KCAL/MOL
REMARK 922        TOTAL FREE ENERGY PREDICTED BY IDOCK:   -4.60 KCAL/MOL
REMARK 923 INTER-LIGAND FREE ENERGY PREDICTED BY IDOCK:   -3.69 KCAL/MOL
REMARK 924 INTRA-LIGAND FREE ENERGY PREDICTED BY IDOCK:   -0.90 KCAL/MOL
REMARK 927      BINDING AFFINITY PREDICTED BY RF-SCORE:    0.00 PKD
ROOT
HETATM    1  C   UNL     1      -6.919   4.415  73.346  1.00  0.00    -0.065 C  
HETATM    2  O   UNL     1      -7.656   5.569  73.722  1.00  0.00    -0.093 OA 
ENDROOT
BRANCH   2   3
HETATM    3  C   UNL     1      -8.455   6.134  72.764  1.00  0.00    -0.123 A  
HETATM    4  C   UNL     1      -9.854   6.230  72.763  1.00  0.00    -0.166 A  
HETATM    5  C   UNL     1     -10.495   6.820  71.666  1.00  0.00    -0.231 A  
HETATM    6  C   UNL     1      -7.736   6.581  71.646  1.00  0.00    -0.099 A  
HETATM    7  C   UNL     1      -8.386   7.128  70.539  1.00  0.00    -0.131 A  
HETATM    8  C   UNL     1      -9.775   7.212  70.535  1.00  0.00    -0.176 A  
BRANCH   4   9
HETATM    9  O   UNL     1     -10.576   5.750  73.826  1.00  0.00    -0.251 OA 
HETATM   10  C   UNL     1     -11.205   4.489  73.604  1.00  0.00    -0.264 C  
ENDBRANCH   4   9
BRANCH   8  11
HETATM   11  C   UNL     1     -10.507   7.713  69.322  1.00  0.00    -0.220 C  
BRANCH  11  12
HETATM   12  C   UNL     1     -10.908   6.598  68.373  1.00  0.00    -0.255 C  
BRANCH  12  13
HETATM   13  O   UNL     1     -10.660   6.986  67.021  1.00  0.00    -0.289 OA 
BRANCH  13  14
HETATM   14  C   UNL     1      -9.395   7.631  66.773  1.00  0.00    -0.172 C  
HETATM   15  C   UNL     1      -9.593   8.920  65.961  1.00  0.00    -0.320 C  
HETATM   16  C   UNL     1      -8.289   9.515  65.453  1.00  0.00    -0.144 C  
HETATM   17  C   UNL     1      -7.500   8.465  64.686  1.00  0.00    -0.098 C  
HETATM   18  C   UNL     1      -7.095   7.335  65.629  1.00  0.00    -0.065 C  
HETATM   19  C   UNL     1      -8.329   6.630  66.212  1.00  0.00    -0.125 C  
BRANCH  19  20
HETATM   20  N   UNL     1      -8.099   5.545  67.195  1.00  0.00    -0.102 NA 
HETATM   21  C   UNL     1      -6.737   5.407  67.714  1.00  0.00    -0.055 C  
HETATM   22  C   UNL     1      -6.050   4.395  66.811  1.00  0.00    -0.031 C  
HETATM   23  C   UNL     1      -7.182   3.503  66.316  1.00  0.00    -0.067 C  
HETATM   24  C   UNL     1      -8.476   4.205  66.740  1.00  0.00    -0.104 C  
HETATM   25  O   UNL     1      -7.073   2.211  66.903  1.00  0.00    -0.046 OA 
HETATM   26  H   UNL     1      -7.779   1.655  66.594  1.00  0.00     0.000 HD 
ENDBRANCH  19  20
ENDBRANCH  13  14
ENDBRANCH  12  13
ENDBRANCH  11  12
ENDBRANCH   8  11
ENDBRANCH   2   3
TORSDOF 7
ENDMDL
MODEL      320
REMARK 921   NORMALIZED FREE ENERGY PREDICTED BY IDOCK:   -2.59 KCAL/MOL
REMARK 922        TOTAL FREE ENERGY PREDICTED BY IDOCK:   -4.57 KCAL/MOL
REMARK 923 INTER-LIGAND FREE ENERGY PREDICTED BY IDOCK:   -5.46 KCAL/MOL
REMARK 924 INTRA-LIGAND FREE ENERGY PREDICTED BY IDOCK:    0.89 KCAL/MOL
REMARK 927      BINDING AFFINITY PREDICTED BY RF-SCORE:    0.00 PKD
ROOT
HETATM    1  C   UNL     1     -12.879  14.865  73.567  1.00  0.00    -0.463 C  
HETATM    2  O   UNL     1     -13.620  13.872  72.874  1.00  0.00    -0.680 OA 
ENDROOT
BRANCH   2   3
HETATM    3  C   UNL     1     -12.958  13.170  71.901  1.00  0.00    -0.314 A  
HETATM    4  C   UNL     1     -12.473  13.652  70.677  1.00  0.00    -0.347 A  
HETATM    5  C   UNL     1     -11.847  12.762  69.795  1.00  0.00    -0.380 A  
HETATM    6  C   UNL     1     -12.854  11.802  72.190  1.00  0.00    -0.085 A  
HETATM    7  C   UNL     1     -12.267  10.914  71.286  1.00  0.00    -0.395 A  
HETATM    8  C   UNL     1     -11.796  11.393  70.067  1.00  0.00    -0.440 A  
BRANCH   4   9
HETATM    9  O   UNL     1     -12.614  14.978  70.357  1.00  0.00    -0.347 OA 
HETATM   10  C   UNL     1     -13.871  15.552  70.715  1.00  0.00     0.127 C  
ENDBRANCH   4   9
BRANCH   8  11
HETATM   11  C   UNL     1     -11.242  10.448  69.039  1.00  0.00    -0.289 C  
BRANCH  11  12
HETATM   12  C   UNL     1      -9.811  10.774  68.648  1.00  0.00    -0.184 C  
BRANCH  12  13
HETATM   13  O   UNL     1      -8.897  10.157  69.555  1.00  0.00    -0.185 OA 
BRANCH  13  14
HETATM   14  C   UNL     1      -7.825   9.404  68.954  1.00  0.00    -0.083 C  
HETATM   15  C   UNL     1      -7.699   9.738  67.459  1.00  0.00    -0.095 C  
HETATM   16  C   UNL     1      -6.760   8.803  66.714  1.00  0.00    -0.069 C  
HETATM   17  C   UNL     1      -7.168   7.356  66.949  1.00  0.00    -0.088 C  
HETATM   18  C   UNL     1      -7.003   7.010  68.427  1.00  0.00    -0.076 C  
HETATM   19  C   UNL     1      -7.913   7.880  69.306  1.00  0.00    -0.117 C  
BRANCH  19  20
HETATM   20  N   UNL     1      -7.823   7.702  70.775  1.00  0.00    -0.095 NA 
HETATM   21  C   UNL     1      -7.767   6.324  71.267  1.00  0.00    -0.103 C  
HETATM   22  C   UNL     1      -9.206   5.930  71.558  1.00  0.00    -0.157 C  
HETATM   23  C   UNL     1      -9.894   7.243  71.909  1.00  0.00    -0.162 C  
HETATM   24  C   UNL     1      -8.892   8.344  71.544  1.00  0.00    -0.185 C  
HETATM   25  O   UNL     1     -10.213   7.268  73.296  1.00  0.00    -0.248 OA 
HETATM   26  H   UNL     1     -10.642   8.087  73.515  1.00  0.00     0.000 HD 
ENDBRANCH  19  20
ENDBRANCH  13  14
ENDBRANCH  12  13
ENDBRANCH  11  12
ENDBRANCH   8  11
ENDBRANCH   2   3
TORSDOF 7
ENDMDL
MODEL      321
REMARK 921   NORMALIZED FREE ENERGY PREDICTED BY IDOCK:   -2.54 KCAL/MOL
REMARK 922        TOTAL FREE ENERGY PREDICTED BY IDOCK:   -4.51 KCAL/MOL
REMARK 923 INTER-LIGAND FREE ENERGY PREDICTED BY IDOCK:   -4.67 KCAL/MOL
REMARK 924 INTRA-LIGAND FREE ENERGY PREDICTED BY IDOCK:    0.16 KCAL/MOL
REMARK 927      BINDING AFFINITY PREDICTED BY RF-SCORE:    0.00 PKD
ROOT
HETATM    1  C   UNL     1      -7.561  10.022  69.353  1.00  0.00    -0.123 C  
HETATM    2  O   UNL     1      -6.536  10.608  70.142  1.00  0.00    -0.127 OA 
ENDROOT
BRANCH   2   3
HETATM    3  C   UNL     1      -6.160  11.886  69.821  1.00  0.00    -0.141 A  
HETATM    4  C   UNL     1      -5.641  12.866  70.678  1.00  0.00    -0.179 A  
HETATM    5  C   UNL     1      -5.345  14.135  70.162  1.00  0.00    -0.097 A  
HETATM    6  C   UNL     1      -6.422  12.213  68.483  1.00  0.00    -0.059 A  
HETATM    7  C   UNL     1      -6.165  13.493  67.987  1.00  0.00    -0.136 A  
HETATM    8  C   UNL     1      -5.660  14.468  68.842  1.00  0.00    -0.086 A  
BRANCH   4   9
HETATM    9  O   UNL     1      -5.427  12.578  72.002  1.00  0.00    -0.377 OA 
HETATM   10  C   UNL     1      -5.129  13.707  72.822  1.00  0.00    -0.140 C  
ENDBRANCH   4   9
BRANCH   8  11
HETATM   11  C   UNL     1      -5.458  15.876  68.360  1.00  0.00    -0.106 C  
BRANCH  11  12
HETATM   12  C   UNL     1      -6.053  16.120  66.984  1.00  0.00     0.033 C  
BRANCH  12  13
HETATM   13  O   UNL     1      -7.078  17.112  67.057  1.00  0.00    -0.158 OA 
BRANCH  13  14
HETATM   14  C   UNL     1      -7.011  18.158  66.067  1.00  0.00    -0.292 C  
HETATM   15  C   UNL     1      -5.555  18.585  65.826  1.00  0.00    -0.215 C  
HETATM   16  C   UNL     1      -5.431  19.847  64.985  1.00  0.00    -0.198 C  
HETATM   17  C   UNL     1      -6.266  20.963  65.594  1.00  0.00    -0.265 C  
HETATM   18  C   UNL     1      -7.744  20.584  65.550  1.00  0.00     0.194 C  
HETATM   19  C   UNL     1      -8.018  19.318  66.376  1.00  0.00    -0.299 C  
BRANCH  19  20
HETATM   20  N   UNL     1      -9.402  18.788  66.382  1.00  0.00    -0.351 NA 
HETATM   21  C   UNL     1     -10.433  19.650  66.964  1.00  0.00    -0.479 C  
HETATM   22  C   UNL     1     -10.536  19.243  68.425  1.00  0.00    -0.193 C  
HETATM   23  C   UNL     1     -10.132  17.774  68.437  1.00  0.00    -0.376 C  
HETATM   24  C   UNL     1      -9.566  17.490  67.042  1.00  0.00    -0.268 C  
HETATM   25  O   UNL     1     -11.268  16.962  68.714  1.00  0.00    -0.228 OA 
HETATM   26  H   UNL     1     -11.015  16.046  68.722  1.00  0.00     0.000 HD 
ENDBRANCH  19  20
ENDBRANCH  13  14
ENDBRANCH  12  13
ENDBRANCH  11  12
ENDBRANCH   8  11
ENDBRANCH   2   3
TORSDOF 7
ENDMDL
MODEL      322
REMARK 921   NORMALIZED FREE ENERGY PREDICTED BY IDOCK:   -2.53 KCAL/MOL
REMARK 922        TOTAL FREE ENERGY PREDICTED BY IDOCK:   -4.49 KCAL/MOL
REMARK 923 INTER-LIGAND FREE ENERGY PREDICTED BY IDOCK:   -3.96 KCAL/MOL
REMARK 924 INTRA-LIGAND FREE ENERGY PREDICTED BY IDOCK:   -0.53 KCAL/MOL
REMARK 927      BINDING AFFINITY PREDICTED BY RF-SCORE:    0.00 PKD
ROOT
HETATM    1  C   UNL     1      -9.469   7.865  68.493  1.00  0.00    -0.148 C  
HETATM    2  O   UNL     1     -10.326   6.733  68.498  1.00  0.00    -0.169 OA 
ENDROOT
BRANCH   2   3
HETATM    3  C   UNL     1     -10.595   6.163  69.715  1.00  0.00    -0.280 A  
HETATM    4  C   UNL     1     -11.271   6.740  70.800  1.00  0.00    -0.304 A  
HETATM    5  C   UNL     1     -11.418   6.001  71.980  1.00  0.00    -0.343 A  
HETATM    6  C   UNL     1     -10.037   4.884  69.855  1.00  0.00    -0.332 A  
HETATM    7  C   UNL     1     -10.152   4.172  71.050  1.00  0.00    -0.130 A  
HETATM    8  C   UNL     1     -10.814   4.750  72.129  1.00  0.00    -0.086 A  
BRANCH   4   9
HETATM    9  O   UNL     1     -11.777   8.010  70.696  1.00  0.00    -0.254 OA 
HETATM   10  C   UNL     1     -12.012   8.666  71.942  1.00  0.00    -0.356 C  
ENDBRANCH   4   9
BRANCH   8  11
HETATM   11  C   UNL     1     -10.874   4.045  73.455  1.00  0.00    -0.326 C  
BRANCH  11  12
HETATM   12  C   UNL     1      -9.919   4.631  74.479  1.00  0.00    -0.206 C  
BRANCH  12  13
HETATM   13  O   UNL     1      -8.711   3.870  74.522  1.00  0.00    -0.093 OA 
BRANCH  13  14
HETATM   14  C   UNL     1      -8.061   3.651  73.254  1.00  0.00    -0.079 C  
HETATM   15  C   UNL     1      -7.622   2.185  73.115  1.00  0.00    -0.041 C  
HETATM   16  C   UNL     1      -6.714   1.942  71.919  1.00  0.00    -0.018 C  
HETATM   17  C   UNL     1      -5.530   2.897  71.960  1.00  0.00    -0.007 C  
HETATM   18  C   UNL     1      -6.023   4.334  71.815  1.00  0.00    -0.016 C  
HETATM   19  C   UNL     1      -6.952   4.723  72.975  1.00  0.00    -0.073 C  
BRANCH  19  20
HETATM   20  N   UNL     1      -7.562   6.074  72.944  1.00  0.00    -0.101 NA 
HETATM   21  C   UNL     1      -7.486   6.799  71.674  1.00  0.00    -0.087 C  
HETATM   22  C   UNL     1      -6.224   7.643  71.755  1.00  0.00    -0.039 C  
HETATM   23  C   UNL     1      -6.049   7.919  73.243  1.00  0.00    -0.066 C  
HETATM   24  C   UNL     1      -7.055   7.007  73.953  1.00  0.00    -0.083 C  
HETATM   25  O   UNL     1      -6.309   9.292  73.515  1.00  0.00    -0.321 OA 
HETATM   26  H   UNL     1      -6.200   9.464  74.443  1.00  0.00     0.000 HD 
ENDBRANCH  19  20
ENDBRANCH  13  14
ENDBRANCH  12  13
ENDBRANCH  11  12
ENDBRANCH   8  11
ENDBRANCH   2   3
TORSDOF 7
ENDMDL
MODEL      323
REMARK 921   NORMALIZED FREE ENERGY PREDICTED BY IDOCK:   -2.51 KCAL/MOL
REMARK 922        TOTAL FREE ENERGY PREDICTED BY IDOCK:   -4.46 KCAL/MOL
REMARK 923 INTER-LIGAND FREE ENERGY PREDICTED BY IDOCK:   -3.38 KCAL/MOL
REMARK 924 INTRA-LIGAND FREE ENERGY PREDICTED BY IDOCK:   -1.08 KCAL/MOL
REMARK 927      BINDING AFFINITY PREDICTED BY RF-SCORE:    0.00 PKD
ROOT
HETATM    1  C   UNL     1      -6.140   3.696  68.956  1.00  0.00    -0.028 C  
HETATM    2  O   UNL     1      -5.955   5.091  68.766  1.00  0.00    -0.019 OA 
ENDROOT
BRANCH   2   3
HETATM    3  C   UNL     1      -7.076   5.878  68.816  1.00  0.00    -0.081 A  
HETATM    4  C   UNL     1      -7.916   6.241  67.754  1.00  0.00    -0.114 A  
HETATM    5  C   UNL     1      -9.003   7.088  68.005  1.00  0.00    -0.126 A  
HETATM    6  C   UNL     1      -7.310   6.414  70.091  1.00  0.00    -0.086 A  
HETATM    7  C   UNL     1      -8.370   7.292  70.322  1.00  0.00    -0.135 A  
HETATM    8  C   UNL     1      -9.197   7.659  69.264  1.00  0.00    -0.145 A  
BRANCH   4   9
HETATM    9  O   UNL     1      -7.669   5.766  66.491  1.00  0.00    -0.097 OA 
HETATM   10  C   UNL     1      -8.544   4.723  66.061  1.00  0.00    -0.117 C  
ENDBRANCH   4   9
BRANCH   8  11
HETATM   11  C   UNL     1     -10.290   8.671  69.464  1.00  0.00    -0.214 C  
BRANCH  11  12
HETATM   12  C   UNL     1     -10.991   9.045  68.171  1.00  0.00     0.076 C  
BRANCH  12  13
HETATM   13  O   UNL     1     -10.864  10.447  67.927  1.00  0.00    -0.237 OA 
BRANCH  13  14
HETATM   14  C   UNL     1      -9.927  10.823  66.898  1.00  0.00    -0.200 C  
HETATM   15  C   UNL     1      -9.954   9.810  65.743  1.00  0.00    -0.349 C  
HETATM   16  C   UNL     1      -8.821  10.007  64.747  1.00  0.00    -0.222 C  
HETATM   17  C   UNL     1      -7.484  10.020  65.473  1.00  0.00    -0.137 C  
HETATM   18  C   UNL     1      -7.419  11.223  66.410  1.00  0.00    -0.064 C  
HETATM   19  C   UNL     1      -8.512  11.147  67.487  1.00  0.00    -0.126 C  
BRANCH  19  20
HETATM   20  N   UNL     1      -8.617  12.278  68.440  1.00  0.00    -0.164 NA 
HETATM   21  C   UNL     1      -9.590  13.323  68.113  1.00  0.00    -0.227 C  
HETATM   22  C   UNL     1      -8.818  14.376  67.334  1.00  0.00    -0.211 C  
HETATM   23  C   UNL     1      -7.392  14.263  67.857  1.00  0.00    -0.156 C  
HETATM   24  C   UNL     1      -7.363  12.986  68.703  1.00  0.00    -0.097 C  
HETATM   25  O   UNL     1      -7.069  15.411  68.635  1.00  0.00    -0.109 OA 
HETATM   26  H   UNL     1      -6.179  15.340  68.961  1.00  0.00     0.000 HD 
ENDBRANCH  19  20
ENDBRANCH  13  14
ENDBRANCH  12  13
ENDBRANCH  11  12
ENDBRANCH   8  11
ENDBRANCH   2   3
TORSDOF 7
ENDMDL
MODEL      324
REMARK 921   NORMALIZED FREE ENERGY PREDICTED BY IDOCK:   -2.51 KCAL/MOL
REMARK 922        TOTAL FREE ENERGY PREDICTED BY IDOCK:   -4.46 KCAL/MOL
REMARK 923 INTER-LIGAND FREE ENERGY PREDICTED BY IDOCK:   -3.94 KCAL/MOL
REMARK 924 INTRA-LIGAND FREE ENERGY PREDICTED BY IDOCK:   -0.52 KCAL/MOL
REMARK 927      BINDING AFFINITY PREDICTED BY RF-SCORE:    0.00 PKD
ROOT
HETATM    1  C   UNL     1     -11.442  11.966  65.149  1.00  0.00    -0.243 C  
HETATM    2  O   UNL     1     -11.915  12.342  66.434  1.00  0.00    -0.559 OA 
ENDROOT
BRANCH   2   3
HETATM    3  C   UNL     1     -11.695  11.461  67.459  1.00  0.00    -0.140 A  
HETATM    4  C   UNL     1     -11.817  11.700  68.836  1.00  0.00    -0.329 A  
HETATM    5  C   UNL     1     -11.514  10.670  69.735  1.00  0.00    -0.375 A  
HETATM    6  C   UNL     1     -11.221  10.217  67.018  1.00  0.00     0.123 A  
HETATM    7  C   UNL     1     -10.880   9.210  67.923  1.00  0.00    -0.147 A  
HETATM    8  C   UNL     1     -10.992   9.453  69.289  1.00  0.00    -0.137 A  
BRANCH   4   9
HETATM    9  O   UNL     1     -12.231  12.928  69.285  1.00  0.00    -0.215 OA 
HETATM   10  C   UNL     1     -11.187  13.887  69.454  1.00  0.00    -0.224 C  
ENDBRANCH   4   9
BRANCH   8  11
HETATM   11  C   UNL     1     -10.547   8.422  70.287  1.00  0.00    -0.234 C  
BRANCH  11  12
HETATM   12  C   UNL     1      -9.718   9.011  71.415  1.00  0.00    -0.299 C  
BRANCH  12  13
HETATM   13  O   UNL     1      -8.738   8.069  71.852  1.00  0.00    -0.116 OA 
BRANCH  13  14
HETATM   14  C   UNL     1      -7.737   7.706  70.880  1.00  0.00    -0.088 C  
HETATM   15  C   UNL     1      -7.327   8.926  70.041  1.00  0.00    -0.056 C  
HETATM   16  C   UNL     1      -6.466   8.565  68.840  1.00  0.00    -0.049 C  
HETATM   17  C   UNL     1      -7.156   7.497  68.006  1.00  0.00    -0.084 C  
HETATM   18  C   UNL     1      -7.284   6.212  68.819  1.00  0.00    -0.084 C  
HETATM   19  C   UNL     1      -8.148   6.429  70.070  1.00  0.00    -0.121 C  
BRANCH  19  20
HETATM   20  N   UNL     1      -8.317   5.285  70.996  1.00  0.00    -0.119 NA 
HETATM   21  C   UNL     1      -7.171   4.384  71.141  1.00  0.00    -0.040 C  
HETATM   22  C   UNL     1      -7.388   3.273  70.127  1.00  0.00    -0.041 C  
HETATM   23  C   UNL     1      -8.902   3.185  69.980  1.00  0.00    -0.088 C  
HETATM   24  C   UNL     1      -9.458   4.414  70.706  1.00  0.00    -0.173 C  
HETATM   25  O   UNL     1      -9.375   1.976  70.565  1.00  0.00    -0.102 OA 
HETATM   26  H   UNL     1     -10.319   1.922  70.473  1.00  0.00     0.000 HD 
ENDBRANCH  19  20
ENDBRANCH  13  14
ENDBRANCH  12  13
ENDBRANCH  11  12
ENDBRANCH   8  11
ENDBRANCH   2   3
TORSDOF 7
ENDMDL
MODEL      325
REMARK 921   NORMALIZED FREE ENERGY PREDICTED BY IDOCK:   -2.44 KCAL/MOL
REMARK 922        TOTAL FREE ENERGY PREDICTED BY IDOCK:   -4.36 KCAL/MOL
REMARK 923 INTER-LIGAND FREE ENERGY PREDICTED BY IDOCK:   -3.69 KCAL/MOL
REMARK 924 INTRA-LIGAND FREE ENERGY PREDICTED BY IDOCK:   -0.68 KCAL/MOL
REMARK 927      BINDING AFFINITY PREDICTED BY RF-SCORE:    0.00 PKD
ROOT
HETATM    1  C   UNL     1      -7.137   4.671  73.096  1.00  0.00    -0.078 C  
HETATM    2  O   UNL     1      -7.706   5.728  73.854  1.00  0.00    -0.099 OA 
ENDROOT
BRANCH   2   3
HETATM    3  C   UNL     1      -8.506   6.613  73.181  1.00  0.00    -0.116 A  
HETATM    4  C   UNL     1      -9.894   6.541  72.992  1.00  0.00    -0.166 A  
HETATM    5  C   UNL     1     -10.531   7.536  72.240  1.00  0.00    -0.275 A  
HETATM    6  C   UNL     1      -7.783   7.646  72.567  1.00  0.00    -0.112 A  
HETATM    7  C   UNL     1      -8.421   8.609  71.783  1.00  0.00    -0.221 A  
HETATM    8  C   UNL     1      -9.797   8.530  71.589  1.00  0.00    -0.317 A  
BRANCH   4   9
HETATM    9  O   UNL     1     -10.609   5.508  73.543  1.00  0.00    -0.231 OA 
HETATM   10  C   UNL     1     -10.644   4.317  72.757  1.00  0.00    -0.165 C  
ENDBRANCH   4   9
BRANCH   8  11
HETATM   11  C   UNL     1     -10.496   9.499  70.678  1.00  0.00    -0.374 C  
BRANCH  11  12
HETATM   12  C   UNL     1     -10.876   8.884  69.342  1.00  0.00    -0.119 C  
BRANCH  12  13
HETATM   13  O   UNL     1      -9.897   9.206  68.353  1.00  0.00    -0.156 OA 
BRANCH  13  14
HETATM   14  C   UNL     1      -8.539   8.841  68.670  1.00  0.00    -0.134 C  
HETATM   15  C   UNL     1      -7.575   9.987  68.325  1.00  0.00    -0.084 C  
HETATM   16  C   UNL     1      -6.111   9.581  68.398  1.00  0.00    -0.044 C  
HETATM   17  C   UNL     1      -5.868   8.346  67.544  1.00  0.00    -0.043 C  
HETATM   18  C   UNL     1      -6.650   7.165  68.113  1.00  0.00    -0.049 C  
HETATM   19  C   UNL     1      -8.162   7.436  68.088  1.00  0.00    -0.124 C  
BRANCH  19  20
HETATM   20  N   UNL     1      -9.054   6.403  68.665  1.00  0.00    -0.128 NA 
HETATM   21  C   UNL     1      -8.453   5.482  69.632  1.00  0.00    -0.101 C  
HETATM   22  C   UNL     1      -7.993   4.278  68.826  1.00  0.00    -0.072 C  
HETATM   23  C   UNL     1      -8.949   4.229  67.641  1.00  0.00    -0.118 C  
HETATM   24  C   UNL     1      -9.729   5.548  67.685  1.00  0.00    -0.129 C  
HETATM   25  O   UNL     1      -9.816   3.107  67.764  1.00  0.00    -0.230 OA 
HETATM   26  H   UNL     1     -10.412   3.077  67.025  1.00  0.00     0.000 HD 
ENDBRANCH  19  20
ENDBRANCH  13  14
ENDBRANCH  12  13
ENDBRANCH  11  12
ENDBRANCH   8  11
ENDBRANCH   2   3
TORSDOF 7
ENDMDL
MODEL      326
REMARK 921   NORMALIZED FREE ENERGY PREDICTED BY IDOCK:   -2.41 KCAL/MOL
REMARK 922        TOTAL FREE ENERGY PREDICTED BY IDOCK:   -4.32 KCAL/MOL
REMARK 923 INTER-LIGAND FREE ENERGY PREDICTED BY IDOCK:   -5.20 KCAL/MOL
REMARK 924 INTRA-LIGAND FREE ENERGY PREDICTED BY IDOCK:    0.88 KCAL/MOL
REMARK 927      BINDING AFFINITY PREDICTED BY RF-SCORE:    0.00 PKD
ROOT
HETATM    1  C   UNL     1      -9.395   5.590  70.813  1.00  0.00    -0.163 C  
HETATM    2  O   UNL     1      -8.572   6.721  71.058  1.00  0.00    -0.134 OA 
ENDROOT
BRANCH   2   3
HETATM    3  C   UNL     1      -8.840   7.853  70.333  1.00  0.00    -0.142 A  
HETATM    4  C   UNL     1      -9.880   8.055  69.414  1.00  0.00    -0.181 A  
HETATM    5  C   UNL     1      -9.966   9.283  68.745  1.00  0.00    -0.193 A  
HETATM    6  C   UNL     1      -7.882   8.860  70.519  1.00  0.00    -0.116 A  
HETATM    7  C   UNL     1      -7.952  10.064  69.816  1.00  0.00    -0.190 A  
HETATM    8  C   UNL     1      -8.979  10.259  68.896  1.00  0.00    -0.164 A  
BRANCH   4   9
HETATM    9  O   UNL     1     -10.795   7.060  69.183  1.00  0.00    -0.226 OA 
HETATM   10  C   UNL     1     -11.020   6.761  67.806  1.00  0.00    -0.241 C  
ENDBRANCH   4   9
BRANCH   8  11
HETATM   11  C   UNL     1      -9.028  11.506  68.060  1.00  0.00    -0.170 C  
BRANCH  11  12
HETATM   12  C   UNL     1      -8.237  12.653  68.663  1.00  0.00     0.008 C  
BRANCH  12  13
HETATM   13  O   UNL     1      -9.014  13.851  68.649  1.00  0.00    -0.166 OA 
BRANCH  13  14
HETATM   14  C   UNL     1      -8.310  15.052  68.274  1.00  0.00    -0.145 C  
HETATM   15  C   UNL     1      -6.884  15.046  68.845  1.00  0.00    -0.103 C  
HETATM   16  C   UNL     1      -6.175  16.384  68.701  1.00  0.00    -0.130 C  
HETATM   17  C   UNL     1      -7.029  17.494  69.295  1.00  0.00    -0.172 C  
HETATM   18  C   UNL     1      -8.324  17.629  68.498  1.00  0.00    -0.291 C  
HETATM   19  C   UNL     1      -9.155  16.339  68.568  1.00  0.00    -0.216 C  
BRANCH  19  20
HETATM   20  N   UNL     1     -10.418  16.292  67.792  1.00  0.00    -0.288 NA 
HETATM   21  C   UNL     1     -10.566  15.183  66.847  1.00  0.00    -0.297 C  
HETATM   22  C   UNL     1     -10.058  15.706  65.513  1.00  0.00    -0.395 C  
HETATM   23  C   UNL     1     -10.323  17.205  65.569  1.00  0.00    -0.115 C  
HETATM   24  C   UNL     1     -10.717  17.500  67.020  1.00  0.00    -0.157 C  
HETATM   25  O   UNL     1     -11.368  17.546  64.665  1.00  0.00    -0.810 OA 
HETATM   26  H   UNL     1     -11.532  18.482  64.700  1.00  0.00     0.000 HD 
ENDBRANCH  19  20
ENDBRANCH  13  14
ENDBRANCH  12  13
ENDBRANCH  11  12
ENDBRANCH   8  11
ENDBRANCH   2   3
TORSDOF 7
ENDMDL
MODEL      327
REMARK 921   NORMALIZED FREE ENERGY PREDICTED BY IDOCK:   -2.40 KCAL/MOL
REMARK 922        TOTAL FREE ENERGY PREDICTED BY IDOCK:   -4.30 KCAL/MOL
REMARK 923 INTER-LIGAND FREE ENERGY PREDICTED BY IDOCK:   -6.39 KCAL/MOL
REMARK 924 INTRA-LIGAND FREE ENERGY PREDICTED BY IDOCK:    2.09 KCAL/MOL
REMARK 927      BINDING AFFINITY PREDICTED BY RF-SCORE:    0.00 PKD
ROOT
HETATM    1  C   UNL     1     -10.900   9.235  68.626  1.00  0.00    -0.078 C  
HETATM    2  O   UNL     1     -11.324   9.984  67.497  1.00  0.00    -0.212 OA 
ENDROOT
BRANCH   2   3
HETATM    3  C   UNL     1     -10.923  11.293  67.435  1.00  0.00    -0.282 A  
HETATM    4  C   UNL     1     -10.303  11.949  66.363  1.00  0.00    -0.219 A  
HETATM    5  C   UNL     1      -9.937  13.294  66.507  1.00  0.00    -0.280 A  
HETATM    6  C   UNL     1     -11.112  11.980  68.643  1.00  0.00    -0.298 A  
HETATM    7  C   UNL     1     -10.705  13.307  68.792  1.00  0.00    -0.253 A  
HETATM    8  C   UNL     1     -10.080  13.954  67.730  1.00  0.00    -0.241 A  
BRANCH   4   9
HETATM    9  O   UNL     1     -10.064  11.276  65.192  1.00  0.00    -0.245 OA 
HETATM   10  C   UNL     1     -10.569  11.914  64.019  1.00  0.00    -0.374 C  
ENDBRANCH   4   9
BRANCH   8  11
HETATM   11  C   UNL     1      -9.551  15.350  67.891  1.00  0.00    -0.206 C  
BRANCH  11  12
HETATM   12  C   UNL     1      -9.079  15.644  69.303  1.00  0.00    -0.270 C  
BRANCH  12  13
HETATM   13  O   UNL     1      -8.774  17.032  69.445  1.00  0.00     0.018 OA 
BRANCH  13  14
HETATM   14  C   UNL     1      -7.764  17.548  68.555  1.00  0.00    -0.272 C  
HETATM   15  C   UNL     1      -6.408  16.876  68.824  1.00  0.00    -0.168 C  
HETATM   16  C   UNL     1      -5.252  17.546  68.098  1.00  0.00    -0.139 C  
HETATM   17  C   UNL     1      -5.231  19.034  68.412  1.00  0.00    -0.181 C  
HETATM   18  C   UNL     1      -6.495  19.694  67.867  1.00  0.00    -0.257 C  
HETATM   19  C   UNL     1      -7.754  19.115  68.530  1.00  0.00    -0.341 C  
BRANCH  19  20
HETATM   20  N   UNL     1      -9.069  19.613  68.061  1.00  0.00    -0.321 NA 
HETATM   21  C   UNL     1     -10.238  18.800  68.404  1.00  0.00    -0.361 C  
HETATM   22  C   UNL     1     -10.452  17.865  67.225  1.00  0.00    -0.373 C  
HETATM   23  C   UNL     1      -9.903  18.633  66.029  1.00  0.00    -0.184 C  
HETATM   24  C   UNL     1      -9.167  19.841  66.618  1.00  0.00    -0.380 C  
HETATM   25  O   UNL     1     -10.972  19.036  65.180  1.00  0.00    -0.471 OA 
HETATM   26  H   UNL     1     -10.629  19.514  64.434  1.00  0.00     0.000 HD 
ENDBRANCH  19  20
ENDBRANCH  13  14
ENDBRANCH  12  13
ENDBRANCH  11  12
ENDBRANCH   8  11
ENDBRANCH   2   3
TORSDOF 7
ENDMDL
MODEL      328
REMARK 921   NORMALIZED FREE ENERGY PREDICTED BY IDOCK:   -2.31 KCAL/MOL
REMARK 922        TOTAL FREE ENERGY PREDICTED BY IDOCK:   -4.17 KCAL/MOL
REMARK 923 INTER-LIGAND FREE ENERGY PREDICTED BY IDOCK:   -3.74 KCAL/MOL
REMARK 924 INTRA-LIGAND FREE ENERGY PREDICTED BY IDOCK:   -0.43 KCAL/MOL
REMARK 927      BINDING AFFINITY PREDICTED BY RF-SCORE:    0.00 PKD
ROOT
HETATM    1  C   UNL     1     -11.618  19.846  65.528  1.00  0.00     1.542 C  
HETATM    2  O   UNL     1     -10.247  19.547  65.307  1.00  0.00    -0.213 OA 
ENDROOT
BRANCH   2   3
HETATM    3  C   UNL     1      -9.624  18.764  66.243  1.00  0.00    -0.297 A  
HETATM    4  C   UNL     1      -8.280  18.808  66.639  1.00  0.00    -0.289 A  
HETATM    5  C   UNL     1      -7.822  17.893  67.597  1.00  0.00    -0.219 A  
HETATM    6  C   UNL     1     -10.463  17.772  66.772  1.00  0.00    -0.300 A  
HETATM    7  C   UNL     1      -9.988  16.838  67.693  1.00  0.00    -0.262 A  
HETATM    8  C   UNL     1      -8.651  16.877  68.077  1.00  0.00    -0.214 A  
BRANCH   4   9
HETATM    9  O   UNL     1      -7.434  19.739  66.093  1.00  0.00    -0.278 OA 
HETATM   10  C   UNL     1      -6.761  20.568  67.041  1.00  0.00    -0.266 C  
ENDBRANCH   4   9
BRANCH   8  11
HETATM   11  C   UNL     1      -8.089  15.829  68.997  1.00  0.00    -0.224 C  
BRANCH  11  12
HETATM   12  C   UNL     1      -6.984  15.011  68.354  1.00  0.00    -0.109 C  
BRANCH  12  13
HETATM   13  O   UNL     1      -7.514  14.205  67.301  1.00  0.00    -0.167 OA 
BRANCH  13  14
HETATM   14  C   UNL     1      -7.360  12.780  67.460  1.00  0.00    -0.153 C  
HETATM   15  C   UNL     1      -5.876  12.385  67.401  1.00  0.00    -0.149 C  
HETATM   16  C   UNL     1      -5.660  10.882  67.312  1.00  0.00    -0.044 C  
HETATM   17  C   UNL     1      -6.456  10.308  66.150  1.00  0.00    -0.103 C  
HETATM   18  C   UNL     1      -7.949  10.492  66.408  1.00  0.00    -0.137 C  
HETATM   19  C   UNL     1      -8.316  11.980  66.510  1.00  0.00    -0.024 C  
BRANCH  19  20
HETATM   20  N   UNL     1      -9.725  12.321  66.820  1.00  0.00    -0.208 NA 
HETATM   21  C   UNL     1      -9.979  12.934  68.126  1.00  0.00    -0.234 C  
HETATM   22  C   UNL     1     -10.312  11.785  69.063  1.00  0.00    -0.087 C  
HETATM   23  C   UNL     1     -10.925  10.724  68.158  1.00  0.00    -0.257 C  
HETATM   24  C   UNL     1     -10.669  11.206  66.726  1.00  0.00    -0.276 C  
HETATM   25  O   UNL     1     -12.318  10.604  68.426  1.00  0.00    -0.776 OA 
HETATM   26  H   UNL     1     -12.700   9.942  67.861  1.00  0.00     0.000 HD 
ENDBRANCH  19  20
ENDBRANCH  13  14
ENDBRANCH  12  13
ENDBRANCH  11  12
ENDBRANCH   8  11
ENDBRANCH   2   3
TORSDOF 7
ENDMDL
MODEL      329
REMARK 921   NORMALIZED FREE ENERGY PREDICTED BY IDOCK:   -2.29 KCAL/MOL
REMARK 922        TOTAL FREE ENERGY PREDICTED BY IDOCK:   -4.14 KCAL/MOL
REMARK 923 INTER-LIGAND FREE ENERGY PREDICTED BY IDOCK:   -3.77 KCAL/MOL
REMARK 924 INTRA-LIGAND FREE ENERGY PREDICTED BY IDOCK:   -0.37 KCAL/MOL
REMARK 927      BINDING AFFINITY PREDICTED BY RF-SCORE:    0.00 PKD
ROOT
HETATM    1  C   UNL     1      -8.531   7.640  74.346  1.00  0.00    -0.213 C  
HETATM    2  O   UNL     1      -9.788   7.601  73.687  1.00  0.00    -0.301 OA 
ENDROOT
BRANCH   2   3
HETATM    3  C   UNL     1      -9.856   6.883  72.521  1.00  0.00    -0.157 A  
HETATM    4  C   UNL     1     -10.834   6.965  71.520  1.00  0.00    -0.230 A  
HETATM    5  C   UNL     1     -10.744   6.116  70.409  1.00  0.00    -0.347 A  
HETATM    6  C   UNL     1      -8.844   5.918  72.414  1.00  0.00    -0.134 A  
HETATM    7  C   UNL     1      -8.787   5.047  71.325  1.00  0.00    -0.152 A  
HETATM    8  C   UNL     1      -9.765   5.123  70.337  1.00  0.00    -0.270 A  
BRANCH   4   9
HETATM    9  O   UNL     1     -11.860   7.869  71.635  1.00  0.00    -0.268 OA 
HETATM   10  C   UNL     1     -13.163   7.326  71.428  1.00  0.00    -0.346 C  
ENDBRANCH   4   9
BRANCH   8  11
HETATM   11  C   UNL     1      -9.781   4.141  69.201  1.00  0.00    -0.205 C  
BRANCH  11  12
HETATM   12  C   UNL     1      -8.395   3.853  68.650  1.00  0.00    -0.078 C  
BRANCH  12  13
HETATM   13  O   UNL     1      -8.031   4.841  67.685  1.00  0.00    -0.093 OA 
BRANCH  13  14
HETATM   14  C   UNL     1      -8.230   4.474  66.305  1.00  0.00    -0.106 C  
HETATM   15  C   UNL     1      -8.679   3.009  66.192  1.00  0.00    -0.132 C  
HETATM   16  C   UNL     1      -8.665   2.487  64.763  1.00  0.00    -0.110 C  
HETATM   17  C   UNL     1      -7.299   2.721  64.135  1.00  0.00    -0.065 C  
HETATM   18  C   UNL     1      -7.034   4.221  64.026  1.00  0.00    -0.046 C  
HETATM   19  C   UNL     1      -7.009   4.883  65.411  1.00  0.00    -0.062 C  
BRANCH  19  20
HETATM   20  N   UNL     1      -6.821   6.352  65.468  1.00  0.00    -0.047 NA 
HETATM   21  C   UNL     1      -7.953   7.175  65.036  1.00  0.00    -0.129 C  
HETATM   22  C   UNL     1      -7.723   7.452  63.559  1.00  0.00    -0.125 C  
HETATM   23  C   UNL     1      -6.208   7.415  63.400  1.00  0.00    -0.053 C  
HETATM   24  C   UNL     1      -5.668   6.860  64.722  1.00  0.00    -0.032 C  
HETATM   25  O   UNL     1      -5.716   8.727  63.146  1.00  0.00    -0.073 OA 
HETATM   26  H   UNL     1      -4.771   8.703  63.046  1.00  0.00     0.000 HD 
ENDBRANCH  19  20
ENDBRANCH  13  14
ENDBRANCH  12  13
ENDBRANCH  11  12
ENDBRANCH   8  11
ENDBRANCH   2   3
TORSDOF 7
ENDMDL
MODEL      330
REMARK 921   NORMALIZED FREE ENERGY PREDICTED BY IDOCK:   -2.27 KCAL/MOL
REMARK 922        TOTAL FREE ENERGY PREDICTED BY IDOCK:   -4.13 KCAL/MOL
REMARK 923 INTER-LIGAND FREE ENERGY PREDICTED BY IDOCK:   -3.74 KCAL/MOL
REMARK 924 INTRA-LIGAND FREE ENERGY PREDICTED BY IDOCK:   -0.38 KCAL/MOL
REMARK 927      BINDING AFFINITY PREDICTED BY RF-SCORE:    0.00 PKD
ROOT
HETATM    1  C   UNL     1      -8.089   7.460  62.339  1.00  0.00    -0.119 C  
HETATM    2  O   UNL     1      -6.791   7.817  62.789  1.00  0.00    -0.077 OA 
ENDROOT
BRANCH   2   3
HETATM    3  C   UNL     1      -6.670   8.195  64.100  1.00  0.00    -0.066 A  
HETATM    4  C   UNL     1      -5.903   9.247  64.621  1.00  0.00    -0.065 A  
HETATM    5  C   UNL     1      -5.885   9.455  66.007  1.00  0.00    -0.053 A  
HETATM    6  C   UNL     1      -7.356   7.345  64.979  1.00  0.00    -0.078 A  
HETATM    7  C   UNL     1      -7.298   7.534  66.361  1.00  0.00    -0.083 A  
HETATM    8  C   UNL     1      -6.527   8.572  66.877  1.00  0.00    -0.057 A  
BRANCH   4   9
HETATM    9  O   UNL     1      -5.184  10.056  63.778  1.00  0.00    -0.078 OA 
HETATM   10  C   UNL     1      -5.970  10.953  62.994  1.00  0.00     0.101 C  
ENDBRANCH   4   9
BRANCH   8  11
HETATM   11  C   UNL     1      -6.374   8.744  68.362  1.00  0.00    -0.055 C  
BRANCH  11  12
HETATM   12  C   UNL     1      -7.234   7.780  69.160  1.00  0.00    -0.082 C  
BRANCH  12  13
HETATM   13  O   UNL     1      -8.421   8.433  69.611  1.00  0.00    -0.123 OA 
BRANCH  13  14
HETATM   14  C   UNL     1      -8.771   8.218  70.992  1.00  0.00    -0.146 C  
HETATM   15  C   UNL     1      -7.521   7.894  71.825  1.00  0.00    -0.078 C  
HETATM   16  C   UNL     1      -7.846   7.412  73.231  1.00  0.00    -0.126 C  
HETATM   17  C   UNL     1      -8.819   6.244  73.171  1.00  0.00    -0.129 C  
HETATM   18  C   UNL     1     -10.147   6.710  72.580  1.00  0.00    -0.191 C  
HETATM   19  C   UNL     1      -9.968   7.217  71.142  1.00  0.00    -0.183 C  
BRANCH  19  20
HETATM   20  N   UNL     1     -11.161   7.761  70.451  1.00  0.00    -0.258 NA 
HETATM   21  C   UNL     1     -11.328   9.216  70.479  1.00  0.00    -0.257 C  
HETATM   22  C   UNL     1     -12.203   9.507  71.688  1.00  0.00    -0.477 C  
HETATM   23  C   UNL     1     -13.054   8.254  71.849  1.00  0.00    -0.344 C  
HETATM   24  C   UNL     1     -12.443   7.215  70.903  1.00  0.00    -0.258 C  
HETATM   25  O   UNL     1     -14.406   8.538  71.507  1.00  0.00    -0.457 OA 
HETATM   26  H   UNL     1     -14.936   7.756  71.608  1.00  0.00     0.000 HD 
ENDBRANCH  19  20
ENDBRANCH  13  14
ENDBRANCH  12  13
ENDBRANCH  11  12
ENDBRANCH   8  11
ENDBRANCH   2   3
TORSDOF 7
ENDMDL
MODEL      331
REMARK 921   NORMALIZED FREE ENERGY PREDICTED BY IDOCK:   -2.21 KCAL/MOL
REMARK 922        TOTAL FREE ENERGY PREDICTED BY IDOCK:   -4.04 KCAL/MOL
REMARK 923 INTER-LIGAND FREE ENERGY PREDICTED BY IDOCK:   -2.87 KCAL/MOL
REMARK 924 INTRA-LIGAND FREE ENERGY PREDICTED BY IDOCK:   -1.17 KCAL/MOL
REMARK 927      BINDING AFFINITY PREDICTED BY RF-SCORE:    0.00 PKD
ROOT
HETATM    1  C   UNL     1      -7.534   6.601  62.836  1.00  0.00    -0.079 C  
HETATM    2  O   UNL     1      -6.204   6.630  63.334  1.00  0.00    -0.039 OA 
ENDROOT
BRANCH   2   3
HETATM    3  C   UNL     1      -6.046   6.502  64.689  1.00  0.00    -0.034 A  
HETATM    4  C   UNL     1      -5.945   7.526  65.640  1.00  0.00    -0.038 A  
HETATM    5  C   UNL     1      -5.752   7.188  66.986  1.00  0.00    -0.022 A  
HETATM    6  C   UNL     1      -5.898   5.168  65.097  1.00  0.00    -0.017 A  
HETATM    7  C   UNL     1      -5.663   4.843  66.434  1.00  0.00    -0.018 A  
HETATM    8  C   UNL     1      -5.552   5.862  67.376  1.00  0.00    -0.012 A  
BRANCH   4   9
HETATM    9  O   UNL     1      -6.036   8.838  65.249  1.00  0.00    -0.054 OA 
HETATM   10  C   UNL     1      -6.408   9.747  66.284  1.00  0.00    -0.070 C  
ENDBRANCH   4   9
BRANCH   8  11
HETATM   11  C   UNL     1      -5.209   5.548  68.804  1.00  0.00     0.000 C  
BRANCH  11  12
HETATM   12  C   UNL     1      -6.004   4.379  69.358  1.00  0.00    -0.022 C  
BRANCH  12  13
HETATM   13  O   UNL     1      -7.245   4.836  69.899  1.00  0.00    -0.052 OA 
BRANCH  13  14
HETATM   14  C   UNL     1      -8.429   4.431  69.184  1.00  0.00    -0.078 C  
HETATM   15  C   UNL     1      -8.143   3.199  68.311  1.00  0.00    -0.077 C  
HETATM   16  C   UNL     1      -9.272   2.873  67.346  1.00  0.00    -0.219 C  
HETATM   17  C   UNL     1      -9.620   4.099  66.516  1.00  0.00    -0.220 C  
HETATM   18  C   UNL     1     -10.163   5.198  67.425  1.00  0.00    -0.224 C  
HETATM   19  C   UNL     1      -9.111   5.639  68.454  1.00  0.00    -0.117 C  
BRANCH  19  20
HETATM   20  N   UNL     1      -9.510   6.661  69.450  1.00  0.00    -0.146 NA 
HETATM   21  C   UNL     1      -9.660   6.205  70.834  1.00  0.00    -0.173 C  
HETATM   22  C   UNL     1     -11.127   5.839  70.992  1.00  0.00    -0.264 C  
HETATM   23  C   UNL     1     -11.850   6.741  69.999  1.00  0.00    -0.206 C  
HETATM   24  C   UNL     1     -10.750   7.378  69.143  1.00  0.00    -0.166 C  
HETATM   25  O   UNL     1     -12.602   7.727  70.698  1.00  0.00    -0.518 OA 
HETATM   26  H   UNL     1     -13.052   8.289  70.079  1.00  0.00     0.000 HD 
ENDBRANCH  19  20
ENDBRANCH  13  14
ENDBRANCH  12  13
ENDBRANCH  11  12
ENDBRANCH   8  11
ENDBRANCH   2   3
TORSDOF 7
ENDMDL
MODEL      332
REMARK 921   NORMALIZED FREE ENERGY PREDICTED BY IDOCK:   -2.21 KCAL/MOL
REMARK 922        TOTAL FREE ENERGY PREDICTED BY IDOCK:   -4.03 KCAL/MOL
REMARK 923 INTER-LIGAND FREE ENERGY PREDICTED BY IDOCK:   -3.08 KCAL/MOL
REMARK 924 INTRA-LIGAND FREE ENERGY PREDICTED BY IDOCK:   -0.95 KCAL/MOL
REMARK 927      BINDING AFFINITY PREDICTED BY RF-SCORE:    0.00 PKD
ROOT
HETATM    1  C   UNL     1      -8.524   7.647  74.354  1.00  0.00    -0.213 C  
HETATM    2  O   UNL     1      -9.710   7.697  73.574  1.00  0.00    -0.281 OA 
ENDROOT
BRANCH   2   3
HETATM    3  C   UNL     1      -9.644   7.174  72.310  1.00  0.00    -0.142 A  
HETATM    4  C   UNL     1     -10.502   7.430  71.231  1.00  0.00    -0.208 A  
HETATM    5  C   UNL     1     -10.286   6.765  70.017  1.00  0.00    -0.225 A  
HETATM    6  C   UNL     1      -8.626   6.220  72.166  1.00  0.00    -0.126 A  
HETATM    7  C   UNL     1      -8.445   5.530  70.966  1.00  0.00    -0.125 A  
HETATM    8  C   UNL     1      -9.305   5.778  69.899  1.00  0.00    -0.177 A  
BRANCH   4   9
HETATM    9  O   UNL     1     -11.534   8.322  71.372  1.00  0.00    -0.254 OA 
HETATM   10  C   UNL     1     -12.807   7.839  70.942  1.00  0.00     0.059 C  
ENDBRANCH   4   9
BRANCH   8  11
HETATM   11  C   UNL     1      -9.191   4.987  68.627  1.00  0.00    -0.158 C  
BRANCH  11  12
HETATM   12  C   UNL     1      -7.764   4.891  68.118  1.00  0.00    -0.082 C  
BRANCH  12  13
HETATM   13  O   UNL     1      -7.573   5.774  67.011  1.00  0.00    -0.096 OA 
BRANCH  13  14
HETATM   14  C   UNL     1      -6.650   6.860  67.224  1.00  0.00    -0.051 C  
HETATM   15  C   UNL     1      -5.942   6.712  68.580  1.00  0.00    -0.022 C  
HETATM   16  C   UNL     1      -5.146   7.946  68.977  1.00  0.00    -0.023 C  
HETATM   17  C   UNL     1      -6.033   9.180  68.920  1.00  0.00    -0.043 C  
HETATM   18  C   UNL     1      -6.480   9.427  67.482  1.00  0.00    -0.063 C  
HETATM   19  C   UNL     1      -7.314   8.253  66.950  1.00  0.00    -0.084 C  
BRANCH  19  20
HETATM   20  N   UNL     1      -7.772   8.317  65.542  1.00  0.00    -0.096 NA 
HETATM   21  C   UNL     1      -6.756   8.097  64.511  1.00  0.00    -0.068 C  
HETATM   22  C   UNL     1      -6.235   9.477  64.143  1.00  0.00    -0.097 C  
HETATM   23  C   UNL     1      -7.411  10.408  64.411  1.00  0.00    -0.002 C  
HETATM   24  C   UNL     1      -8.443   9.562  65.164  1.00  0.00    -0.149 C  
HETATM   25  O   UNL     1      -7.934  10.895  63.180  1.00  0.00    -0.360 OA 
HETATM   26  H   UNL     1      -8.667  11.476  63.348  1.00  0.00     0.000 HD 
ENDBRANCH  19  20
ENDBRANCH  13  14
ENDBRANCH  12  13
ENDBRANCH  11  12
ENDBRANCH   8  11
ENDBRANCH   2   3
TORSDOF 7
ENDMDL
MODEL      333
REMARK 921   NORMALIZED FREE ENERGY PREDICTED BY IDOCK:   -2.17 KCAL/MOL
REMARK 922        TOTAL FREE ENERGY PREDICTED BY IDOCK:   -3.98 KCAL/MOL
REMARK 923 INTER-LIGAND FREE ENERGY PREDICTED BY IDOCK:   -4.28 KCAL/MOL
REMARK 924 INTRA-LIGAND FREE ENERGY PREDICTED BY IDOCK:    0.30 KCAL/MOL
REMARK 927      BINDING AFFINITY PREDICTED BY RF-SCORE:    0.00 PKD
ROOT
HETATM    1  C   UNL     1     -13.130   9.075  72.217  1.00  0.00    -0.445 C  
HETATM    2  O   UNL     1     -12.765  10.120  71.328  1.00  0.00    -0.340 OA 
ENDROOT
BRANCH   2   3
HETATM    3  C   UNL     1     -11.811   9.830  70.388  1.00  0.00    -0.193 A  
HETATM    4  C   UNL     1     -11.501  10.557  69.230  1.00  0.00    -0.256 A  
HETATM    5  C   UNL     1     -10.505  10.076  68.370  1.00  0.00    -0.235 A  
HETATM    6  C   UNL     1     -11.157   8.613  70.630  1.00  0.00    -0.282 A  
HETATM    7  C   UNL     1     -10.197   8.119  69.746  1.00  0.00    -0.203 A  
HETATM    8  C   UNL     1      -9.898   8.837  68.591  1.00  0.00    -0.180 A  
BRANCH   4   9
HETATM    9  O   UNL     1     -12.167  11.724  68.953  1.00  0.00    -0.330 OA 
HETATM   10  C   UNL     1     -11.735  12.856  69.707  1.00  0.00    -0.281 C  
ENDBRANCH   4   9
BRANCH   8  11
HETATM   11  C   UNL     1      -8.936   8.286  67.577  1.00  0.00    -0.141 C  
BRANCH  11  12
HETATM   12  C   UNL     1      -9.628   7.532  66.456  1.00  0.00    -0.173 C  
BRANCH  12  13
HETATM   13  O   UNL     1      -8.810   7.526  65.285  1.00  0.00    -0.009 OA 
BRANCH  13  14
HETATM   14  C   UNL     1      -7.654   6.665  65.331  1.00  0.00    -0.086 C  
HETATM   15  C   UNL     1      -6.533   7.215  64.435  1.00  0.00    -0.040 C  
HETATM   16  C   UNL     1      -5.386   6.235  64.241  1.00  0.00    -0.018 C  
HETATM   17  C   UNL     1      -5.919   4.900  63.743  1.00  0.00    -0.018 C  
HETATM   18  C   UNL     1      -6.816   4.275  64.808  1.00  0.00    -0.049 C  
HETATM   19  C   UNL     1      -8.035   5.163  65.099  1.00  0.00    -0.106 C  
BRANCH  19  20
HETATM   20  N   UNL     1      -8.973   4.719  66.157  1.00  0.00    -0.119 NA 
HETATM   21  C   UNL     1      -8.436   4.640  67.518  1.00  0.00    -0.104 C  
HETATM   22  C   UNL     1      -7.956   3.208  67.690  1.00  0.00    -0.076 C  
HETATM   23  C   UNL     1      -8.852   2.395  66.764  1.00  0.00    -0.130 C  
HETATM   24  C   UNL     1      -9.611   3.423  65.918  1.00  0.00    -0.059 C  
HETATM   25  O   UNL     1      -9.742   1.593  67.532  1.00  0.00    -0.404 OA 
HETATM   26  H   UNL     1     -10.301   1.086  66.954  1.00  0.00     0.000 HD 
ENDBRANCH  19  20
ENDBRANCH  13  14
ENDBRANCH  12  13
ENDBRANCH  11  12
ENDBRANCH   8  11
ENDBRANCH   2   3
TORSDOF 7
ENDMDL
MODEL      334
REMARK 921   NORMALIZED FREE ENERGY PREDICTED BY IDOCK:   -2.17 KCAL/MOL
REMARK 922        TOTAL FREE ENERGY PREDICTED BY IDOCK:   -3.98 KCAL/MOL
REMARK 923 INTER-LIGAND FREE ENERGY PREDICTED BY IDOCK:   -3.21 KCAL/MOL
REMARK 924 INTRA-LIGAND FREE ENERGY PREDICTED BY IDOCK:   -0.76 KCAL/MOL
REMARK 927      BINDING AFFINITY PREDICTED BY RF-SCORE:    0.00 PKD
ROOT
HETATM    1  C   UNL     1     -11.752  15.629  69.303  1.00  0.00    -0.375 C  
HETATM    2  O   UNL     1     -10.384  15.989  69.413  1.00  0.00    -0.234 OA 
ENDROOT
BRANCH   2   3
HETATM    3  C   UNL     1      -9.468  15.114  68.890  1.00  0.00    -0.213 A  
HETATM    4  C   UNL     1      -8.317  15.420  68.149  1.00  0.00    -0.145 A  
HETATM    5  C   UNL     1      -7.518  14.373  67.670  1.00  0.00    -0.191 A  
HETATM    6  C   UNL     1      -9.821  13.771  69.087  1.00  0.00     0.216 A  
HETATM    7  C   UNL     1      -9.042  12.735  68.569  1.00  0.00    -0.049 A  
HETATM    8  C   UNL     1      -7.906  13.041  67.825  1.00  0.00    -0.157 A  
BRANCH   4   9
HETATM    9  O   UNL     1      -7.986  16.728  67.904  1.00  0.00    -0.171 OA 
HETATM   10  C   UNL     1      -6.683  16.924  67.356  1.00  0.00    -0.159 C  
ENDBRANCH   4   9
BRANCH   8  11
HETATM   11  C   UNL     1      -7.100  11.949  67.179  1.00  0.00    -0.142 C  
BRANCH  11  12
HETATM   12  C   UNL     1      -7.901  10.681  66.949  1.00  0.00    -0.121 C  
BRANCH  12  13
HETATM   13  O   UNL     1      -7.580   9.705  67.940  1.00  0.00    -0.083 OA 
BRANCH  13  14
HETATM   14  C   UNL     1      -8.692   9.183  68.693  1.00  0.00    -0.129 C  
HETATM   15  C   UNL     1     -10.024   9.683  68.112  1.00  0.00    -0.185 C  
HETATM   16  C   UNL     1     -11.219   9.377  69.002  1.00  0.00     0.079 C  
HETATM   17  C   UNL     1     -10.971   9.900  70.408  1.00  0.00    -0.379 C  
HETATM   18  C   UNL     1      -9.793   9.156  71.033  1.00  0.00    -0.366 C  
HETATM   19  C   UNL     1      -8.502   9.389  70.235  1.00  0.00    -0.212 C  
BRANCH  19  20
HETATM   20  N   UNL     1      -7.279   8.683  70.684  1.00  0.00    -0.052 NA 
HETATM   21  C   UNL     1      -7.443   7.288  71.101  1.00  0.00    -0.079 C  
HETATM   22  C   UNL     1      -7.671   7.329  72.603  1.00  0.00    -0.096 C  
HETATM   23  C   UNL     1      -6.935   8.582  73.062  1.00  0.00    -0.021 C  
HETATM   24  C   UNL     1      -6.555   9.330  71.780  1.00  0.00     0.118 C  
HETATM   25  O   UNL     1      -5.782   8.218  73.814  1.00  0.00    -0.067 OA 
HETATM   26  H   UNL     1      -5.323   9.000  74.100  1.00  0.00     0.000 HD 
ENDBRANCH  19  20
ENDBRANCH  13  14
ENDBRANCH  12  13
ENDBRANCH  11  12
ENDBRANCH   8  11
ENDBRANCH   2   3
TORSDOF 7
ENDMDL
MODEL      335
REMARK 921   NORMALIZED FREE ENERGY PREDICTED BY IDOCK:   -2.15 KCAL/MOL
REMARK 922        TOTAL FREE ENERGY PREDICTED BY IDOCK:   -3.95 KCAL/MOL
REMARK 923 INTER-LIGAND FREE ENERGY PREDICTED BY IDOCK:   -6.10 KCAL/MOL
REMARK 924 INTRA-LIGAND FREE ENERGY PREDICTED BY IDOCK:    2.15 KCAL/MOL
REMARK 927      BINDING AFFINITY PREDICTED BY RF-SCORE:    0.00 PKD
ROOT
HETATM    1  C   UNL     1     -10.975   9.167  68.595  1.00  0.00     0.047 C  
HETATM    2  O   UNL     1     -11.432  10.160  67.688  1.00  0.00    -0.271 OA 
ENDROOT
BRANCH   2   3
HETATM    3  C   UNL     1     -10.956  11.432  67.869  1.00  0.00    -0.240 A  
HETATM    4  C   UNL     1     -11.089  12.243  69.005  1.00  0.00    -0.236 A  
HETATM    5  C   UNL     1     -10.556  13.538  68.983  1.00  0.00    -0.126 A  
HETATM    6  C   UNL     1     -10.342  11.954  66.721  1.00  0.00    -0.238 A  
HETATM    7  C   UNL     1      -9.852  13.261  66.694  1.00  0.00    -0.276 A  
HETATM    8  C   UNL     1      -9.995  14.068  67.819  1.00  0.00    -0.236 A  
BRANCH   4   9
HETATM    9  O   UNL     1     -11.733  11.765  70.118  1.00  0.00    -0.316 OA 
HETATM   10  C   UNL     1     -12.892  12.503  70.504  1.00  0.00     0.156 C  
ENDBRANCH   4   9
BRANCH   8  11
HETATM   11  C   UNL     1      -9.558  15.505  67.788  1.00  0.00    -0.209 C  
BRANCH  11  12
HETATM   12  C   UNL     1      -9.826  16.231  69.095  1.00  0.00    -0.258 C  
BRANCH  12  13
HETATM   13  O   UNL     1      -9.310  17.562  69.036  1.00  0.00    -0.209 OA 
BRANCH  13  14
HETATM   14  C   UNL     1      -7.935  17.686  68.620  1.00  0.00    -0.275 C  
HETATM   15  C   UNL     1      -7.022  16.821  69.502  1.00  0.00    -0.089 C  
HETATM   16  C   UNL     1      -5.542  17.095  69.282  1.00  0.00    -0.177 C  
HETATM   17  C   UNL     1      -5.257  18.581  69.440  1.00  0.00    -0.200 C  
HETATM   18  C   UNL     1      -5.986  19.363  68.350  1.00  0.00    -0.248 C  
HETATM   19  C   UNL     1      -7.507  19.185  68.461  1.00  0.00    -0.325 C  
BRANCH  19  20
HETATM   20  N   UNL     1      -8.352  19.837  67.432  1.00  0.00    -0.299 NA 
HETATM   21  C   UNL     1      -9.649  20.350  67.879  1.00  0.00    -0.257 C  
HETATM   22  C   UNL     1     -10.645  19.230  67.629  1.00  0.00    -0.553 C  
HETATM   23  C   UNL     1     -10.063  18.462  66.449  1.00  0.00    -0.403 C  
HETATM   24  C   UNL     1      -8.646  19.014  66.257  1.00  0.00    -0.274 C  
HETATM   25  O   UNL     1     -10.865  18.672  65.291  1.00  0.00    -0.591 OA 
HETATM   26  H   UNL     1     -10.501  18.193  64.555  1.00  0.00     0.000 HD 
ENDBRANCH  19  20
ENDBRANCH  13  14
ENDBRANCH  12  13
ENDBRANCH  11  12
ENDBRANCH   8  11
ENDBRANCH   2   3
TORSDOF 7
ENDMDL
MODEL      336
REMARK 921   NORMALIZED FREE ENERGY PREDICTED BY IDOCK:   -2.09 KCAL/MOL
REMARK 922        TOTAL FREE ENERGY PREDICTED BY IDOCK:   -3.87 KCAL/MOL
REMARK 923 INTER-LIGAND FREE ENERGY PREDICTED BY IDOCK:   -3.49 KCAL/MOL
REMARK 924 INTRA-LIGAND FREE ENERGY PREDICTED BY IDOCK:   -0.38 KCAL/MOL
REMARK 927      BINDING AFFINITY PREDICTED BY RF-SCORE:    0.00 PKD
ROOT
HETATM    1  C   UNL     1      -7.254   2.724  67.316  1.00  0.00    -0.053 C  
HETATM    2  O   UNL     1      -7.467   3.983  66.696  1.00  0.00    -0.081 OA 
ENDROOT
BRANCH   2   3
HETATM    3  C   UNL     1      -8.144   4.927  67.423  1.00  0.00    -0.106 A  
HETATM    4  C   UNL     1      -9.260   5.676  67.027  1.00  0.00    -0.117 A  
HETATM    5  C   UNL     1      -9.793   6.624  67.910  1.00  0.00    -0.138 A  
HETATM    6  C   UNL     1      -7.554   5.181  68.670  1.00  0.00    -0.078 A  
HETATM    7  C   UNL     1      -8.066   6.158  69.527  1.00  0.00    -0.112 A  
HETATM    8  C   UNL     1      -9.168   6.908  69.127  1.00  0.00    -0.141 A  
BRANCH   4   9
HETATM    9  O   UNL     1      -9.817   5.476  65.789  1.00  0.00    -0.061 OA 
HETATM   10  C   UNL     1     -11.101   4.853  65.803  1.00  0.00     0.213 C  
ENDBRANCH   4   9
BRANCH   8  11
HETATM   11  C   UNL     1      -9.685   8.025  69.988  1.00  0.00    -0.173 C  
BRANCH  11  12
HETATM   12  C   UNL     1     -10.715   8.888  69.280  1.00  0.00    -0.162 C  
BRANCH  12  13
HETATM   13  O   UNL     1     -10.067   9.893  68.500  1.00  0.00    -0.157 OA 
BRANCH  13  14
HETATM   14  C   UNL     1     -10.199  11.246  68.982  1.00  0.00    -0.150 C  
HETATM   15  C   UNL     1     -11.547  11.438  69.696  1.00  0.00    -0.399 C  
HETATM   16  C   UNL     1     -11.858  12.894  70.006  1.00  0.00    -0.356 C  
HETATM   17  C   UNL     1     -11.750  13.732  68.741  1.00  0.00    -0.391 C  
HETATM   18  C   UNL     1     -10.310  13.719  68.236  1.00  0.00    -0.247 C  
HETATM   19  C   UNL     1      -9.862  12.297  67.870  1.00  0.00    -0.201 C  
BRANCH  19  20
HETATM   20  N   UNL     1      -8.463  12.112  67.418  1.00  0.00    -0.165 NA 
HETATM   21  C   UNL     1      -7.552  11.453  68.358  1.00  0.00    -0.123 C  
HETATM   22  C   UNL     1      -6.888  12.572  69.143  1.00  0.00    -0.062 C  
HETATM   23  C   UNL     1      -6.883  13.755  68.184  1.00  0.00    -0.122 C  
HETATM   24  C   UNL     1      -7.775  13.338  67.009  1.00  0.00     0.124 C  
HETATM   25  O   UNL     1      -5.552  14.027  67.757  1.00  0.00    -0.237 OA 
HETATM   26  H   UNL     1      -5.550  14.765  67.159  1.00  0.00     0.000 HD 
ENDBRANCH  19  20
ENDBRANCH  13  14
ENDBRANCH  12  13
ENDBRANCH  11  12
ENDBRANCH   8  11
ENDBRANCH   2   3
TORSDOF 7
ENDMDL
MODEL      337
REMARK 921   NORMALIZED FREE ENERGY PREDICTED BY IDOCK:   -2.09 KCAL/MOL
REMARK 922        TOTAL FREE ENERGY PREDICTED BY IDOCK:   -3.87 KCAL/MOL
REMARK 923 INTER-LIGAND FREE ENERGY PREDICTED BY IDOCK:   -6.07 KCAL/MOL
REMARK 924 INTRA-LIGAND FREE ENERGY PREDICTED BY IDOCK:    2.20 KCAL/MOL
REMARK 927      BINDING AFFINITY PREDICTED BY RF-SCORE:    0.00 PKD
ROOT
HETATM    1  C   UNL     1     -10.889   9.211  68.647  1.00  0.00    -0.049 C  
HETATM    2  O   UNL     1     -11.226  10.126  67.615  1.00  0.00    -0.284 OA 
ENDROOT
BRANCH   2   3
HETATM    3  C   UNL     1     -10.682  11.381  67.696  1.00  0.00    -0.216 A  
HETATM    4  C   UNL     1     -10.784  12.291  68.758  1.00  0.00    -0.214 A  
HETATM    5  C   UNL     1     -10.180  13.550  68.636  1.00  0.00    -0.193 A  
HETATM    6  C   UNL     1     -10.027  11.771  66.519  1.00  0.00    -0.229 A  
HETATM    7  C   UNL     1      -9.465  13.042  66.390  1.00  0.00    -0.228 A  
HETATM    8  C   UNL     1      -9.576  13.948  67.441  1.00  0.00    -0.235 A  
BRANCH   4   9
HETATM    9  O   UNL     1     -11.466  11.945  69.896  1.00  0.00    -0.265 OA 
HETATM   10  C   UNL     1     -12.617  12.742  70.173  1.00  0.00     0.079 C  
ENDBRANCH   4   9
BRANCH   8  11
HETATM   11  C   UNL     1      -9.061  15.352  67.297  1.00  0.00    -0.218 C  
BRANCH  11  12
HETATM   12  C   UNL     1      -9.183  15.883  65.880  1.00  0.00    -0.297 C  
BRANCH  12  13
HETATM   13  O   UNL     1      -8.461  17.107  65.747  1.00  0.00    -0.522 OA 
BRANCH  13  14
HETATM   14  C   UNL     1      -8.811  18.149  66.679  1.00  0.00    -0.275 C  
HETATM   15  C   UNL     1     -10.287  18.546  66.521  1.00  0.00    -0.447 C  
HETATM   16  C   UNL     1     -10.656  19.803  67.295  1.00  0.00    -0.565 C  
HETATM   17  C   UNL     1      -9.711  20.937  66.928  1.00  0.00    -0.160 C  
HETATM   18  C   UNL     1      -8.292  20.587  67.368  1.00  0.00    -0.351 C  
HETATM   19  C   UNL     1      -7.781  19.330  66.648  1.00  0.00    -0.255 C  
BRANCH  19  20
HETATM   20  N   UNL     1      -6.436  18.827  67.014  1.00  0.00    -0.187 NA 
HETATM   21  C   UNL     1      -6.097  17.475  66.565  1.00  0.00    -0.213 C  
HETATM   22  C   UNL     1      -6.480  16.551  67.710  1.00  0.00    -0.162 C  
HETATM   23  C   UNL     1      -6.333  17.414  68.957  1.00  0.00    -0.220 C  
HETATM   24  C   UNL     1      -6.135  18.845  68.448  1.00  0.00    -0.217 C  
HETATM   25  O   UNL     1      -5.216  16.973  69.721  1.00  0.00    -0.151 OA 
HETATM   26  H   UNL     1      -5.124  17.511  70.499  1.00  0.00     0.000 HD 
ENDBRANCH  19  20
ENDBRANCH  13  14
ENDBRANCH  12  13
ENDBRANCH  11  12
ENDBRANCH   8  11
ENDBRANCH   2   3
TORSDOF 7
ENDMDL
MODEL      338
REMARK 921   NORMALIZED FREE ENERGY PREDICTED BY IDOCK:   -2.03 KCAL/MOL
REMARK 922        TOTAL FREE ENERGY PREDICTED BY IDOCK:   -3.78 KCAL/MOL
REMARK 923 INTER-LIGAND FREE ENERGY PREDICTED BY IDOCK:   -4.15 KCAL/MOL
REMARK 924 INTRA-LIGAND FREE ENERGY PREDICTED BY IDOCK:    0.37 KCAL/MOL
REMARK 927      BINDING AFFINITY PREDICTED BY RF-SCORE:    0.00 PKD
ROOT
HETATM    1  C   UNL     1      -8.961  10.214  65.401  1.00  0.00    -0.177 C  
HETATM    2  O   UNL     1     -10.184  10.511  64.744  1.00  0.00    -0.341 OA 
ENDROOT
BRANCH   2   3
HETATM    3  C   UNL     1     -10.590  11.819  64.751  1.00  0.00    -0.301 A  
HETATM    4  C   UNL     1     -11.624  12.399  64.001  1.00  0.00    -0.413 A  
HETATM    5  C   UNL     1     -11.866  13.774  64.125  1.00  0.00    -0.439 A  
HETATM    6  C   UNL     1      -9.790  12.636  65.563  1.00  0.00    -0.177 A  
HETATM    7  C   UNL     1     -10.011  14.011  65.648  1.00  0.00    -0.309 A  
HETATM    8  C   UNL     1     -11.031  14.587  64.894  1.00  0.00    -0.421 A  
BRANCH   4   9
HETATM    9  O   UNL     1     -12.382  11.623  63.163  1.00  0.00    -0.399 OA 
HETATM   10  C   UNL     1     -13.773  11.578  63.481  1.00  0.00     1.803 C  
ENDBRANCH   4   9
BRANCH   8  11
HETATM   11  C   UNL     1     -11.234  16.076  64.895  1.00  0.00    -0.319 C  
BRANCH  11  12
HETATM   12  C   UNL     1     -10.051  16.832  65.473  1.00  0.00    -0.095 C  
BRANCH  12  13
HETATM   13  O   UNL     1     -10.343  17.268  66.801  1.00  0.00    -0.316 OA 
BRANCH  13  14
HETATM   14  C   UNL     1     -10.369  16.238  67.810  1.00  0.00    -0.287 C  
HETATM   15  C   UNL     1     -11.808  15.979  68.283  1.00  0.00     0.001 C  
HETATM   16  C   UNL     1     -11.882  15.090  69.515  1.00  0.00    -0.360 C  
HETATM   17  C   UNL     1     -11.003  15.656  70.621  1.00  0.00    -0.364 C  
HETATM   18  C   UNL     1      -9.542  15.627  70.182  1.00  0.00     0.230 C  
HETATM   19  C   UNL     1      -9.317  16.502  68.940  1.00  0.00    -0.256 C  
BRANCH  19  20
HETATM   20  N   UNL     1      -7.955  16.530  68.356  1.00  0.00    -0.184 NA 
HETATM   21  C   UNL     1      -6.836  16.562  69.301  1.00  0.00    -0.224 C  
HETATM   22  C   UNL     1      -6.509  18.032  69.505  1.00  0.00    -0.185 C  
HETATM   23  C   UNL     1      -6.921  18.695  68.196  1.00  0.00    -0.243 C  
HETATM   24  C   UNL     1      -7.703  17.629  67.422  1.00  0.00    -0.200 C  
HETATM   25  O   UNL     1      -5.765  19.117  67.481  1.00  0.00    -0.175 OA 
HETATM   26  H   UNL     1      -6.022  19.530  66.665  1.00  0.00     0.000 HD 
ENDBRANCH  19  20
ENDBRANCH  13  14
ENDBRANCH  12  13
ENDBRANCH  11  12
ENDBRANCH   8  11
ENDBRANCH   2   3
TORSDOF 7
ENDMDL
MODEL      339
REMARK 921   NORMALIZED FREE ENERGY PREDICTED BY IDOCK:   -2.01 KCAL/MOL
REMARK 922        TOTAL FREE ENERGY PREDICTED BY IDOCK:   -3.75 KCAL/MOL
REMARK 923 INTER-LIGAND FREE ENERGY PREDICTED BY IDOCK:   -3.69 KCAL/MOL
REMARK 924 INTRA-LIGAND FREE ENERGY PREDICTED BY IDOCK:   -0.06 KCAL/MOL
REMARK 927      BINDING AFFINITY PREDICTED BY RF-SCORE:    0.00 PKD
ROOT
HETATM    1  C   UNL     1      -8.430   8.034  74.071  1.00  0.00    -0.252 C  
HETATM    2  O   UNL     1      -9.014   8.276  72.799  1.00  0.00    -0.219 OA 
ENDROOT
BRANCH   2   3
HETATM    3  C   UNL     1      -9.238   7.185  72.001  1.00  0.00    -0.134 A  
HETATM    4  C   UNL     1     -10.306   6.976  71.117  1.00  0.00    -0.206 A  
HETATM    5  C   UNL     1     -10.376   5.769  70.408  1.00  0.00    -0.310 A  
HETATM    6  C   UNL     1      -8.298   6.163  72.197  1.00  0.00    -0.110 A  
HETATM    7  C   UNL     1      -8.400   4.947  71.518  1.00  0.00    -0.113 A  
HETATM    8  C   UNL     1      -9.466   4.737  70.649  1.00  0.00    -0.238 A  
BRANCH   4   9
HETATM    9  O   UNL     1     -11.262   7.946  70.954  1.00  0.00    -0.262 OA 
HETATM   10  C   UNL     1     -12.190   8.061  72.032  1.00  0.00    -0.331 C  
ENDBRANCH   4   9
BRANCH   8  11
HETATM   11  C   UNL     1      -9.652   3.407  69.975  1.00  0.00    -0.202 C  
BRANCH  11  12
HETATM   12  C   UNL     1      -8.817   3.263  68.715  1.00  0.00    -0.115 C  
BRANCH  12  13
HETATM   13  O   UNL     1      -8.466   4.550  68.204  1.00  0.00    -0.094 OA 
BRANCH  13  14
HETATM   14  C   UNL     1      -8.876   4.823  66.849  1.00  0.00    -0.110 C  
HETATM   15  C   UNL     1      -9.292   3.526  66.137  1.00  0.00    -0.168 C  
HETATM   16  C   UNL     1      -9.496   3.704  64.640  1.00  0.00    -0.159 C  
HETATM   17  C   UNL     1      -8.259   4.333  64.016  1.00  0.00    -0.096 C  
HETATM   18  C   UNL     1      -8.062   5.741  64.573  1.00  0.00    -0.132 C  
HETATM   19  C   UNL     1      -7.831   5.711  66.091  1.00  0.00    -0.100 C  
BRANCH  19  20
HETATM   20  N   UNL     1      -7.682   7.009  66.789  1.00  0.00    -0.097 NA 
HETATM   21  C   UNL     1      -6.536   7.835  66.401  1.00  0.00    -0.050 C  
HETATM   22  C   UNL     1      -5.419   7.471  67.365  1.00  0.00    -0.030 C  
HETATM   23  C   UNL     1      -6.141   7.041  68.635  1.00  0.00    -0.027 C  
HETATM   24  C   UNL     1      -7.620   6.925  68.250  1.00  0.00    -0.107 C  
HETATM   25  O   UNL     1      -5.944   8.012  69.657  1.00  0.00    -0.029 OA 
HETATM   26  H   UNL     1      -6.395   7.744  70.450  1.00  0.00     0.000 HD 
ENDBRANCH  19  20
ENDBRANCH  13  14
ENDBRANCH  12  13
ENDBRANCH  11  12
ENDBRANCH   8  11
ENDBRANCH   2   3
TORSDOF 7
ENDMDL
MODEL      340
REMARK 921   NORMALIZED FREE ENERGY PREDICTED BY IDOCK:   -1.86 KCAL/MOL
REMARK 922        TOTAL FREE ENERGY PREDICTED BY IDOCK:   -3.55 KCAL/MOL
REMARK 923 INTER-LIGAND FREE ENERGY PREDICTED BY IDOCK:   -3.49 KCAL/MOL
REMARK 924 INTRA-LIGAND FREE ENERGY PREDICTED BY IDOCK:   -0.06 KCAL/MOL
REMARK 927      BINDING AFFINITY PREDICTED BY RF-SCORE:    0.00 PKD
ROOT
HETATM    1  C   UNL     1      -5.587  13.991  71.992  1.00  0.00    -0.177 C  
HETATM    2  O   UNL     1      -5.133  12.754  71.464  1.00  0.00    -0.157 OA 
ENDROOT
BRANCH   2   3
HETATM    3  C   UNL     1      -5.835  12.235  70.408  1.00  0.00    -0.152 A  
HETATM    4  C   UNL     1      -6.245  12.899  69.243  1.00  0.00    -0.104 A  
HETATM    5  C   UNL     1      -6.989  12.197  68.286  1.00  0.00    -0.080 A  
HETATM    6  C   UNL     1      -6.223  10.903  70.612  1.00  0.00    -0.003 A  
HETATM    7  C   UNL     1      -7.000  10.224  69.672  1.00  0.00    -0.114 A  
HETATM    8  C   UNL     1      -7.416  10.888  68.521  1.00  0.00    -0.103 A  
BRANCH   4   9
HETATM    9  O   UNL     1      -5.918  14.217  69.053  1.00  0.00    -0.086 OA 
HETATM   10  C   UNL     1      -6.051  14.680  67.709  1.00  0.00    -0.119 C  
ENDBRANCH   4   9
BRANCH   8  11
HETATM   11  C   UNL     1      -8.328  10.212  67.537  1.00  0.00    -0.118 C  
BRANCH  11  12
HETATM   12  C   UNL     1      -9.248   9.194  68.187  1.00  0.00    -0.131 C  
BRANCH  12  13
HETATM   13  O   UNL     1      -9.469   8.093  67.304  1.00  0.00    -0.144 OA 
BRANCH  13  14
HETATM   14  C   UNL     1     -10.081   6.928  67.893  1.00  0.00    -0.162 C  
HETATM   15  C   UNL     1     -10.779   7.291  69.213  1.00  0.00    -0.212 C  
HETATM   16  C   UNL     1     -11.228   6.074  70.008  1.00  0.00    -0.425 C  
HETATM   17  C   UNL     1     -10.057   5.126  70.216  1.00  0.00    -0.338 C  
HETATM   18  C   UNL     1      -9.587   4.585  68.868  1.00  0.00    -0.235 C  
HETATM   19  C   UNL     1      -9.089   5.717  67.958  1.00  0.00    -0.110 C  
BRANCH  19  20
HETATM   20  N   UNL     1      -8.654   5.357  66.588  1.00  0.00    -0.114 NA 
HETATM   21  C   UNL     1      -9.618   5.591  65.511  1.00  0.00     0.125 C  
HETATM   22  C   UNL     1     -10.377   4.284  65.345  1.00  0.00    -0.217 C  
HETATM   23  C   UNL     1      -9.385   3.213  65.781  1.00  0.00    -0.105 C  
HETATM   24  C   UNL     1      -8.216   3.970  66.420  1.00  0.00    -0.101 C  
HETATM   25  O   UNL     1      -8.961   2.457  64.651  1.00  0.00    -0.109 OA 
HETATM   26  H   UNL     1      -8.342   1.789  64.923  1.00  0.00     0.000 HD 
ENDBRANCH  19  20
ENDBRANCH  13  14
ENDBRANCH  12  13
ENDBRANCH  11  12
ENDBRANCH   8  11
ENDBRANCH   2   3
TORSDOF 7
ENDMDL
MODEL      341
REMARK 921   NORMALIZED FREE ENERGY PREDICTED BY IDOCK:   -1.84 KCAL/MOL
REMARK 922        TOTAL FREE ENERGY PREDICTED BY IDOCK:   -3.52 KCAL/MOL
REMARK 923 INTER-LIGAND FREE ENERGY PREDICTED BY IDOCK:   -5.15 KCAL/MOL
REMARK 924 INTRA-LIGAND FREE ENERGY PREDICTED BY IDOCK:    1.63 KCAL/MOL
REMARK 927      BINDING AFFINITY PREDICTED BY RF-SCORE:    0.00 PKD
ROOT
HETATM    1  C   UNL     1      -5.687  18.207  66.745  1.00  0.00    -0.146 C  
HETATM    2  O   UNL     1      -7.091  18.301  66.932  1.00  0.00    -0.188 OA 
ENDROOT
BRANCH   2   3
HETATM    3  C   UNL     1      -7.746  17.155  67.302  1.00  0.00    -0.174 A  
HETATM    4  C   UNL     1      -7.184  15.970  67.798  1.00  0.00    -0.143 A  
HETATM    5  C   UNL     1      -8.026  14.889  68.091  1.00  0.00    -0.130 A  
HETATM    6  C   UNL     1      -9.126  17.212  67.060  1.00  0.00    -0.242 A  
HETATM    7  C   UNL     1      -9.951  16.116  67.314  1.00  0.00    -0.248 A  
HETATM    8  C   UNL     1      -9.391  14.936  67.796  1.00  0.00    -0.194 A  
BRANCH   4   9
HETATM    9  O   UNL     1      -5.830  15.880  67.992  1.00  0.00    -0.109 OA 
HETATM   10  C   UNL     1      -5.435  15.537  69.320  1.00  0.00    -0.097 C  
ENDBRANCH   4   9
BRANCH   8  11
HETATM   11  C   UNL     1     -10.239  13.712  67.994  1.00  0.00    -0.248 C  
BRANCH  11  12
HETATM   12  C   UNL     1     -11.160  13.437  66.818  1.00  0.00    -0.292 C  
BRANCH  12  13
HETATM   13  O   UNL     1     -12.098  12.413  67.153  1.00  0.00    -0.532 OA 
BRANCH  13  14
HETATM   14  C   UNL     1     -11.553  11.251  67.810  1.00  0.00    -0.230 C  
HETATM   15  C   UNL     1     -11.498  11.463  69.331  1.00  0.00    -0.378 C  
HETATM   16  C   UNL     1     -10.709  10.385  70.058  1.00  0.00    -0.321 C  
HETATM   17  C   UNL     1      -9.324  10.249  69.444  1.00  0.00    -0.217 C  
HETATM   18  C   UNL     1      -9.446   9.765  68.001  1.00  0.00    -0.144 C  
HETATM   19  C   UNL     1     -10.219  10.774  67.140  1.00  0.00    -0.213 C  
BRANCH  19  20
HETATM   20  N   UNL     1     -10.473  10.418  65.724  1.00  0.00    -0.170 NA 
HETATM   21  C   UNL     1      -9.690   9.307  65.177  1.00  0.00     0.073 C  
HETATM   22  C   UNL     1      -8.465   9.941  64.538  1.00  0.00    -0.181 C  
HETATM   23  C   UNL     1      -8.933  11.328  64.117  1.00  0.00     0.117 C  
HETATM   24  C   UNL     1     -10.308  11.515  64.768  1.00  0.00    -0.289 C  
HETATM   25  O   UNL     1      -9.015  11.401  62.697  1.00  0.00    -0.451 OA 
HETATM   26  H   UNL     1      -9.308  12.266  62.435  1.00  0.00     0.000 HD 
ENDBRANCH  19  20
ENDBRANCH  13  14
ENDBRANCH  12  13
ENDBRANCH  11  12
ENDBRANCH   8  11
ENDBRANCH   2   3
TORSDOF 7
ENDMDL
MODEL      342
REMARK 921   NORMALIZED FREE ENERGY PREDICTED BY IDOCK:   -1.82 KCAL/MOL
REMARK 922        TOTAL FREE ENERGY PREDICTED BY IDOCK:   -3.49 KCAL/MOL
REMARK 923 INTER-LIGAND FREE ENERGY PREDICTED BY IDOCK:   -4.80 KCAL/MOL
REMARK 924 INTRA-LIGAND FREE ENERGY PREDICTED BY IDOCK:    1.32 KCAL/MOL
REMARK 927      BINDING AFFINITY PREDICTED BY RF-SCORE:    0.00 PKD
ROOT
HETATM    1  C   UNL     1     -12.434  11.721  64.192  1.00  0.00    -0.149 C  
HETATM    2  O   UNL     1     -11.255  11.953  64.947  1.00  0.00    -0.309 OA 
ENDROOT
BRANCH   2   3
HETATM    3  C   UNL     1     -11.245  11.498  66.240  1.00  0.00    -0.222 A  
HETATM    4  C   UNL     1     -11.535  12.221  67.405  1.00  0.00    -0.352 A  
HETATM    5  C   UNL     1     -11.437  11.579  68.647  1.00  0.00    -0.354 A  
HETATM    6  C   UNL     1     -10.812  10.168  66.347  1.00  0.00     0.006 A  
HETATM    7  C   UNL     1     -10.676   9.550  67.591  1.00  0.00    -0.314 A  
HETATM    8  C   UNL     1     -10.954  10.273  68.747  1.00  0.00    -0.285 A  
BRANCH   4   9
HETATM    9  O   UNL     1     -11.910  13.538  67.320  1.00  0.00    -0.355 OA 
HETATM   10  C   UNL     1     -11.500  14.202  66.126  1.00  0.00    -0.347 C  
ENDBRANCH   4   9
BRANCH   8  11
HETATM   11  C   UNL     1     -10.730   9.662  70.102  1.00  0.00    -0.321 C  
BRANCH  11  12
HETATM   12  C   UNL     1      -9.259   9.529  70.454  1.00  0.00    -0.253 C  
BRANCH  12  13
HETATM   13  O   UNL     1      -8.448   9.938  69.351  1.00  0.00    -0.137 OA 
BRANCH  13  14
HETATM   14  C   UNL     1      -7.834   8.877  68.594  1.00  0.00    -0.102 C  
HETATM   15  C   UNL     1      -7.965   7.536  69.334  1.00  0.00    -0.123 C  
HETATM   16  C   UNL     1      -7.127   6.427  68.717  1.00  0.00    -0.082 C  
HETATM   17  C   UNL     1      -5.679   6.876  68.590  1.00  0.00    -0.018 C  
HETATM   18  C   UNL     1      -5.588   8.048  67.617  1.00  0.00    -0.038 C  
HETATM   19  C   UNL     1      -6.387   9.256  68.125  1.00  0.00    -0.054 C  
BRANCH  19  20
HETATM   20  N   UNL     1      -6.445  10.457  67.258  1.00  0.00    -0.066 NA 
HETATM   21  C   UNL     1      -7.532  10.506  66.278  1.00  0.00    -0.133 C  
HETATM   22  C   UNL     1      -6.963   9.916  64.998  1.00  0.00    -0.130 C  
HETATM   23  C   UNL     1      -5.472  10.223  65.071  1.00  0.00    -0.119 C  
HETATM   24  C   UNL     1      -5.225  10.731  66.496  1.00  0.00    -0.072 C  
HETATM   25  O   UNL     1      -5.133  11.208  64.101  1.00  0.00    -0.476 OA 
HETATM   26  H   UNL     1      -4.204  11.400  64.146  1.00  0.00     0.000 HD 
ENDBRANCH  19  20
ENDBRANCH  13  14
ENDBRANCH  12  13
ENDBRANCH  11  12
ENDBRANCH   8  11
ENDBRANCH   2   3
TORSDOF 7
ENDMDL
MODEL      343
REMARK 921   NORMALIZED FREE ENERGY PREDICTED BY IDOCK:   -1.72 KCAL/MOL
REMARK 922        TOTAL FREE ENERGY PREDICTED BY IDOCK:   -3.35 KCAL/MOL
REMARK 923 INTER-LIGAND FREE ENERGY PREDICTED BY IDOCK:   -3.46 KCAL/MOL
REMARK 924 INTRA-LIGAND FREE ENERGY PREDICTED BY IDOCK:    0.11 KCAL/MOL
REMARK 927      BINDING AFFINITY PREDICTED BY RF-SCORE:    0.00 PKD
ROOT
HETATM    1  C   UNL     1      -9.465  17.159  67.966  1.00  0.00    -0.262 C  
HETATM    2  O   UNL     1      -8.519  16.672  68.905  1.00  0.00    -0.244 OA 
ENDROOT
BRANCH   2   3
HETATM    3  C   UNL     1      -8.146  15.358  68.787  1.00  0.00    -0.166 A  
HETATM    4  C   UNL     1      -8.908  14.293  68.287  1.00  0.00    -0.185 A  
HETATM    5  C   UNL     1      -8.355  13.006  68.278  1.00  0.00    -0.158 A  
HETATM    6  C   UNL     1      -6.872  15.102  69.315  1.00  0.00    -0.153 A  
HETATM    7  C   UNL     1      -6.346  13.810  69.341  1.00  0.00    -0.111 A  
HETATM    8  C   UNL     1      -7.108  12.752  68.854  1.00  0.00    -0.067 A  
BRANCH   4   9
HETATM    9  O   UNL     1     -10.176  14.519  67.814  1.00  0.00    -0.224 OA 
HETATM   10  C   UNL     1     -10.471  13.891  66.567  1.00  0.00    -0.282 C  
ENDBRANCH   4   9
BRANCH   8  11
HETATM   11  C   UNL     1      -6.606  11.340  68.952  1.00  0.00    -0.068 C  
BRANCH  11  12
HETATM   12  C   UNL     1      -7.401  10.369  68.097  1.00  0.00    -0.088 C  
BRANCH  12  13
HETATM   13  O   UNL     1      -7.508   9.105  68.753  1.00  0.00    -0.074 OA 
BRANCH  13  14
HETATM   14  C   UNL     1      -8.674   8.324  68.425  1.00  0.00    -0.133 C  
HETATM   15  C   UNL     1      -9.829   8.643  69.388  1.00  0.00    -0.184 C  
HETATM   16  C   UNL     1     -11.000   7.680  69.259  1.00  0.00    -0.030 C  
HETATM   17  C   UNL     1     -10.514   6.246  69.396  1.00  0.00    -0.298 C  
HETATM   18  C   UNL     1      -9.576   5.907  68.240  1.00  0.00    -0.134 C  
HETATM   19  C   UNL     1      -8.330   6.804  68.255  1.00  0.00    -0.118 C  
BRANCH  19  20
HETATM   20  N   UNL     1      -7.350   6.637  67.156  1.00  0.00    -0.081 NA 
HETATM   21  C   UNL     1      -7.630   7.357  65.912  1.00  0.00    -0.089 C  
HETATM   22  C   UNL     1      -8.402   6.384  65.036  1.00  0.00    -0.087 C  
HETATM   23  C   UNL     1      -7.916   5.010  65.479  1.00  0.00    -0.104 C  
HETATM   24  C   UNL     1      -7.100   5.252  66.753  1.00  0.00    -0.069 C  
HETATM   25  O   UNL     1      -7.120   4.424  64.453  1.00  0.00    -0.049 OA 
HETATM   26  H   UNL     1      -6.817   3.567  64.730  1.00  0.00     0.000 HD 
ENDBRANCH  19  20
ENDBRANCH  13  14
ENDBRANCH  12  13
ENDBRANCH  11  12
ENDBRANCH   8  11
ENDBRANCH   2   3
TORSDOF 7
ENDMDL
MODEL      344
REMARK 921   NORMALIZED FREE ENERGY PREDICTED BY IDOCK:   -1.59 KCAL/MOL
REMARK 922        TOTAL FREE ENERGY PREDICTED BY IDOCK:   -3.17 KCAL/MOL
REMARK 923 INTER-LIGAND FREE ENERGY PREDICTED BY IDOCK:   -2.70 KCAL/MOL
REMARK 924 INTRA-LIGAND FREE ENERGY PREDICTED BY IDOCK:   -0.47 KCAL/MOL
REMARK 927      BINDING AFFINITY PREDICTED BY RF-SCORE:    0.00 PKD
ROOT
HETATM    1  C   UNL     1      -8.657   7.537  65.030  1.00  0.00     0.089 C  
HETATM    2  O   UNL     1      -7.445   7.655  65.761  1.00  0.00    -0.074 OA 
ENDROOT
BRANCH   2   3
HETATM    3  C   UNL     1      -7.310   6.863  66.871  1.00  0.00    -0.082 A  
HETATM    4  C   UNL     1      -8.193   6.750  67.954  1.00  0.00    -0.117 A  
HETATM    5  C   UNL     1      -7.858   5.903  69.019  1.00  0.00    -0.095 A  
HETATM    6  C   UNL     1      -6.091   6.171  66.904  1.00  0.00    -0.025 A  
HETATM    7  C   UNL     1      -5.746   5.363  67.989  1.00  0.00    -0.016 A  
HETATM    8  C   UNL     1      -6.619   5.260  69.068  1.00  0.00    -0.051 A  
BRANCH   4   9
HETATM    9  O   UNL     1      -9.366   7.460  67.962  1.00  0.00    -0.135 OA 
HETATM   10  C   UNL     1     -10.549   6.665  68.030  1.00  0.00    -0.245 C  
ENDBRANCH   4   9
BRANCH   8  11
HETATM   11  C   UNL     1      -6.236   4.471  70.288  1.00  0.00    -0.022 C  
BRANCH  11  12
HETATM   12  C   UNL     1      -5.406   5.274  71.273  1.00  0.00    -0.005 C  
BRANCH  12  13
HETATM   13  O   UNL     1      -6.098   5.398  72.517  1.00  0.00    -0.029 OA 
BRANCH  13  14
HETATM   14  C   UNL     1      -7.364   6.086  72.467  1.00  0.00    -0.090 C  
HETATM   15  C   UNL     1      -7.156   7.585  72.197  1.00  0.00    -0.067 C  
HETATM   16  C   UNL     1      -8.423   8.407  72.379  1.00  0.00    -0.238 C  
HETATM   17  C   UNL     1      -9.022   8.146  73.752  1.00  0.00    -0.221 C  
HETATM   18  C   UNL     1      -9.463   6.688  73.852  1.00  0.00    -0.212 C  
HETATM   19  C   UNL     1      -8.268   5.735  73.697  1.00  0.00    -0.111 C  
BRANCH  19  20
HETATM   20  N   UNL     1      -8.545   4.278  73.711  1.00  0.00    -0.092 NA 
HETATM   21  C   UNL     1      -8.665   3.621  72.408  1.00  0.00    -0.089 C  
HETATM   22  C   UNL     1     -10.147   3.646  72.068  1.00  0.00    -0.199 C  
HETATM   23  C   UNL     1     -10.845   3.640  73.422  1.00  0.00    -0.218 C  
HETATM   24  C   UNL     1      -9.741   3.881  74.457  1.00  0.00    -0.128 C  
HETATM   25  O   UNL     1     -11.490   2.388  73.629  1.00  0.00    -0.223 OA 
HETATM   26  H   UNL     1     -11.925   2.385  74.474  1.00  0.00     0.000 HD 
ENDBRANCH  19  20
ENDBRANCH  13  14
ENDBRANCH  12  13
ENDBRANCH  11  12
ENDBRANCH   8  11
ENDBRANCH   2   3
TORSDOF 7
ENDMDL
MODEL      345
REMARK 921   NORMALIZED FREE ENERGY PREDICTED BY IDOCK:   -1.55 KCAL/MOL
REMARK 922        TOTAL FREE ENERGY PREDICTED BY IDOCK:   -3.11 KCAL/MOL
REMARK 923 INTER-LIGAND FREE ENERGY PREDICTED BY IDOCK:   -4.22 KCAL/MOL
REMARK 924 INTRA-LIGAND FREE ENERGY PREDICTED BY IDOCK:    1.11 KCAL/MOL
REMARK 927      BINDING AFFINITY PREDICTED BY RF-SCORE:    0.00 PKD
ROOT
HETATM    1  C   UNL     1      -8.256   5.558  68.999  1.00  0.00    -0.099 C  
HETATM    2  O   UNL     1      -9.589   5.974  69.253  1.00  0.00    -0.133 OA 
ENDROOT
BRANCH   2   3
HETATM    3  C   UNL     1      -9.961   7.199  68.764  1.00  0.00    -0.163 A  
HETATM    4  C   UNL     1     -10.508   8.276  69.477  1.00  0.00    -0.227 A  
HETATM    5  C   UNL     1     -10.855   9.444  68.785  1.00  0.00    -0.147 A  
HETATM    6  C   UNL     1      -9.825   7.296  67.372  1.00  0.00    -0.206 A  
HETATM    7  C   UNL     1     -10.213   8.448  66.685  1.00  0.00    -0.335 A  
HETATM    8  C   UNL     1     -10.766   9.511  67.393  1.00  0.00    -0.297 A  
BRANCH   4   9
HETATM    9  O   UNL     1     -10.695   8.177  70.832  1.00  0.00    -0.215 OA 
HETATM   10  C   UNL     1     -10.451   9.380  71.560  1.00  0.00    -0.229 C  
ENDBRANCH   4   9
BRANCH   8  11
HETATM   11  C   UNL     1     -11.276  10.726  66.671  1.00  0.00     0.003 C  
BRANCH  11  12
HETATM   12  C   UNL     1     -10.317  11.901  66.742  1.00  0.00    -0.209 C  
BRANCH  12  13
HETATM   13  O   UNL     1     -10.992  13.062  67.230  1.00  0.00    -0.255 OA 
BRANCH  13  14
HETATM   14  C   UNL     1     -10.329  13.774  68.293  1.00  0.00    -0.247 C  
HETATM   15  C   UNL     1     -11.043  15.104  68.583  1.00  0.00    -0.276 C  
HETATM   16  C   UNL     1     -10.258  16.015  69.514  1.00  0.00    -0.274 C  
HETATM   17  C   UNL     1      -8.850  16.222  68.977  1.00  0.00    -0.243 C  
HETATM   18  C   UNL     1      -8.099  14.893  68.976  1.00  0.00    -0.165 C  
HETATM   19  C   UNL     1      -8.783  13.870  68.056  1.00  0.00    -0.183 C  
BRANCH  19  20
HETATM   20  N   UNL     1      -8.204  12.506  67.995  1.00  0.00    -0.156 NA 
HETATM   21  C   UNL     1      -7.238  12.156  69.039  1.00  0.00    -0.037 C  
HETATM   22  C   UNL     1      -5.871  12.493  68.466  1.00  0.00    -0.055 C  
HETATM   23  C   UNL     1      -6.041  12.326  66.961  1.00  0.00    -0.042 C  
HETATM   24  C   UNL     1      -7.547  12.167  66.731  1.00  0.00     0.055 C  
HETATM   25  O   UNL     1      -5.322  11.181  66.516  1.00  0.00    -0.089 OA 
HETATM   26  H   UNL     1      -5.428  11.078  65.577  1.00  0.00     0.000 HD 
ENDBRANCH  19  20
ENDBRANCH  13  14
ENDBRANCH  12  13
ENDBRANCH  11  12
ENDBRANCH   8  11
ENDBRANCH   2   3
TORSDOF 7
ENDMDL
MODEL      346
REMARK 921   NORMALIZED FREE ENERGY PREDICTED BY IDOCK:   -1.51 KCAL/MOL
REMARK 922        TOTAL FREE ENERGY PREDICTED BY IDOCK:   -3.05 KCAL/MOL
REMARK 923 INTER-LIGAND FREE ENERGY PREDICTED BY IDOCK:   -3.72 KCAL/MOL
REMARK 924 INTRA-LIGAND FREE ENERGY PREDICTED BY IDOCK:    0.67 KCAL/MOL
REMARK 927      BINDING AFFINITY PREDICTED BY RF-SCORE:    0.00 PKD
ROOT
HETATM    1  C   UNL     1     -10.800  16.584  69.189  1.00  0.00    -0.334 C  
HETATM    2  O   UNL     1      -9.591  15.845  69.280  1.00  0.00    -0.238 OA 
ENDROOT
BRANCH   2   3
HETATM    3  C   UNL     1      -9.578  14.603  68.701  1.00  0.00    -0.219 A  
HETATM    4  C   UNL     1      -8.896  14.205  67.542  1.00  0.00    -0.201 A  
HETATM    5  C   UNL     1      -9.036  12.887  67.089  1.00  0.00    -0.220 A  
HETATM    6  C   UNL     1     -10.425  13.691  69.347  1.00  0.00     0.180 A  
HETATM    7  C   UNL     1     -10.592  12.392  68.863  1.00  0.00    -0.160 A  
HETATM    8  C   UNL     1      -9.922  12.002  67.707  1.00  0.00    -0.199 A  
BRANCH   4   9
HETATM    9  O   UNL     1      -8.104  15.101  66.870  1.00  0.00    -0.211 OA 
HETATM   10  C   UNL     1      -6.965  15.559  67.598  1.00  0.00    -0.179 C  
ENDBRANCH   4   9
BRANCH   8  11
HETATM   11  C   UNL     1     -10.153  10.641  67.113  1.00  0.00    -0.248 C  
BRANCH  11  12
HETATM   12  C   UNL     1      -9.557   9.524  67.951  1.00  0.00    -0.133 C  
BRANCH  12  13
HETATM   13  O   UNL     1      -9.101   8.463  67.109  1.00  0.00    -0.134 OA 
BRANCH  13  14
HETATM   14  C   UNL     1      -7.971   7.714  67.598  1.00  0.00    -0.121 C  
HETATM   15  C   UNL     1      -7.344   6.880  66.470  1.00  0.00    -0.073 C  
HETATM   16  C   UNL     1      -6.311   5.880  66.967  1.00  0.00    -0.038 C  
HETATM   17  C   UNL     1      -6.910   5.011  68.062  1.00  0.00    -0.060 C  
HETATM   18  C   UNL     1      -7.259   5.875  69.271  1.00  0.00    -0.074 C  
HETATM   19  C   UNL     1      -8.314   6.933  68.913  1.00  0.00    -0.121 C  
BRANCH  19  20
HETATM   20  N   UNL     1      -8.714   7.891  69.970  1.00  0.00    -0.139 NA 
HETATM   21  C   UNL     1      -7.805   8.027  71.110  1.00  0.00    -0.089 C  
HETATM   22  C   UNL     1      -8.306   7.045  72.158  1.00  0.00    -0.107 C  
HETATM   23  C   UNL     1      -9.803   6.943  71.893  1.00  0.00    -0.164 C  
HETATM   24  C   UNL     1     -10.035   7.653  70.556  1.00  0.00    -0.184 C  
HETATM   25  O   UNL     1     -10.525   7.568  72.948  1.00  0.00    -0.254 OA 
HETATM   26  H   UNL     1     -11.458   7.504  72.783  1.00  0.00     0.000 HD 
ENDBRANCH  19  20
ENDBRANCH  13  14
ENDBRANCH  12  13
ENDBRANCH  11  12
ENDBRANCH   8  11
ENDBRANCH   2   3
TORSDOF 7
ENDMDL
MODEL      347
REMARK 921   NORMALIZED FREE ENERGY PREDICTED BY IDOCK:   -1.46 KCAL/MOL
REMARK 922        TOTAL FREE ENERGY PREDICTED BY IDOCK:   -2.98 KCAL/MOL
REMARK 923 INTER-LIGAND FREE ENERGY PREDICTED BY IDOCK:   -3.46 KCAL/MOL
REMARK 924 INTRA-LIGAND FREE ENERGY PREDICTED BY IDOCK:    0.48 KCAL/MOL
REMARK 927      BINDING AFFINITY PREDICTED BY RF-SCORE:    0.00 PKD
ROOT
HETATM    1  C   UNL     1      -8.157   6.690  62.370  1.00  0.00    -0.088 C  
HETATM    2  O   UNL     1      -7.062   7.360  62.977  1.00  0.00    -0.067 OA 
ENDROOT
BRANCH   2   3
HETATM    3  C   UNL     1      -7.025   7.373  64.347  1.00  0.00    -0.059 A  
HETATM    4  C   UNL     1      -6.253   8.201  65.175  1.00  0.00    -0.045 A  
HETATM    5  C   UNL     1      -6.332   8.038  66.564  1.00  0.00    -0.050 A  
HETATM    6  C   UNL     1      -7.814   6.368  64.925  1.00  0.00    -0.113 A  
HETATM    7  C   UNL     1      -7.854   6.185  66.308  1.00  0.00    -0.104 A  
HETATM    8  C   UNL     1      -7.079   7.001  67.127  1.00  0.00    -0.083 A  
BRANCH   4   9
HETATM    9  O   UNL     1      -5.437   9.155  64.623  1.00  0.00    -0.052 OA 
HETATM   10  C   UNL     1      -6.117  10.288  64.083  1.00  0.00    -0.120 C  
ENDBRANCH   4   9
BRANCH   8  11
HETATM   11  C   UNL     1      -7.031   6.768  68.611  1.00  0.00    -0.080 C  
BRANCH  11  12
HETATM   12  C   UNL     1      -8.254   6.035  69.133  1.00  0.00    -0.111 C  
BRANCH  12  13
HETATM   13  O   UNL     1      -8.510   6.403  70.489  1.00  0.00    -0.134 OA 
BRANCH  13  14
HETATM   14  C   UNL     1      -8.607   5.314  71.429  1.00  0.00    -0.129 C  
HETATM   15  C   UNL     1      -7.725   4.135  70.986  1.00  0.00    -0.059 C  
HETATM   16  C   UNL     1      -7.970   2.868  71.791  1.00  0.00    -0.057 C  
HETATM   17  C   UNL     1      -9.450   2.519  71.777  1.00  0.00    -0.198 C  
HETATM   18  C   UNL     1     -10.245   3.614  72.484  1.00  0.00    -0.229 C  
HETATM   19  C   UNL     1     -10.097   4.962  71.763  1.00  0.00    -0.202 C  
BRANCH  19  20
HETATM   20  N   UNL     1     -10.763   6.140  72.365  1.00  0.00    -0.221 NA 
HETATM   21  C   UNL     1     -12.213   6.238  72.184  1.00  0.00    -0.203 C  
HETATM   22  C   UNL     1     -12.417   7.075  70.931  1.00  0.00    -0.319 C  
HETATM   23  C   UNL     1     -11.194   7.981  70.879  1.00  0.00    -0.266 C  
HETATM   24  C   UNL     1     -10.232   7.438  71.941  1.00  0.00    -0.187 C  
HETATM   25  O   UNL     1     -11.573   9.324  71.157  1.00  0.00    -0.279 OA 
HETATM   26  H   UNL     1     -10.810   9.889  71.124  1.00  0.00     0.000 HD 
ENDBRANCH  19  20
ENDBRANCH  13  14
ENDBRANCH  12  13
ENDBRANCH  11  12
ENDBRANCH   8  11
ENDBRANCH   2   3
TORSDOF 7
ENDMDL
MODEL      348
REMARK 921   NORMALIZED FREE ENERGY PREDICTED BY IDOCK:   -1.19 KCAL/MOL
REMARK 922        TOTAL FREE ENERGY PREDICTED BY IDOCK:   -2.60 KCAL/MOL
REMARK 923 INTER-LIGAND FREE ENERGY PREDICTED BY IDOCK:   -3.32 KCAL/MOL
REMARK 924 INTRA-LIGAND FREE ENERGY PREDICTED BY IDOCK:    0.72 KCAL/MOL
REMARK 927      BINDING AFFINITY PREDICTED BY RF-SCORE:    0.00 PKD
ROOT
HETATM    1  C   UNL     1      -8.912   2.711  71.664  1.00  0.00    -0.084 C  
HETATM    2  O   UNL     1      -7.625   3.149  71.257  1.00  0.00    -0.043 OA 
ENDROOT
BRANCH   2   3
HETATM    3  C   UNL     1      -7.551   3.852  70.083  1.00  0.00    -0.048 A  
HETATM    4  C   UNL     1      -8.201   5.051  69.760  1.00  0.00    -0.077 A  
HETATM    5  C   UNL     1      -8.022   5.601  68.484  1.00  0.00    -0.100 A  
HETATM    6  C   UNL     1      -6.783   3.203  69.105  1.00  0.00    -0.037 A  
HETATM    7  C   UNL     1      -6.644   3.736  67.822  1.00  0.00    -0.042 A  
HETATM    8  C   UNL     1      -7.299   4.921  67.501  1.00  0.00    -0.078 A  
BRANCH   4   9
HETATM    9  O   UNL     1      -8.998   5.672  70.689  1.00  0.00    -0.142 OA 
HETATM   10  C   UNL     1      -9.778   6.754  70.182  1.00  0.00    -0.167 C  
ENDBRANCH   4   9
BRANCH   8  11
HETATM   11  C   UNL     1      -7.242   5.470  66.103  1.00  0.00    -0.077 C  
BRANCH  11  12
HETATM   12  C   UNL     1      -7.091   6.981  66.068  1.00  0.00    -0.073 C  
BRANCH  12  13
HETATM   13  O   UNL     1      -7.110   7.449  64.719  1.00  0.00    -0.056 OA 
BRANCH  13  14
HETATM   14  C   UNL     1      -8.216   8.303  64.365  1.00  0.00    -0.127 C  
HETATM   15  C   UNL     1      -8.167   8.663  62.872  1.00  0.00    -0.184 C  
HETATM   16  C   UNL     1      -9.153   9.755  62.486  1.00  0.00    -0.301 C  
HETATM   17  C   UNL     1      -8.960  10.971  63.380  1.00  0.00    -0.142 C  
HETATM   18  C   UNL     1      -9.296  10.607  64.823  1.00  0.00    -0.276 C  
HETATM   19  C   UNL     1      -8.359   9.511  65.352  1.00  0.00    -0.139 C  
BRANCH  19  20
HETATM   20  N   UNL     1      -8.599   9.006  66.725  1.00  0.00    -0.121 NA 
HETATM   21  C   UNL     1      -9.895   8.371  66.973  1.00  0.00    -0.230 C  
HETATM   22  C   UNL     1     -10.804   9.475  67.489  1.00  0.00    -0.239 C  
HETATM   23  C   UNL     1      -9.858  10.453  68.175  1.00  0.00    -0.151 C  
HETATM   24  C   UNL     1      -8.446  10.001  67.788  1.00  0.00    -0.114 C  
HETATM   25  O   UNL     1     -10.052  10.407  69.585  1.00  0.00    -0.275 OA 
HETATM   26  H   UNL     1      -9.462  11.017  70.012  1.00  0.00     0.000 HD 
ENDBRANCH  19  20
ENDBRANCH  13  14
ENDBRANCH  12  13
ENDBRANCH  11  12
ENDBRANCH   8  11
ENDBRANCH   2   3
TORSDOF 7
ENDMDL
MODEL      349
REMARK 921   NORMALIZED FREE ENERGY PREDICTED BY IDOCK:   -1.19 KCAL/MOL
REMARK 922        TOTAL FREE ENERGY PREDICTED BY IDOCK:   -2.60 KCAL/MOL
REMARK 923 INTER-LIGAND FREE ENERGY PREDICTED BY IDOCK:   -4.02 KCAL/MOL
REMARK 924 INTRA-LIGAND FREE ENERGY PREDICTED BY IDOCK:    1.43 KCAL/MOL
REMARK 927      BINDING AFFINITY PREDICTED BY RF-SCORE:    0.00 PKD
ROOT
HETATM    1  C   UNL     1     -10.766  19.997  68.482  1.00  0.00     0.211 C  
HETATM    2  O   UNL     1      -9.384  19.734  68.676  1.00  0.00    -0.327 OA 
ENDROOT
BRANCH   2   3
HETATM    3  C   UNL     1      -8.948  18.467  68.391  1.00  0.00    -0.316 A  
HETATM    4  C   UNL     1      -8.610  17.938  67.138  1.00  0.00    -0.235 A  
HETATM    5  C   UNL     1      -8.213  16.598  67.049  1.00  0.00    -0.222 A  
HETATM    6  C   UNL     1      -8.934  17.629  69.516  1.00  0.00     0.654 A  
HETATM    7  C   UNL     1      -8.578  16.283  69.411  1.00  0.00    -0.037 A  
HETATM    8  C   UNL     1      -8.253  15.758  68.164  1.00  0.00    -0.141 A  
BRANCH   4   9
HETATM    9  O   UNL     1      -8.668  18.731  66.020  1.00  0.00    -0.481 OA 
HETATM   10  C   UNL     1      -7.569  19.628  65.863  1.00  0.00    -0.310 C  
ENDBRANCH   4   9
BRANCH   8  11
HETATM   11  C   UNL     1      -7.955  14.294  68.006  1.00  0.00    -0.142 C  
BRANCH  11  12
HETATM   12  C   UNL     1      -9.185  13.475  67.655  1.00  0.00    -0.214 C  
BRANCH  12  13
HETATM   13  O   UNL     1      -9.537  12.620  68.744  1.00  0.00    -0.067 OA 
BRANCH  13  14
HETATM   14  C   UNL     1     -10.262  11.424  68.395  1.00  0.00    -0.198 C  
HETATM   15  C   UNL     1     -10.514  10.559  69.640  1.00  0.00    -0.257 C  
HETATM   16  C   UNL     1     -11.050   9.175  69.309  1.00  0.00     0.001 C  
HETATM   17  C   UNL     1     -10.138   8.488  68.304  1.00  0.00    -0.225 C  
HETATM   18  C   UNL     1     -10.151   9.258  66.987  1.00  0.00    -0.313 C  
HETATM   19  C   UNL     1      -9.618  10.686  67.172  1.00  0.00    -0.164 C  
BRANCH  19  20
HETATM   20  N   UNL     1      -9.624  11.582  65.991  1.00  0.00    -0.221 NA 
HETATM   21  C   UNL     1     -10.864  12.318  65.733  1.00  0.00    -0.278 C  
HETATM   22  C   UNL     1     -11.665  11.454  64.772  1.00  0.00     0.113 C  
HETATM   23  C   UNL     1     -10.610  10.680  63.992  1.00  0.00     0.061 C  
HETATM   24  C   UNL     1      -9.287  10.936  64.721  1.00  0.00    -0.226 C  
HETATM   25  O   UNL     1     -10.563  11.145  62.647  1.00  0.00    -0.691 OA 
HETATM   26  H   UNL     1      -9.906  10.661  62.161  1.00  0.00     0.000 HD 
ENDBRANCH  19  20
ENDBRANCH  13  14
ENDBRANCH  12  13
ENDBRANCH  11  12
ENDBRANCH   8  11
ENDBRANCH   2   3
TORSDOF 7
ENDMDL
MODEL      350
REMARK 921   NORMALIZED FREE ENERGY PREDICTED BY IDOCK:   -0.84 KCAL/MOL
REMARK 922        TOTAL FREE ENERGY PREDICTED BY IDOCK:   -2.11 KCAL/MOL
REMARK 923 INTER-LIGAND FREE ENERGY PREDICTED BY IDOCK:   -2.27 KCAL/MOL
REMARK 924 INTRA-LIGAND FREE ENERGY PREDICTED BY IDOCK:    0.17 KCAL/MOL
REMARK 927      BINDING AFFINITY PREDICTED BY RF-SCORE:    0.00 PKD
ROOT
HETATM    1  C   UNL     1      -9.160   6.072  73.537  1.00  0.00    -0.131 C  
HETATM    2  O   UNL     1      -7.758   6.078  73.312  1.00  0.00    -0.100 OA 
ENDROOT
BRANCH   2   3
HETATM    3  C   UNL     1      -7.302   6.826  72.259  1.00  0.00    -0.088 A  
HETATM    4  C   UNL     1      -8.023   7.748  71.486  1.00  0.00    -0.092 A  
HETATM    5  C   UNL     1      -7.381   8.394  70.422  1.00  0.00    -0.056 A  
HETATM    6  C   UNL     1      -5.974   6.533  71.915  1.00  0.00    -0.038 A  
HETATM    7  C   UNL     1      -5.356   7.150  70.826  1.00  0.00    -0.024 A  
HETATM    8  C   UNL     1      -6.077   8.056  70.054  1.00  0.00    -0.029 A  
BRANCH   4   9
HETATM    9  O   UNL     1      -9.338   8.007  71.778  1.00  0.00    -0.145 OA 
HETATM   10  C   UNL     1      -9.805   9.287  71.353  1.00  0.00    -0.226 C  
ENDBRANCH   4   9
BRANCH   8  11
HETATM   11  C   UNL     1      -5.467   8.666  68.824  1.00  0.00    -0.036 C  
BRANCH  11  12
HETATM   12  C   UNL     1      -5.345   7.682  67.675  1.00  0.00    -0.031 C  
BRANCH  12  13
HETATM   13  O   UNL     1      -6.587   7.577  66.979  1.00  0.00    -0.058 OA 
BRANCH  13  14
HETATM   14  C   UNL     1      -6.586   8.044  65.615  1.00  0.00    -0.042 C  
HETATM   15  C   UNL     1      -6.552   9.579  65.567  1.00  0.00    -0.073 C  
HETATM   16  C   UNL     1      -6.800  10.141  64.175  1.00  0.00    -0.102 C  
HETATM   17  C   UNL     1      -8.091   9.574  63.606  1.00  0.00    -0.151 C  
HETATM   18  C   UNL     1      -7.953   8.065  63.420  1.00  0.00    -0.133 C  
HETATM   19  C   UNL     1      -7.709   7.360  64.763  1.00  0.00    -0.114 C  
BRANCH  19  20
HETATM   20  N   UNL     1      -7.494   5.894  64.740  1.00  0.00    -0.073 NA 
HETATM   21  C   UNL     1      -7.234   5.290  63.432  1.00  0.00    -0.049 C  
HETATM   22  C   UNL     1      -8.589   4.848  62.904  1.00  0.00    -0.123 C  
HETATM   23  C   UNL     1      -9.406   4.558  64.156  1.00  0.00    -0.077 C  
HETATM   24  C   UNL     1      -8.575   5.099  65.325  1.00  0.00    -0.148 C  
HETATM   25  O   UNL     1      -9.626   3.156  64.278  1.00  0.00    -0.138 OA 
HETATM   26  H   UNL     1     -10.136   2.976  65.059  1.00  0.00     0.000 HD 
ENDBRANCH  19  20
ENDBRANCH  13  14
ENDBRANCH  12  13
ENDBRANCH  11  12
ENDBRANCH   8  11
ENDBRANCH   2   3
TORSDOF 7
ENDMDL
MODEL      351
REMARK 921   NORMALIZED FREE ENERGY PREDICTED BY IDOCK:   -0.84 KCAL/MOL
REMARK 922        TOTAL FREE ENERGY PREDICTED BY IDOCK:   -2.10 KCAL/MOL
REMARK 923 INTER-LIGAND FREE ENERGY PREDICTED BY IDOCK:   -3.03 KCAL/MOL
REMARK 924 INTRA-LIGAND FREE ENERGY PREDICTED BY IDOCK:    0.93 KCAL/MOL
REMARK 927      BINDING AFFINITY PREDICTED BY RF-SCORE:    0.00 PKD
ROOT
HETATM    1  C   UNL     1      -5.832  14.392  72.432  1.00  0.00     0.175 C  
HETATM    2  O   UNL     1      -5.311  13.175  71.920  1.00  0.00    -0.333 OA 
ENDROOT
BRANCH   2   3
HETATM    3  C   UNL     1      -5.776  12.767  70.697  1.00  0.00    -0.156 A  
HETATM    4  C   UNL     1      -6.239  13.571  69.645  1.00  0.00    -0.121 A  
HETATM    5  C   UNL     1      -6.708  12.957  68.476  1.00  0.00    -0.091 A  
HETATM    6  C   UNL     1      -5.844  11.372  70.576  1.00  0.00    -0.131 A  
HETATM    7  C   UNL     1      -6.353  10.769  69.424  1.00  0.00    -0.068 A  
HETATM    8  C   UNL     1      -6.822  11.568  68.385  1.00  0.00    -0.070 A  
BRANCH   4   9
HETATM    9  O   UNL     1      -6.227  14.937  69.768  1.00  0.00    -0.121 OA 
HETATM   10  C   UNL     1      -5.150  15.590  69.097  1.00  0.00    -0.096 C  
ENDBRANCH   4   9
BRANCH   8  11
HETATM   11  C   UNL     1      -7.457  10.949  67.173  1.00  0.00    -0.109 C  
BRANCH  11  12
HETATM   12  C   UNL     1      -8.214   9.672  67.490  1.00  0.00    -0.114 C  
BRANCH  12  13
HETATM   13  O   UNL     1      -8.441   8.922  66.296  1.00  0.00    -0.116 OA 
BRANCH  13  14
HETATM   14  C   UNL     1      -9.384   7.837  66.405  1.00  0.00    -0.181 C  
HETATM   15  C   UNL     1     -10.051   7.834  67.789  1.00  0.00    -0.242 C  
HETATM   16  C   UNL     1     -10.866   6.579  68.059  1.00  0.00    -0.372 C  
HETATM   17  C   UNL     1     -10.011   5.342  67.828  1.00  0.00    -0.204 C  
HETATM   18  C   UNL     1      -9.609   5.261  66.357  1.00  0.00    -0.171 C  
HETATM   19  C   UNL     1      -8.762   6.474  65.946  1.00  0.00    -0.141 C  
BRANCH  19  20
HETATM   20  N   UNL     1      -8.343   6.571  64.527  1.00  0.00    -0.030 NA 
HETATM   21  C   UNL     1      -7.334   5.611  64.074  1.00  0.00    -0.058 C  
HETATM   22  C   UNL     1      -5.993   6.304  64.258  1.00  0.00    -0.022 C  
HETATM   23  C   UNL     1      -6.311   7.786  64.110  1.00  0.00    -0.057 C  
HETATM   24  C   UNL     1      -7.840   7.883  64.117  1.00  0.00    -0.136 C  
HETATM   25  O   UNL     1      -5.763   8.280  62.892  1.00  0.00    -0.071 OA 
HETATM   26  H   UNL     1      -5.961   9.204  62.800  1.00  0.00     0.000 HD 
ENDBRANCH  19  20
ENDBRANCH  13  14
ENDBRANCH  12  13
ENDBRANCH  11  12
ENDBRANCH   8  11
ENDBRANCH   2   3
TORSDOF 7
ENDMDL
MODEL      352
REMARK 921   NORMALIZED FREE ENERGY PREDICTED BY IDOCK:   -0.51 KCAL/MOL
REMARK 922        TOTAL FREE ENERGY PREDICTED BY IDOCK:   -1.64 KCAL/MOL
REMARK 923 INTER-LIGAND FREE ENERGY PREDICTED BY IDOCK:   -2.68 KCAL/MOL
REMARK 924 INTRA-LIGAND FREE ENERGY PREDICTED BY IDOCK:    1.04 KCAL/MOL
REMARK 927      BINDING AFFINITY PREDICTED BY RF-SCORE:    0.00 PKD
ROOT
HETATM    1  C   UNL     1      -5.202  18.938  66.573  1.00  0.00    -0.136 C  
HETATM    2  O   UNL     1      -6.602  19.175  66.540  1.00  0.00    -0.188 OA 
ENDROOT
BRANCH   2   3
HETATM    3  C   UNL     1      -7.417  18.127  66.877  1.00  0.00    -0.207 A  
HETATM    4  C   UNL     1      -7.335  17.309  68.012  1.00  0.00    -0.192 A  
HETATM    5  C   UNL     1      -8.250  16.258  68.162  1.00  0.00    -0.163 A  
HETATM    6  C   UNL     1      -8.376  17.842  65.893  1.00  0.00     0.041 A  
HETATM    7  C   UNL     1      -9.256  16.767  66.031  1.00  0.00    -0.236 A  
HETATM    8  C   UNL     1      -9.166  15.950  67.154  1.00  0.00    -0.222 A  
BRANCH   4   9
HETATM    9  O   UNL     1      -6.370  17.542  68.958  1.00  0.00    -0.196 OA 
HETATM   10  C   UNL     1      -6.865  17.761  70.279  1.00  0.00     1.144 C  
ENDBRANCH   4   9
BRANCH   8  11
HETATM   11  C   UNL     1     -10.038  14.734  67.285  1.00  0.00    -0.236 C  
BRANCH  11  12
HETATM   12  C   UNL     1     -10.067  13.889  66.023  1.00  0.00    -0.313 C  
BRANCH  12  13
HETATM   13  O   UNL     1     -11.265  13.113  65.974  1.00  0.00    -0.286 OA 
BRANCH  13  14
HETATM   14  C   UNL     1     -11.682  12.520  67.220  1.00  0.00    -0.362 C  
HETATM   15  C   UNL     1     -12.169  13.600  68.200  1.00  0.00    -0.164 C  
HETATM   16  C   UNL     1     -12.386  13.075  69.611  1.00  0.00    -0.104 C  
HETATM   17  C   UNL     1     -11.131  12.372  70.105  1.00  0.00     0.579 C  
HETATM   18  C   UNL     1     -10.860  11.139  69.246  1.00  0.00    -0.277 C  
HETATM   19  C   UNL     1     -10.608  11.526  67.782  1.00  0.00    -0.192 C  
BRANCH  19  20
HETATM   20  N   UNL     1     -10.388  10.430  66.809  1.00  0.00    -0.232 NA 
HETATM   21  C   UNL     1     -10.090   9.109  67.366  1.00  0.00    -0.230 C  
HETATM   22  C   UNL     1      -8.574   9.020  67.430  1.00  0.00    -0.115 C  
HETATM   23  C   UNL     1      -8.095   9.920  66.297  1.00  0.00    -0.114 C  
HETATM   24  C   UNL     1      -9.337  10.679  65.820  1.00  0.00    -0.186 C  
HETATM   25  O   UNL     1      -7.535   9.129  65.254  1.00  0.00    -0.094 OA 
HETATM   26  H   UNL     1      -7.236   9.690  64.548  1.00  0.00     0.000 HD 
ENDBRANCH  19  20
ENDBRANCH  13  14
ENDBRANCH  12  13
ENDBRANCH  11  12
ENDBRANCH   8  11
ENDBRANCH   2   3
TORSDOF 7
ENDMDL
MODEL      353
REMARK 921   NORMALIZED FREE ENERGY PREDICTED BY IDOCK:   -0.45 KCAL/MOL
REMARK 922        TOTAL FREE ENERGY PREDICTED BY IDOCK:   -1.55 KCAL/MOL
REMARK 923 INTER-LIGAND FREE ENERGY PREDICTED BY IDOCK:   -3.40 KCAL/MOL
REMARK 924 INTRA-LIGAND FREE ENERGY PREDICTED BY IDOCK:    1.85 KCAL/MOL
REMARK 927      BINDING AFFINITY PREDICTED BY RF-SCORE:    0.00 PKD
ROOT
HETATM    1  C   UNL     1     -10.602  10.028  65.921  1.00  0.00     0.071 C  
HETATM    2  O   UNL     1     -10.862  10.626  67.182  1.00  0.00    -0.274 OA 
ENDROOT
BRANCH   2   3
HETATM    3  C   UNL     1     -10.859   9.799  68.274  1.00  0.00    -0.210 A  
HETATM    4  C   UNL     1     -11.274  10.101  69.578  1.00  0.00    -0.238 A  
HETATM    5  C   UNL     1     -11.161   9.120  70.573  1.00  0.00    -0.308 A  
HETATM    6  C   UNL     1     -10.290   8.545  68.007  1.00  0.00    -0.272 A  
HETATM    7  C   UNL     1     -10.142   7.589  69.014  1.00  0.00    -0.192 A  
HETATM    8  C   UNL     1     -10.545   7.895  70.311  1.00  0.00    -0.231 A  
BRANCH   4   9
HETATM    9  O   UNL     1     -11.784  11.341  69.867  1.00  0.00    -0.293 OA 
HETATM   10  C   UNL     1     -11.513  12.344  68.888  1.00  0.00    -0.307 C  
ENDBRANCH   4   9
BRANCH   8  11
HETATM   11  C   UNL     1     -10.315   6.921  71.431  1.00  0.00    -0.219 C  
BRANCH  11  12
HETATM   12  C   UNL     1      -8.971   6.220  71.337  1.00  0.00    -0.139 C  
BRANCH  12  13
HETATM   13  O   UNL     1      -8.832   5.273  72.397  1.00  0.00    -0.127 OA 
BRANCH  13  14
HETATM   14  C   UNL     1      -8.626   3.904  71.995  1.00  0.00    -0.099 C  
HETATM   15  C   UNL     1      -8.408   3.004  73.221  1.00  0.00    -0.076 C  
HETATM   16  C   UNL     1      -7.939   1.603  72.861  1.00  0.00    -0.051 C  
HETATM   17  C   UNL     1      -6.706   1.677  71.973  1.00  0.00    -0.018 C  
HETATM   18  C   UNL     1      -7.066   2.342  70.647  1.00  0.00    -0.033 C  
HETATM   19  C   UNL     1      -7.549   3.784  70.863  1.00  0.00    -0.044 C  
BRANCH  19  20
HETATM   20  N   UNL     1      -7.993   4.545  69.671  1.00  0.00    -0.061 NA 
HETATM   21  C   UNL     1      -8.414   3.758  68.510  1.00  0.00    -0.087 C  
HETATM   22  C   UNL     1      -7.175   3.607  67.642  1.00  0.00    -0.059 C  
HETATM   23  C   UNL     1      -6.349   4.852  67.944  1.00  0.00    -0.036 C  
HETATM   24  C   UNL     1      -7.022   5.510  69.153  1.00  0.00    -0.063 C  
HETATM   25  O   UNL     1      -6.346   5.717  66.813  1.00  0.00    -0.033 OA 
HETATM   26  H   UNL     1      -5.831   6.493  67.001  1.00  0.00     0.000 HD 
ENDBRANCH  19  20
ENDBRANCH  13  14
ENDBRANCH  12  13
ENDBRANCH  11  12
ENDBRANCH   8  11
ENDBRANCH   2   3
TORSDOF 7
ENDMDL
MODEL      354
REMARK 921   NORMALIZED FREE ENERGY PREDICTED BY IDOCK:   -0.37 KCAL/MOL
REMARK 922        TOTAL FREE ENERGY PREDICTED BY IDOCK:   -1.45 KCAL/MOL
REMARK 923 INTER-LIGAND FREE ENERGY PREDICTED BY IDOCK:   -1.73 KCAL/MOL
REMARK 924 INTRA-LIGAND FREE ENERGY PREDICTED BY IDOCK:    0.28 KCAL/MOL
REMARK 927      BINDING AFFINITY PREDICTED BY RF-SCORE:    0.00 PKD
ROOT
HETATM    1  C   UNL     1     -11.694  11.198  63.228  1.00  0.00     0.689 C  
HETATM    2  O   UNL     1     -11.809  11.580  64.591  1.00  0.00    -0.097 OA 
ENDROOT
BRANCH   2   3
HETATM    3  C   UNL     1     -10.716  11.367  65.389  1.00  0.00    -0.253 A  
HETATM    4  C   UNL     1     -10.330  12.093  66.524  1.00  0.00    -0.213 A  
HETATM    5  C   UNL     1      -9.151  11.737  67.192  1.00  0.00    -0.175 A  
HETATM    6  C   UNL     1      -9.888  10.337  64.918  1.00  0.00    -0.404 A  
HETATM    7  C   UNL     1      -8.693  10.017  65.565  1.00  0.00    -0.171 A  
HETATM    8  C   UNL     1      -8.306  10.747  66.686  1.00  0.00    -0.141 A  
BRANCH   4   9
HETATM    9  O   UNL     1     -11.102  13.136  66.967  1.00  0.00    -0.268 OA 
HETATM   10  C   UNL     1     -11.874  12.857  68.135  1.00  0.00    -0.336 C  
ENDBRANCH   4   9
BRANCH   8  11
HETATM   11  C   UNL     1      -6.984  10.484  67.348  1.00  0.00    -0.085 C  
BRANCH  11  12
HETATM   12  C   UNL     1      -7.077   9.465  68.469  1.00  0.00    -0.071 C  
BRANCH  12  13
HETATM   13  O   UNL     1      -6.871   8.147  67.959  1.00  0.00    -0.069 OA 
BRANCH  13  14
HETATM   14  C   UNL     1      -6.732   7.105  68.945  1.00  0.00    -0.060 C  
HETATM   15  C   UNL     1      -5.326   6.488  68.889  1.00  0.00    -0.015 C  
HETATM   16  C   UNL     1      -5.193   5.223  69.724  1.00  0.00    -0.004 C  
HETATM   17  C   UNL     1      -6.276   4.227  69.340  1.00  0.00    -0.028 C  
HETATM   18  C   UNL     1      -7.648   4.801  69.682  1.00  0.00    -0.055 C  
HETATM   19  C   UNL     1      -7.924   6.089  68.891  1.00  0.00    -0.100 C  
BRANCH  19  20
HETATM   20  N   UNL     1      -9.197   6.800  69.160  1.00  0.00    -0.138 NA 
HETATM   21  C   UNL     1     -10.399   5.972  69.276  1.00  0.00    -0.233 C  
HETATM   22  C   UNL     1     -11.007   5.928  67.883  1.00  0.00    -0.248 C  
HETATM   23  C   UNL     1     -10.580   7.243  67.243  1.00  0.00    -0.325 C  
HETATM   24  C   UNL     1      -9.539   7.846  68.193  1.00  0.00    -0.152 C  
HETATM   25  O   UNL     1     -11.708   8.099  67.095  1.00  0.00     1.217 OA 
HETATM   26  H   UNL     1     -11.441   8.919  66.696  1.00  0.00     0.000 HD 
ENDBRANCH  19  20
ENDBRANCH  13  14
ENDBRANCH  12  13
ENDBRANCH  11  12
ENDBRANCH   8  11
ENDBRANCH   2   3
TORSDOF 7
ENDMDL
MODEL      355
REMARK 921   NORMALIZED FREE ENERGY PREDICTED BY IDOCK:    0.08 KCAL/MOL
REMARK 922        TOTAL FREE ENERGY PREDICTED BY IDOCK:   -0.82 KCAL/MOL
REMARK 923 INTER-LIGAND FREE ENERGY PREDICTED BY IDOCK:   -1.09 KCAL/MOL
REMARK 924 INTRA-LIGAND FREE ENERGY PREDICTED BY IDOCK:    0.27 KCAL/MOL
REMARK 927      BINDING AFFINITY PREDICTED BY RF-SCORE:    0.00 PKD
ROOT
HETATM    1  C   UNL     1      -7.119  16.425  70.304  1.00  0.00     1.077 C  
HETATM    2  O   UNL     1      -6.144  15.633  70.965  1.00  0.00     0.234 OA 
ENDROOT
BRANCH   2   3
HETATM    3  C   UNL     1      -6.113  14.299  70.655  1.00  0.00    -0.181 A  
HETATM    4  C   UNL     1      -6.883  13.625  69.696  1.00  0.00     0.077 A  
HETATM    5  C   UNL     1      -6.727  12.240  69.550  1.00  0.00    -0.000 A  
HETATM    6  C   UNL     1      -5.248  13.566  71.480  1.00  0.00    -0.191 A  
HETATM    7  C   UNL     1      -5.131  12.181  71.356  1.00  0.00    -0.095 A  
HETATM    8  C   UNL     1      -5.904  11.512  70.411  1.00  0.00    -0.155 A  
BRANCH   4   9
HETATM    9  O   UNL     1      -7.772  14.320  68.917  1.00  0.00    -0.136 OA 
HETATM   10  C   UNL     1      -7.694  14.037  67.520  1.00  0.00    -0.182 C  
ENDBRANCH   4   9
BRANCH   8  11
HETATM   11  C   UNL     1      -5.866  10.013  70.317  1.00  0.00    -0.064 C  
BRANCH  11  12
HETATM   12  C   UNL     1      -6.194   9.501  68.925  1.00  0.00    -0.042 C  
BRANCH  12  13
HETATM   13  O   UNL     1      -7.232   8.522  68.990  1.00  0.00    -0.070 OA 
BRANCH  13  14
HETATM   14  C   UNL     1      -8.244   8.610  67.967  1.00  0.00    -0.115 C  
HETATM   15  C   UNL     1      -9.126   9.850  68.181  1.00  0.00    -0.121 C  
HETATM   16  C   UNL     1     -10.360   9.868  67.291  1.00  0.00    -0.303 C  
HETATM   17  C   UNL     1     -11.138   8.571  67.452  1.00  0.00     0.361 C  
HETATM   18  C   UNL     1     -10.294   7.400  66.957  1.00  0.00    -0.384 C  
HETATM   19  C   UNL     1      -9.008   7.254  67.784  1.00  0.00    -0.126 C  
BRANCH  19  20
HETATM   20  N   UNL     1      -8.052   6.194  67.386  1.00  0.00    -0.109 NA 
HETATM   21  C   UNL     1      -7.675   6.148  65.971  1.00  0.00    -0.092 C  
HETATM   22  C   UNL     1      -8.642   5.174  65.318  1.00  0.00    -0.148 C  
HETATM   23  C   UNL     1      -9.017   4.208  66.435  1.00  0.00    -0.124 C  
HETATM   24  C   UNL     1      -8.463   4.829  67.722  1.00  0.00    -0.103 C  
HETATM   25  O   UNL     1      -8.442   2.930  66.184  1.00  0.00    -0.096 OA 
HETATM   26  H   UNL     1      -8.676   2.328  66.881  1.00  0.00     0.000 HD 
ENDBRANCH  19  20
ENDBRANCH  13  14
ENDBRANCH  12  13
ENDBRANCH  11  12
ENDBRANCH   8  11
ENDBRANCH   2   3
TORSDOF 7
ENDMDL
MODEL      356
REMARK 921   NORMALIZED FREE ENERGY PREDICTED BY IDOCK:    0.58 KCAL/MOL
REMARK 922        TOTAL FREE ENERGY PREDICTED BY IDOCK:   -0.11 KCAL/MOL
REMARK 923 INTER-LIGAND FREE ENERGY PREDICTED BY IDOCK:   -1.82 KCAL/MOL
REMARK 924 INTRA-LIGAND FREE ENERGY PREDICTED BY IDOCK:    1.71 KCAL/MOL
REMARK 927      BINDING AFFINITY PREDICTED BY RF-SCORE:    0.00 PKD
ROOT
HETATM    1  C   UNL     1      -6.411  15.903  70.807  1.00  0.00     0.633 C  
HETATM    2  O   UNL     1      -5.628  14.996  71.569  1.00  0.00    -0.029 OA 
ENDROOT
BRANCH   2   3
HETATM    3  C   UNL     1      -5.714  13.670  71.235  1.00  0.00    -0.184 A  
HETATM    4  C   UNL     1      -6.354  13.107  70.122  1.00  0.00     0.043 A  
HETATM    5  C   UNL     1      -6.359  11.714  69.973  1.00  0.00    -0.098 A  
HETATM    6  C   UNL     1      -5.144  12.826  72.199  1.00  0.00     0.026 A  
HETATM    7  C   UNL     1      -5.191  11.437  72.064  1.00  0.00     0.268 A  
HETATM    8  C   UNL     1      -5.836  10.880  70.963  1.00  0.00     0.050 A  
BRANCH   4   9
HETATM    9  O   UNL     1      -6.961  13.917  69.197  1.00  0.00    -0.111 OA 
HETATM   10  C   UNL     1      -6.634  13.627  67.838  1.00  0.00    -0.155 C  
ENDBRANCH   4   9
BRANCH   8  11
HETATM   11  C   UNL     1      -5.981   9.390  70.838  1.00  0.00    -0.064 C  
BRANCH  11  12
HETATM   12  C   UNL     1      -5.987   8.917  69.395  1.00  0.00    -0.037 C  
BRANCH  12  13
HETATM   13  O   UNL     1      -7.139   8.111  69.143  1.00  0.00    -0.059 OA 
BRANCH  13  14
HETATM   14  C   UNL     1      -8.367   8.562  69.749  1.00  0.00    -0.124 C  
HETATM   15  C   UNL     1      -8.336   8.340  71.269  1.00  0.00    -0.156 C  
HETATM   16  C   UNL     1      -9.686   8.560  71.935  1.00  0.00    -0.358 C  
HETATM   17  C   UNL     1     -10.749   7.714  71.250  1.00  0.00    -0.248 C  
HETATM   18  C   UNL     1     -10.924   8.176  69.806  1.00  0.00    -0.133 C  
HETATM   19  C   UNL     1      -9.626   7.998  69.005  1.00  0.00    -0.156 C  
BRANCH  19  20
HETATM   20  N   UNL     1      -9.619   8.459  67.596  1.00  0.00    -0.148 NA 
HETATM   21  C   UNL     1      -8.466   9.256  67.173  1.00  0.00    -0.124 C  
HETATM   22  C   UNL     1      -8.865  10.707  67.385  1.00  0.00    -0.132 C  
HETATM   23  C   UNL     1     -10.380  10.710  67.222  1.00  0.00    -0.220 C  
HETATM   24  C   UNL     1     -10.794   9.234  67.191  1.00  0.00    -0.043 C  
HETATM   25  O   UNL     1     -10.736  11.376  66.015  1.00  0.00    -0.265 OA 
HETATM   26  H   UNL     1     -11.681  11.377  65.914  1.00  0.00     0.000 HD 
ENDBRANCH  19  20
ENDBRANCH  13  14
ENDBRANCH  12  13
ENDBRANCH  11  12
ENDBRANCH   8  11
ENDBRANCH   2   3
TORSDOF 7
ENDMDL
MODEL      357
REMARK 921   NORMALIZED FREE ENERGY PREDICTED BY IDOCK:    0.92 KCAL/MOL
REMARK 922        TOTAL FREE ENERGY PREDICTED BY IDOCK:    0.38 KCAL/MOL
REMARK 923 INTER-LIGAND FREE ENERGY PREDICTED BY IDOCK:   -2.33 KCAL/MOL
REMARK 924 INTRA-LIGAND FREE ENERGY PREDICTED BY IDOCK:    2.70 KCAL/MOL
REMARK 927      BINDING AFFINITY PREDICTED BY RF-SCORE:    0.00 PKD
ROOT
HETATM    1  C   UNL     1      -7.329   9.308  71.513  1.00  0.00     0.178 C  
HETATM    2  O   UNL     1      -8.534   9.181  70.774  1.00  0.00    -0.184 OA 
ENDROOT
BRANCH   2   3
HETATM    3  C   UNL     1      -8.484   8.428  69.630  1.00  0.00    -0.127 A  
HETATM    4  C   UNL     1      -9.095   7.189  69.393  1.00  0.00    -0.145 A  
HETATM    5  C   UNL     1      -8.896   6.557  68.158  1.00  0.00    -0.115 A  
HETATM    6  C   UNL     1      -7.646   8.979  68.649  1.00  0.00    -0.092 A  
HETATM    7  C   UNL     1      -7.419   8.321  67.439  1.00  0.00    -0.094 A  
HETATM    8  C   UNL     1      -8.018   7.086  67.210  1.00  0.00    -0.111 A  
BRANCH   4   9
HETATM    9  O   UNL     1      -9.876   6.612  70.362  1.00  0.00    -0.175 OA 
HETATM   10  C   UNL     1     -11.281   6.782  70.179  1.00  0.00    -0.335 C  
ENDBRANCH   4   9
BRANCH   8  11
HETATM   11  C   UNL     1      -7.720   6.314  65.956  1.00  0.00    -0.092 C  
BRANCH  11  12
HETATM   12  C   UNL     1      -6.279   5.843  65.881  1.00  0.00    -0.037 C  
BRANCH  12  13
HETATM   13  O   UNL     1      -5.956   5.449  64.546  1.00  0.00    -0.021 OA 
BRANCH  13  14
HETATM   14  C   UNL     1      -6.017   4.034  64.277  1.00  0.00    -0.014 C  
HETATM   15  C   UNL     1      -5.174   3.680  63.041  1.00  0.00    -0.005 C  
HETATM   16  C   UNL     1      -5.392   2.256  62.555  1.00  0.00    -0.004 C  
HETATM   17  C   UNL     1      -6.876   2.001  62.334  1.00  0.00    -0.022 C  
HETATM   18  C   UNL     1      -7.618   2.097  63.665  1.00  0.00    -0.059 C  
HETATM   19  C   UNL     1      -7.491   3.503  64.270  1.00  0.00    -0.074 C  
BRANCH  19  20
HETATM   20  N   UNL     1      -8.110   3.739  65.596  1.00  0.00    -0.093 NA 
HETATM   21  C   UNL     1      -7.264   3.500  66.767  1.00  0.00    -0.067 C  
HETATM   22  C   UNL     1      -7.524   2.060  67.179  1.00  0.00    -0.060 C  
HETATM   23  C   UNL     1      -8.954   1.790  66.725  1.00  0.00    -0.102 C  
HETATM   24  C   UNL     1      -9.341   2.986  65.849  1.00  0.00    -0.077 C  
HETATM   25  O   UNL     1      -9.808   1.677  67.859  1.00  0.00    -0.400 OA 
HETATM   26  H   UNL     1     -10.699   1.509  67.576  1.00  0.00     0.000 HD 
ENDBRANCH  19  20
ENDBRANCH  13  14
ENDBRANCH  12  13
ENDBRANCH  11  12
ENDBRANCH   8  11
ENDBRANCH   2   3
TORSDOF 7
ENDMDL
MODEL      358
REMARK 921   NORMALIZED FREE ENERGY PREDICTED BY IDOCK:    1.22 KCAL/MOL
REMARK 922        TOTAL FREE ENERGY PREDICTED BY IDOCK:    0.80 KCAL/MOL
REMARK 923 INTER-LIGAND FREE ENERGY PREDICTED BY IDOCK:   -1.13 KCAL/MOL
REMARK 924 INTRA-LIGAND FREE ENERGY PREDICTED BY IDOCK:    1.92 KCAL/MOL
REMARK 927      BINDING AFFINITY PREDICTED BY RF-SCORE:    0.00 PKD
ROOT
HETATM    1  C   UNL     1      -6.047  13.991  71.261  1.00  0.00    -0.031 C  
HETATM    2  O   UNL     1      -5.468  13.092  72.195  1.00  0.00    -0.392 OA 
ENDROOT
BRANCH   2   3
HETATM    3  C   UNL     1      -5.561  11.755  71.908  1.00  0.00     0.693 A  
HETATM    4  C   UNL     1      -6.072  11.161  70.745  1.00  0.00     0.078 A  
HETATM    5  C   UNL     1      -6.111   9.764  70.655  1.00  0.00    -0.088 A  
HETATM    6  C   UNL     1      -5.152  10.938  72.973  1.00  0.00     0.354 A  
HETATM    7  C   UNL     1      -5.235   9.547  72.890  1.00  0.00    -0.047 A  
HETATM    8  C   UNL     1      -5.753   8.960  71.739  1.00  0.00    -0.060 A  
BRANCH   4   9
HETATM    9  O   UNL     1      -6.523  11.947  69.715  1.00  0.00    -0.126 OA 
HETATM   10  C   UNL     1      -7.863  11.681  69.301  1.00  0.00     0.222 C  
ENDBRANCH   4   9
BRANCH   8  11
HETATM   11  C   UNL     1      -5.937   7.472  71.658  1.00  0.00    -0.036 C  
BRANCH  11  12
HETATM   12  C   UNL     1      -5.974   6.958  70.230  1.00  0.00    -0.024 C  
BRANCH  12  13
HETATM   13  O   UNL     1      -7.189   6.248  69.990  1.00  0.00    -0.072 OA 
BRANCH  13  14
HETATM   14  C   UNL     1      -7.599   5.335  71.027  1.00  0.00    -0.088 C  
HETATM   15  C   UNL     1      -6.431   4.430  71.447  1.00  0.00    -0.019 C  
HETATM   16  C   UNL     1      -6.856   3.284  72.353  1.00  0.00    -0.030 C  
HETATM   17  C   UNL     1      -7.989   2.501  71.707  1.00  0.00    -0.052 C  
HETATM   18  C   UNL     1      -9.219   3.394  71.571  1.00  0.00    -0.192 C  
HETATM   19  C   UNL     1      -8.934   4.599  70.663  1.00  0.00    -0.117 C  
BRANCH  19  20
HETATM   20  N   UNL     1     -10.017   5.594  70.480  1.00  0.00    -0.193 NA 
HETATM   21  C   UNL     1     -10.651   5.638  69.160  1.00  0.00    -0.264 C  
HETATM   22  C   UNL     1      -9.890   6.691  68.371  1.00  0.00    -0.138 C  
HETATM   23  C   UNL     1      -9.381   7.661  69.430  1.00  0.00    -0.152 C  
HETATM   24  C   UNL     1      -9.644   6.979  70.776  1.00  0.00    -0.164 C  
HETATM   25  O   UNL     1     -10.078   8.899  69.328  1.00  0.00    -0.191 OA 
HETATM   26  H   UNL     1      -9.760   9.504  69.988  1.00  0.00     0.000 HD 
ENDBRANCH  19  20
ENDBRANCH  13  14
ENDBRANCH  12  13
ENDBRANCH  11  12
ENDBRANCH   8  11
ENDBRANCH   2   3
TORSDOF 7
ENDMDL
MODEL      359
REMARK 921   NORMALIZED FREE ENERGY PREDICTED BY IDOCK:    1.31 KCAL/MOL
REMARK 922        TOTAL FREE ENERGY PREDICTED BY IDOCK:    0.92 KCAL/MOL
REMARK 923 INTER-LIGAND FREE ENERGY PREDICTED BY IDOCK:   -1.38 KCAL/MOL
REMARK 924 INTRA-LIGAND FREE ENERGY PREDICTED BY IDOCK:    2.30 KCAL/MOL
REMARK 927      BINDING AFFINITY PREDICTED BY RF-SCORE:    0.00 PKD
ROOT
HETATM    1  C   UNL     1      -6.411  15.903  70.807  1.00  0.00     0.633 C  
HETATM    2  O   UNL     1      -5.628  14.996  71.569  1.00  0.00    -0.029 OA 
ENDROOT
BRANCH   2   3
HETATM    3  C   UNL     1      -5.714  13.670  71.235  1.00  0.00    -0.184 A  
HETATM    4  C   UNL     1      -6.354  13.107  70.122  1.00  0.00     0.043 A  
HETATM    5  C   UNL     1      -6.359  11.714  69.973  1.00  0.00    -0.098 A  
HETATM    6  C   UNL     1      -5.144  12.826  72.199  1.00  0.00     0.026 A  
HETATM    7  C   UNL     1      -5.191  11.437  72.064  1.00  0.00     0.268 A  
HETATM    8  C   UNL     1      -5.836  10.880  70.963  1.00  0.00     0.050 A  
BRANCH   4   9
HETATM    9  O   UNL     1      -6.961  13.917  69.197  1.00  0.00    -0.111 OA 
HETATM   10  C   UNL     1      -6.634  13.627  67.838  1.00  0.00    -0.155 C  
ENDBRANCH   4   9
BRANCH   8  11
HETATM   11  C   UNL     1      -5.981   9.390  70.838  1.00  0.00    -0.064 C  
BRANCH  11  12
HETATM   12  C   UNL     1      -5.987   8.917  69.395  1.00  0.00    -0.037 C  
BRANCH  12  13
HETATM   13  O   UNL     1      -7.139   8.111  69.143  1.00  0.00    -0.059 OA 
BRANCH  13  14
HETATM   14  C   UNL     1      -8.413   8.738  69.394  1.00  0.00    -0.125 C  
HETATM   15  C   UNL     1      -8.649   8.902  70.904  1.00  0.00    -0.242 C  
HETATM   16  C   UNL     1     -10.070   9.324  71.246  1.00  0.00    -0.361 C  
HETATM   17  C   UNL     1     -11.066   8.368  70.607  1.00  0.00    -0.278 C  
HETATM   18  C   UNL     1     -10.966   8.461  69.086  1.00  0.00     0.063 C  
HETATM   19  C   UNL     1      -9.571   8.047  68.595  1.00  0.00    -0.148 C  
BRANCH  19  20
HETATM   20  N   UNL     1      -9.297   8.142  67.142  1.00  0.00    -0.139 NA 
HETATM   21  C   UNL     1      -9.652   6.975  66.330  1.00  0.00    -0.099 C  
HETATM   22  C   UNL     1      -8.394   6.124  66.258  1.00  0.00    -0.124 C  
HETATM   23  C   UNL     1      -7.253   7.126  66.386  1.00  0.00    -0.078 C  
HETATM   24  C   UNL     1      -7.910   8.450  66.790  1.00  0.00    -0.094 C  
HETATM   25  O   UNL     1      -6.568   7.241  65.143  1.00  0.00    -0.043 OA 
HETATM   26  H   UNL     1      -5.857   7.866  65.223  1.00  0.00     0.000 HD 
ENDBRANCH  19  20
ENDBRANCH  13  14
ENDBRANCH  12  13
ENDBRANCH  11  12
ENDBRANCH   8  11
ENDBRANCH   2   3
TORSDOF 7
ENDMDL
MODEL      360
REMARK 921   NORMALIZED FREE ENERGY PREDICTED BY IDOCK:    1.64 KCAL/MOL
REMARK 922        TOTAL FREE ENERGY PREDICTED BY IDOCK:    1.39 KCAL/MOL
REMARK 923 INTER-LIGAND FREE ENERGY PREDICTED BY IDOCK:   -3.90 KCAL/MOL
REMARK 924 INTRA-LIGAND FREE ENERGY PREDICTED BY IDOCK:    5.29 KCAL/MOL
REMARK 927      BINDING AFFINITY PREDICTED BY RF-SCORE:    0.00 PKD
ROOT
HETATM    1  C   UNL     1     -13.879   9.507  72.838  1.00  0.00     0.207 C  
HETATM    2  O   UNL     1     -13.727  10.768  72.203  1.00  0.00    -0.169 OA 
ENDROOT
BRANCH   2   3
HETATM    3  C   UNL     1     -12.741  10.872  71.257  1.00  0.00    -0.437 A  
HETATM    4  C   UNL     1     -12.471  11.962  70.418  1.00  0.00    -0.170 A  
HETATM    5  C   UNL     1     -11.430  11.861  69.485  1.00  0.00    -0.357 A  
HETATM    6  C   UNL     1     -12.002   9.690  71.107  1.00  0.00    -0.452 A  
HETATM    7  C   UNL     1     -10.995   9.584  70.145  1.00  0.00    -0.302 A  
HETATM    8  C   UNL     1     -10.736  10.663  69.306  1.00  0.00    -0.275 A  
BRANCH   4   9
HETATM    9  O   UNL     1     -13.219  13.107  70.517  1.00  0.00     0.194 OA 
HETATM   10  C   UNL     1     -13.013  13.856  71.715  1.00  0.00    -0.358 C  
ENDBRANCH   4   9
BRANCH   8  11
HETATM   11  C   UNL     1      -9.721  10.546  68.203  1.00  0.00    -0.166 C  
BRANCH  11  12
HETATM   12  C   UNL     1     -10.351  10.518  66.822  1.00  0.00    -0.245 C  
BRANCH  12  13
HETATM   13  O   UNL     1      -9.496  11.159  65.875  1.00  0.00    -0.199 OA 
BRANCH  13  14
HETATM   14  C   UNL     1      -8.139  10.676  65.824  1.00  0.00    -0.158 C  
HETATM   15  C   UNL     1      -7.916   9.815  64.571  1.00  0.00    -0.144 C  
HETATM   16  C   UNL     1      -6.588   9.073  64.582  1.00  0.00    -0.071 C  
HETATM   17  C   UNL     1      -6.451   8.269  65.866  1.00  0.00    -0.053 C  
HETATM   18  C   UNL     1      -6.402   9.215  67.063  1.00  0.00    -0.063 C  
HETATM   19  C   UNL     1      -7.699  10.029  67.182  1.00  0.00    -0.092 C  
BRANCH  19  20
HETATM   20  N   UNL     1      -7.780  11.039  68.264  1.00  0.00    -0.107 NA 
HETATM   21  C   UNL     1      -7.535  12.431  67.881  1.00  0.00    -0.120 C  
HETATM   22  C   UNL     1      -6.051  12.667  68.112  1.00  0.00    -0.080 C  
HETATM   23  C   UNL     1      -5.687  11.708  69.238  1.00  0.00    -0.057 C  
HETATM   24  C   UNL     1      -6.903  10.792  69.410  1.00  0.00    -0.109 C  
HETATM   25  O   UNL     1      -5.414  12.441  70.429  1.00  0.00    -0.118 OA 
HETATM   26  H   UNL     1      -5.186  11.842  71.131  1.00  0.00     0.000 HD 
ENDBRANCH  19  20
ENDBRANCH  13  14
ENDBRANCH  12  13
ENDBRANCH  11  12
ENDBRANCH   8  11
ENDBRANCH   2   3
TORSDOF 7
ENDMDL
MODEL      361
REMARK 921   NORMALIZED FREE ENERGY PREDICTED BY IDOCK:    2.47 KCAL/MOL
REMARK 922        TOTAL FREE ENERGY PREDICTED BY IDOCK:    2.56 KCAL/MOL
REMARK 923 INTER-LIGAND FREE ENERGY PREDICTED BY IDOCK:   -2.57 KCAL/MOL
REMARK 924 INTRA-LIGAND FREE ENERGY PREDICTED BY IDOCK:    5.13 KCAL/MOL
REMARK 927      BINDING AFFINITY PREDICTED BY RF-SCORE:    0.00 PKD
ROOT
HETATM    1  C   UNL     1     -11.143  10.252  67.342  1.00  0.00    -0.189 C  
HETATM    2  O   UNL     1     -11.627  10.610  68.628  1.00  0.00    -0.281 OA 
ENDROOT
BRANCH   2   3
HETATM    3  C   UNL     1     -11.562   9.650  69.604  1.00  0.00     0.078 A  
HETATM    4  C   UNL     1     -12.279   9.604  70.808  1.00  0.00    -0.230 A  
HETATM    5  C   UNL     1     -12.046   8.548  71.699  1.00  0.00    -0.373 A  
HETATM    6  C   UNL     1     -10.593   8.671  69.344  1.00  0.00    -0.207 A  
HETATM    7  C   UNL     1     -10.337   7.646  70.257  1.00  0.00    -0.214 A  
HETATM    8  C   UNL     1     -11.042   7.608  71.456  1.00  0.00    -0.267 A  
BRANCH   4   9
HETATM    9  O   UNL     1     -13.193  10.584  71.101  1.00  0.00    -0.361 OA 
HETATM   10  C   UNL     1     -13.144  11.725  70.246  1.00  0.00     0.585 C  
ENDBRANCH   4   9
BRANCH   8  11
HETATM   11  C   UNL     1     -10.725   6.570  72.495  1.00  0.00    -0.255 C  
BRANCH  11  12
HETATM   12  C   UNL     1      -9.234   6.350  72.674  1.00  0.00    -0.138 C  
BRANCH  12  13
HETATM   13  O   UNL     1      -8.997   5.342  73.658  1.00  0.00    -0.124 OA 
BRANCH  13  14
HETATM   14  C   UNL     1      -8.463   4.096  73.166  1.00  0.00    -0.093 C  
HETATM   15  C   UNL     1      -9.340   2.916  73.613  1.00  0.00    -0.102 C  
HETATM   16  C   UNL     1      -8.704   1.561  73.343  1.00  0.00    -0.061 C  
HETATM   17  C   UNL     1      -7.311   1.508  73.952  1.00  0.00    -0.024 C  
HETATM   18  C   UNL     1      -6.409   2.528  73.262  1.00  0.00    -0.013 C  
HETATM   19  C   UNL     1      -6.931   3.958  73.466  1.00  0.00    -0.051 C  
BRANCH  19  20
HETATM   20  N   UNL     1      -6.194   5.060  72.803  1.00  0.00    -0.033 NA 
HETATM   21  C   UNL     1      -6.974   6.245  72.439  1.00  0.00    -0.078 C  
HETATM   22  C   UNL     1      -7.424   6.019  71.005  1.00  0.00    -0.092 C  
HETATM   23  C   UNL     1      -6.340   5.132  70.404  1.00  0.00    -0.030 C  
HETATM   24  C   UNL     1      -5.474   4.681  71.585  1.00  0.00    -0.004 C  
HETATM   25  O   UNL     1      -5.581   5.872  69.454  1.00  0.00    -0.011 OA 
HETATM   26  H   UNL     1      -4.905   5.319  69.079  1.00  0.00     0.000 HD 
ENDBRANCH  19  20
ENDBRANCH  13  14
ENDBRANCH  12  13
ENDBRANCH  11  12
ENDBRANCH   8  11
ENDBRANCH   2   3
TORSDOF 7
ENDMDL
MODEL      362
REMARK 921   NORMALIZED FREE ENERGY PREDICTED BY IDOCK:    2.61 KCAL/MOL
REMARK 922        TOTAL FREE ENERGY PREDICTED BY IDOCK:    2.75 KCAL/MOL
REMARK 923 INTER-LIGAND FREE ENERGY PREDICTED BY IDOCK:   -2.44 KCAL/MOL
REMARK 924 INTRA-LIGAND FREE ENERGY PREDICTED BY IDOCK:    5.19 KCAL/MOL
REMARK 927      BINDING AFFINITY PREDICTED BY RF-SCORE:    0.00 PKD
ROOT
HETATM    1  C   UNL     1     -11.123   8.731  67.802  1.00  0.00     0.345 C  
HETATM    2  O   UNL     1     -11.658   9.093  69.066  1.00  0.00     0.391 OA 
ENDROOT
BRANCH   2   3
HETATM    3  C   UNL     1     -11.617   8.143  70.053  1.00  0.00     0.189 A  
HETATM    4  C   UNL     1     -12.403   8.077  71.212  1.00  0.00    -0.271 A  
HETATM    5  C   UNL     1     -12.185   7.035  72.123  1.00  0.00    -0.255 A  
HETATM    6  C   UNL     1     -10.598   7.199  69.859  1.00  0.00    -0.246 A  
HETATM    7  C   UNL     1     -10.360   6.189  70.794  1.00  0.00    -0.266 A  
HETATM    8  C   UNL     1     -11.134   6.132  71.949  1.00  0.00    -0.324 A  
BRANCH   4   9
HETATM    9  O   UNL     1     -13.369   9.023  71.441  1.00  0.00    -0.332 OA 
HETATM   10  C   UNL     1     -14.248   8.732  72.527  1.00  0.00    -0.314 C  
ENDBRANCH   4   9
BRANCH   8  11
HETATM   11  C   UNL     1     -10.843   5.113  73.014  1.00  0.00    -0.336 C  
BRANCH  11  12
HETATM   12  C   UNL     1      -9.443   4.534  72.909  1.00  0.00    -0.130 C  
BRANCH  12  13
HETATM   13  O   UNL     1      -9.409   3.498  71.927  1.00  0.00    -0.110 OA 
BRANCH  13  14
HETATM   14  C   UNL     1      -8.691   3.804  70.715  1.00  0.00    -0.074 C  
HETATM   15  C   UNL     1      -9.568   3.533  69.482  1.00  0.00    -0.179 C  
HETATM   16  C   UNL     1      -8.796   3.595  68.172  1.00  0.00    -0.149 C  
HETATM   17  C   UNL     1      -7.588   2.673  68.235  1.00  0.00    -0.055 C  
HETATM   18  C   UNL     1      -6.619   3.166  69.305  1.00  0.00    -0.033 C  
HETATM   19  C   UNL     1      -7.269   3.145  70.696  1.00  0.00    -0.033 C  
BRANCH  19  20
HETATM   20  N   UNL     1      -6.471   3.654  71.837  1.00  0.00    -0.015 NA 
HETATM   21  C   UNL     1      -7.220   4.204  72.968  1.00  0.00    -0.069 C  
HETATM   22  C   UNL     1      -7.332   5.697  72.703  1.00  0.00    -0.095 C  
HETATM   23  C   UNL     1      -6.093   6.028  71.881  1.00  0.00    -0.040 C  
HETATM   24  C   UNL     1      -5.481   4.678  71.494  1.00  0.00    -0.004 C  
HETATM   25  O   UNL     1      -5.189   6.806  72.659  1.00  0.00    -0.035 OA 
HETATM   26  H   UNL     1      -4.416   7.012  72.146  1.00  0.00     0.000 HD 
ENDBRANCH  19  20
ENDBRANCH  13  14
ENDBRANCH  12  13
ENDBRANCH  11  12
ENDBRANCH   8  11
ENDBRANCH   2   3
TORSDOF 7
ENDMDL
MODEL      363
REMARK 921   NORMALIZED FREE ENERGY PREDICTED BY IDOCK:    2.69 KCAL/MOL
REMARK 922        TOTAL FREE ENERGY PREDICTED BY IDOCK:    2.87 KCAL/MOL
REMARK 923 INTER-LIGAND FREE ENERGY PREDICTED BY IDOCK:   -3.80 KCAL/MOL
REMARK 924 INTRA-LIGAND FREE ENERGY PREDICTED BY IDOCK:    6.67 KCAL/MOL
REMARK 927      BINDING AFFINITY PREDICTED BY RF-SCORE:    0.00 PKD
ROOT
HETATM    1  C   UNL     1     -13.870   9.523  72.873  1.00  0.00     0.207 C  
HETATM    2  O   UNL     1     -13.665  10.789  72.263  1.00  0.00    -0.138 OA 
ENDROOT
BRANCH   2   3
HETATM    3  C   UNL     1     -12.612  10.895  71.392  1.00  0.00    -0.403 A  
HETATM    4  C   UNL     1     -12.284  11.985  70.574  1.00  0.00    -0.325 A  
HETATM    5  C   UNL     1     -11.177  11.887  69.721  1.00  0.00    -0.133 A  
HETATM    6  C   UNL     1     -11.859   9.715  71.299  1.00  0.00    -0.460 A  
HETATM    7  C   UNL     1     -10.784   9.611  70.415  1.00  0.00    -0.356 A  
HETATM    8  C   UNL     1     -10.466  10.691  69.595  1.00  0.00    -0.219 A  
BRANCH   4   9
HETATM    9  O   UNL     1     -13.041  13.128  70.616  1.00  0.00     0.004 OA 
HETATM   10  C   UNL     1     -12.932  13.875  71.826  1.00  0.00    -0.358 C  
ENDBRANCH   4   9
BRANCH   8  11
HETATM   11  C   UNL     1      -9.373  10.576  68.571  1.00  0.00    -0.168 C  
BRANCH  11  12
HETATM   12  C   UNL     1      -8.689   9.221  68.587  1.00  0.00    -0.132 C  
BRANCH  12  13
HETATM   13  O   UNL     1      -8.273   8.861  67.269  1.00  0.00    -0.104 OA 
BRANCH  13  14
HETATM   14  C   UNL     1      -7.508   9.855  66.558  1.00  0.00    -0.100 C  
HETATM   15  C   UNL     1      -6.048   9.404  66.397  1.00  0.00    -0.060 C  
HETATM   16  C   UNL     1      -5.134  10.504  65.881  1.00  0.00    -0.071 C  
HETATM   17  C   UNL     1      -5.262  11.742  66.756  1.00  0.00    -0.085 C  
HETATM   18  C   UNL     1      -6.678  12.302  66.650  1.00  0.00     0.401 C  
HETATM   19  C   UNL     1      -7.716  11.289  67.155  1.00  0.00    -0.147 C  
BRANCH  19  20
HETATM   20  N   UNL     1      -9.146  11.665  67.061  1.00  0.00    -0.174 NA 
HETATM   21  C   UNL     1      -9.905  11.085  65.950  1.00  0.00    -0.232 C  
HETATM   22  C   UNL     1      -9.821  12.098  64.820  1.00  0.00    -0.157 C  
HETATM   23  C   UNL     1      -9.670  13.439  65.525  1.00  0.00    -0.042 C  
HETATM   24  C   UNL     1      -9.407  13.104  66.997  1.00  0.00    -0.238 C  
HETATM   25  O   UNL     1     -10.859  14.206  65.369  1.00  0.00    -0.308 OA 
HETATM   26  H   UNL     1     -10.764  15.043  65.809  1.00  0.00     0.000 HD 
ENDBRANCH  19  20
ENDBRANCH  13  14
ENDBRANCH  12  13
ENDBRANCH  11  12
ENDBRANCH   8  11
ENDBRANCH   2   3
TORSDOF 7
ENDMDL
MODEL      364
REMARK 921   NORMALIZED FREE ENERGY PREDICTED BY IDOCK:    3.04 KCAL/MOL
REMARK 922        TOTAL FREE ENERGY PREDICTED BY IDOCK:    3.36 KCAL/MOL
REMARK 923 INTER-LIGAND FREE ENERGY PREDICTED BY IDOCK:    3.29 KCAL/MOL
REMARK 924 INTRA-LIGAND FREE ENERGY PREDICTED BY IDOCK:    0.07 KCAL/MOL
REMARK 927      BINDING AFFINITY PREDICTED BY RF-SCORE:    0.00 PKD
ROOT
HETATM    1  C   UNL     1     -13.197  11.339  63.845  1.00  0.00     1.621 C  
HETATM    2  O   UNL     1     -11.778  11.302  63.867  1.00  0.00    -0.131 OA 
ENDROOT
BRANCH   2   3
HETATM    3  C   UNL     1     -11.142  12.300  64.557  1.00  0.00    -0.321 A  
HETATM    4  C   UNL     1     -10.224  12.165  65.608  1.00  0.00    -0.256 A  
HETATM    5  C   UNL     1      -9.705  13.318  66.211  1.00  0.00    -0.274 A  
HETATM    6  C   UNL     1     -11.560  13.582  64.171  1.00  0.00    -0.415 A  
HETATM    7  C   UNL     1     -11.069  14.724  64.807  1.00  0.00    -0.393 A  
HETATM    8  C   UNL     1     -10.166  14.587  65.857  1.00  0.00    -0.339 A  
BRANCH   4   9
HETATM    9  O   UNL     1      -9.845  10.916  66.032  1.00  0.00    -0.214 OA 
HETATM   10  C   UNL     1      -8.548  10.852  66.624  1.00  0.00    -0.148 C  
ENDBRANCH   4   9
BRANCH   8  11
HETATM   11  C   UNL     1      -9.691  15.793  66.618  1.00  0.00    -0.266 C  
BRANCH  11  12
HETATM   12  C   UNL     1      -8.644  15.456  67.663  1.00  0.00    -0.167 C  
BRANCH  12  13
HETATM   13  O   UNL     1      -8.590  16.479  68.658  1.00  0.00    -0.221 OA 
BRANCH  13  14
HETATM   14  C   UNL     1      -8.120  17.766  68.212  1.00  0.00    -0.283 C  
HETATM   15  C   UNL     1      -6.862  17.613  67.342  1.00  0.00    -0.183 C  
HETATM   16  C   UNL     1      -6.173  18.937  67.047  1.00  0.00    -0.192 C  
HETATM   17  C   UNL     1      -5.891  19.679  68.344  1.00  0.00    -0.247 C  
HETATM   18  C   UNL     1      -7.207  20.046  69.024  1.00  0.00    -0.207 C  
HETATM   19  C   UNL     1      -8.010  18.789  69.394  1.00  0.00     0.214 C  
BRANCH  19  20
HETATM   20  N   UNL     1      -9.344  18.983  70.010  1.00  0.00     0.894 NA 
HETATM   21  C   UNL     1     -10.455  18.236  69.416  1.00  0.00     0.450 C  
HETATM   22  C   UNL     1     -11.073  19.165  68.384  1.00  0.00     0.687 C  
HETATM   23  C   UNL     1     -10.789  20.564  68.917  1.00  0.00     0.880 C  
HETATM   24  C   UNL     1      -9.803  20.372  70.074  1.00  0.00     0.800 C  
HETATM   25  O   UNL     1     -12.000  21.168  69.360  1.00  0.00     2.001 OA 
HETATM   26  H   UNL     1     -11.823  22.041  69.692  1.00  0.00     0.000 HD 
ENDBRANCH  19  20
ENDBRANCH  13  14
ENDBRANCH  12  13
ENDBRANCH  11  12
ENDBRANCH   8  11
ENDBRANCH   2   3
TORSDOF 7
ENDMDL
MODEL      365
REMARK 921   NORMALIZED FREE ENERGY PREDICTED BY IDOCK:    3.05 KCAL/MOL
REMARK 922        TOTAL FREE ENERGY PREDICTED BY IDOCK:    3.38 KCAL/MOL
REMARK 923 INTER-LIGAND FREE ENERGY PREDICTED BY IDOCK:    3.68 KCAL/MOL
REMARK 924 INTRA-LIGAND FREE ENERGY PREDICTED BY IDOCK:   -0.31 KCAL/MOL
REMARK 927      BINDING AFFINITY PREDICTED BY RF-SCORE:    0.00 PKD
ROOT
HETATM    1  C   UNL     1     -12.529  10.543  64.609  1.00  0.00     5.428 C  
HETATM    2  O   UNL     1     -11.376  10.804  65.394  1.00  0.00     0.255 OA 
ENDROOT
BRANCH   2   3
HETATM    3  C   UNL     1     -11.410  10.396  66.702  1.00  0.00     0.524 A  
HETATM    4  C   UNL     1     -11.814  11.138  67.821  1.00  0.00    -0.015 A  
HETATM    5  C   UNL     1     -11.745  10.549  69.090  1.00  0.00    -0.261 A  
HETATM    6  C   UNL     1     -10.896   9.104  66.885  1.00  0.00    -0.014 A  
HETATM    7  C   UNL     1     -10.790   8.541  68.158  1.00  0.00     0.004 A  
HETATM    8  C   UNL     1     -11.182   9.283  69.268  1.00  0.00     0.066 A  
BRANCH   4   9
HETATM    9  O   UNL     1     -12.271  12.422  67.664  1.00  0.00    -0.425 OA 
HETATM   10  C   UNL     1     -11.739  13.366  68.593  1.00  0.00    -0.349 C  
ENDBRANCH   4   9
BRANCH   8  11
HETATM   11  C   UNL     1     -10.996   8.738  70.655  1.00  0.00    -0.278 C  
BRANCH  11  12
HETATM   12  C   UNL     1      -9.547   8.763  71.110  1.00  0.00    -0.242 C  
BRANCH  12  13
HETATM   13  O   UNL     1      -8.860   9.864  70.513  1.00  0.00    -0.089 OA 
BRANCH  13  14
HETATM   14  C   UNL     1      -8.002   9.541  69.401  1.00  0.00    -0.099 C  
HETATM   15  C   UNL     1      -7.746   8.027  69.334  1.00  0.00    -0.104 C  
HETATM   16  C   UNL     1      -6.656   7.646  68.344  1.00  0.00    -0.054 C  
HETATM   17  C   UNL     1      -5.388   8.433  68.636  1.00  0.00    -0.036 C  
HETATM   18  C   UNL     1      -5.642   9.921  68.413  1.00  0.00    -0.042 C  
HETATM   19  C   UNL     1      -6.725  10.449  69.366  1.00  0.00    -0.069 C  
BRANCH  19  20
HETATM   20  N   UNL     1      -7.128  11.868  69.230  1.00  0.00    -0.054 NA 
HETATM   21  C   UNL     1      -8.239  12.151  68.318  1.00  0.00    -0.168 C  
HETATM   22  C   UNL     1      -7.600  12.462  66.974  1.00  0.00    -0.046 C  
HETATM   23  C   UNL     1      -6.236  13.039  67.329  1.00  0.00     0.064 C  
HETATM   24  C   UNL     1      -6.056  12.782  68.829  1.00  0.00    -0.071 C  
HETATM   25  O   UNL     1      -6.206  14.431  67.031  1.00  0.00    -0.240 OA 
HETATM   26  H   UNL     1      -5.354  14.790  67.252  1.00  0.00     0.000 HD 
ENDBRANCH  19  20
ENDBRANCH  13  14
ENDBRANCH  12  13
ENDBRANCH  11  12
ENDBRANCH   8  11
ENDBRANCH   2   3
TORSDOF 7
ENDMDL
MODEL      366
REMARK 921   NORMALIZED FREE ENERGY PREDICTED BY IDOCK:    4.07 KCAL/MOL
REMARK 922        TOTAL FREE ENERGY PREDICTED BY IDOCK:    4.81 KCAL/MOL
REMARK 923 INTER-LIGAND FREE ENERGY PREDICTED BY IDOCK:    4.69 KCAL/MOL
REMARK 924 INTRA-LIGAND FREE ENERGY PREDICTED BY IDOCK:    0.12 KCAL/MOL
REMARK 927      BINDING AFFINITY PREDICTED BY RF-SCORE:    0.00 PKD
ROOT
HETATM    1  C   UNL     1     -11.386  18.006  69.803  1.00  0.00     2.859 C  
HETATM    2  O   UNL     1     -10.708  17.176  70.735  1.00  0.00     0.480 OA 
ENDROOT
BRANCH   2   3
HETATM    3  C   UNL     1     -10.723  15.828  70.491  1.00  0.00    -0.234 A  
HETATM    4  C   UNL     1      -9.960  15.119  69.553  1.00  0.00    -0.201 A  
HETATM    5  C   UNL     1     -10.145  13.735  69.432  1.00  0.00     0.376 A  
HETATM    6  C   UNL     1     -11.690  15.147  71.246  1.00  0.00    -0.409 A  
HETATM    7  C   UNL     1     -11.897  13.776  71.088  1.00  0.00     0.046 A  
HETATM    8  C   UNL     1     -11.146  13.075  70.148  1.00  0.00     0.557 A  
BRANCH   4   9
HETATM    9  O   UNL     1      -9.047  15.779  68.771  1.00  0.00    -0.188 OA 
HETATM   10  C   UNL     1      -8.006  14.958  68.242  1.00  0.00    -0.130 C  
ENDBRANCH   4   9
BRANCH   8  11
HETATM   11  C   UNL     1     -11.409  11.619  69.892  1.00  0.00    -0.230 C  
BRANCH  11  12
HETATM   12  C   UNL     1     -12.614  11.385  68.999  1.00  0.00     0.535 C  
BRANCH  12  13
HETATM   13  O   UNL     1     -12.195  11.156  67.653  1.00  0.00    -0.332 OA 
BRANCH  13  14
HETATM   14  C   UNL     1     -10.775  11.011  67.452  1.00  0.00    -0.257 C  
HETATM   15  C   UNL     1     -10.312  11.826  66.234  1.00  0.00    -0.259 C  
HETATM   16  C   UNL     1      -8.881  11.521  65.818  1.00  0.00    -0.060 C  
HETATM   17  C   UNL     1      -8.706  10.025  65.610  1.00  0.00    -0.171 C  
HETATM   18  C   UNL     1      -8.911   9.294  66.935  1.00  0.00    -0.149 C  
HETATM   19  C   UNL     1     -10.334   9.507  67.471  1.00  0.00    -0.248 C  
BRANCH  19  20
HETATM   20  N   UNL     1     -10.671   8.907  68.785  1.00  0.00    -0.146 NA 
HETATM   21  C   UNL     1      -9.634   8.088  69.416  1.00  0.00    -0.160 C  
HETATM   22  C   UNL     1      -9.909   6.660  68.974  1.00  0.00    -0.149 C  
HETATM   23  C   UNL     1     -11.414   6.620  68.739  1.00  0.00     0.033 C  
HETATM   24  C   UNL     1     -11.879   8.079  68.798  1.00  0.00     1.988 C  
HETATM   25  O   UNL     1     -12.041   5.832  69.745  1.00  0.00     1.145 OA 
HETATM   26  H   UNL     1     -12.979   5.808  69.598  1.00  0.00     0.000 HD 
ENDBRANCH  19  20
ENDBRANCH  13  14
ENDBRANCH  12  13
ENDBRANCH  11  12
ENDBRANCH   8  11
ENDBRANCH   2   3
TORSDOF 7
ENDMDL
MODEL      367
REMARK 921   NORMALIZED FREE ENERGY PREDICTED BY IDOCK:    9.55 KCAL/MOL
REMARK 922        TOTAL FREE ENERGY PREDICTED BY IDOCK:   12.54 KCAL/MOL
REMARK 923 INTER-LIGAND FREE ENERGY PREDICTED BY IDOCK:   12.33 KCAL/MOL
REMARK 924 INTRA-LIGAND FREE ENERGY PREDICTED BY IDOCK:    0.20 KCAL/MOL
REMARK 927      BINDING AFFINITY PREDICTED BY RF-SCORE:    0.00 PKD
ROOT
HETATM    1  C   UNL     1     -13.596  20.200  67.362  1.00  0.00     6.026 C  
HETATM    2  O   UNL     1     -12.443  19.783  66.647  1.00  0.00     2.819 OA 
ENDROOT
BRANCH   2   3
HETATM    3  C   UNL     1     -11.455  19.165  67.368  1.00  0.00     0.697 A  
HETATM    4  C   UNL     1     -10.083  19.454  67.366  1.00  0.00    -0.398 A  
HETATM    5  C   UNL     1      -9.223  18.680  68.155  1.00  0.00    -0.340 A  
HETATM    6  C   UNL     1     -11.925  18.075  68.115  1.00  0.00     2.762 A  
HETATM    7  C   UNL     1     -11.055  17.282  68.865  1.00  0.00     0.177 A  
HETATM    8  C   UNL     1      -9.692  17.565  68.853  1.00  0.00    -0.259 A  
BRANCH   4   9
HETATM    9  O   UNL     1      -9.601  20.485  66.600  1.00  0.00    -0.355 OA 
HETATM   10  C   UNL     1      -8.657  21.330  67.257  1.00  0.00     0.525 C  
ENDBRANCH   4   9
BRANCH   8  11
HETATM   11  C   UNL     1      -8.721  16.675  69.576  1.00  0.00     0.323 C  
BRANCH  11  12
HETATM   12  C   UNL     1      -9.026  15.199  69.395  1.00  0.00    -0.176 C  
BRANCH  12  13
HETATM   13  O   UNL     1      -7.923  14.539  68.772  1.00  0.00    -0.137 OA 
BRANCH  13  14
HETATM   14  C   UNL     1      -7.461  15.117  67.535  1.00  0.00    -0.198 C  
HETATM   15  C   UNL     1      -6.565  16.336  67.806  1.00  0.00    -0.162 C  
HETATM   16  C   UNL     1      -6.249  17.138  66.553  1.00  0.00    -0.248 C  
HETATM   17  C   UNL     1      -7.537  17.517  65.838  1.00  0.00    -0.138 C  
HETATM   18  C   UNL     1      -8.244  16.256  65.349  1.00  0.00     2.154 C  
HETATM   19  C   UNL     1      -8.636  15.348  66.524  1.00  0.00    -0.259 C  
BRANCH  19  20
HETATM   20  N   UNL     1      -9.281  14.052  66.206  1.00  0.00    -0.167 NA 
HETATM   21  C   UNL     1      -9.441  13.730  64.786  1.00  0.00     0.928 C  
HETATM   22  C   UNL     1     -10.825  14.228  64.404  1.00  0.00    -0.168 C  
HETATM   23  C   UNL     1     -11.629  14.140  65.695  1.00  0.00    -0.339 C  
HETATM   24  C   UNL     1     -10.605  13.855  66.799  1.00  0.00    -0.277 C  
HETATM   25  O   UNL     1     -12.593  13.097  65.596  1.00  0.00    -0.456 OA 
HETATM   26  H   UNL     1     -13.093  13.043  66.402  1.00  0.00     0.000 HD 
ENDBRANCH  19  20
ENDBRANCH  13  14
ENDBRANCH  12  13
ENDBRANCH  11  12
ENDBRANCH   8  11
ENDBRANCH   2   3
TORSDOF 7
ENDMDL
MODEL      368
REMARK 921   NORMALIZED FREE ENERGY PREDICTED BY IDOCK:   14.63 KCAL/MOL
REMARK 922        TOTAL FREE ENERGY PREDICTED BY IDOCK:   19.70 KCAL/MOL
REMARK 923 INTER-LIGAND FREE ENERGY PREDICTED BY IDOCK:   18.10 KCAL/MOL
REMARK 924 INTRA-LIGAND FREE ENERGY PREDICTED BY IDOCK:    1.60 KCAL/MOL
REMARK 927      BINDING AFFINITY PREDICTED BY RF-SCORE:    0.00 PKD
ROOT
HETATM    1  C   UNL     1     -12.049   9.533  64.049  1.00  0.00    11.928 C  
HETATM    2  O   UNL     1     -10.885   9.519  64.863  1.00  0.00     1.829 OA 
ENDROOT
BRANCH   2   3
HETATM    3  C   UNL     1     -10.924   8.737  65.988  1.00  0.00     2.097 A  
HETATM    4  C   UNL     1     -11.349   9.104  67.272  1.00  0.00     1.062 A  
HETATM    5  C   UNL     1     -11.281   8.161  68.307  1.00  0.00     0.557 A  
HETATM    6  C   UNL     1     -10.391   7.456  65.780  1.00  0.00     1.616 A  
HETATM    7  C   UNL     1     -10.288   6.538  66.827  1.00  0.00    -0.279 A  
HETATM    8  C   UNL     1     -10.700   6.908  68.103  1.00  0.00    -0.260 A  
BRANCH   4   9
HETATM    9  O   UNL     1     -11.824  10.370  67.503  1.00  0.00    -0.084 OA 
HETATM   10  C   UNL     1     -12.432  10.559  68.780  1.00  0.00     0.990 C  
ENDBRANCH   4   9
BRANCH   8  11
HETATM   11  C   UNL     1     -10.517   5.973  69.266  1.00  0.00    -0.328 C  
BRANCH  11  12
HETATM   12  C   UNL     1      -9.090   5.950  69.785  1.00  0.00    -0.138 C  
BRANCH  12  13
HETATM   13  O   UNL     1      -8.453   7.204  69.539  1.00  0.00    -0.131 OA 
BRANCH  13  14
HETATM   14  C   UNL     1      -7.763   7.323  68.279  1.00  0.00    -0.120 C  
HETATM   15  C   UNL     1      -7.718   5.968  67.555  1.00  0.00    -0.097 C  
HETATM   16  C   UNL     1      -6.793   5.966  66.347  1.00  0.00    -0.059 C  
HETATM   17  C   UNL     1      -5.409   6.452  66.748  1.00  0.00    -0.013 C  
HETATM   18  C   UNL     1      -5.486   7.908  67.201  1.00  0.00    -0.036 C  
HETATM   19  C   UNL     1      -6.387   8.058  68.435  1.00  0.00    -0.050 C  
BRANCH  19  20
HETATM   20  N   UNL     1      -6.611   9.426  68.960  1.00  0.00    -0.046 NA 
HETATM   21  C   UNL     1      -7.733  10.173  68.387  1.00  0.00    -0.089 C  
HETATM   22  C   UNL     1      -7.148  10.979  67.238  1.00  0.00    -0.097 C  
HETATM   23  C   UNL     1      -5.700  11.221  67.645  1.00  0.00    -0.047 C  
HETATM   24  C   UNL     1      -5.458  10.324  68.864  1.00  0.00    -0.038 C  
HETATM   25  O   UNL     1      -5.509  12.595  67.963  1.00  0.00    -0.069 OA 
HETATM   26  H   UNL     1      -4.606  12.746  68.217  1.00  0.00     0.000 HD 
ENDBRANCH  19  20
ENDBRANCH  13  14
ENDBRANCH  12  13
ENDBRANCH  11  12
ENDBRANCH   8  11
ENDBRANCH   2   3
TORSDOF 7
ENDMDL
MODEL      369
REMARK 921   NORMALIZED FREE ENERGY PREDICTED BY IDOCK:   15.29 KCAL/MOL
REMARK 922        TOTAL FREE ENERGY PREDICTED BY IDOCK:   20.63 KCAL/MOL
REMARK 923 INTER-LIGAND FREE ENERGY PREDICTED BY IDOCK:   20.37 KCAL/MOL
REMARK 924 INTRA-LIGAND FREE ENERGY PREDICTED BY IDOCK:    0.26 KCAL/MOL
REMARK 927      BINDING AFFINITY PREDICTED BY RF-SCORE:    0.00 PKD
ROOT
HETATM    1  C   UNL     1     -11.404   1.942  65.415  1.00  0.00     5.151 C  
HETATM    2  O   UNL     1     -11.821   3.235  65.830  1.00  0.00     4.985 OA 
ENDROOT
BRANCH   2   3
HETATM    3  C   UNL     1     -10.846   4.188  65.964  1.00  0.00     0.877 A  
HETATM    4  C   UNL     1     -10.828   5.277  66.847  1.00  0.00     0.007 A  
HETATM    5  C   UNL     1      -9.747   6.167  66.809  1.00  0.00    -0.191 A  
HETATM    6  C   UNL     1      -9.811   4.046  65.029  1.00  0.00    -0.204 A  
HETATM    7  C   UNL     1      -8.759   4.961  64.969  1.00  0.00    -0.149 A  
HETATM    8  C   UNL     1      -8.748   6.048  65.839  1.00  0.00    -0.157 A  
BRANCH   4   9
HETATM    9  O   UNL     1     -11.859   5.459  67.733  1.00  0.00     2.535 OA 
HETATM   10  C   UNL     1     -11.677   6.536  68.652  1.00  0.00     0.586 C  
ENDBRANCH   4   9
BRANCH   8  11
HETATM   11  C   UNL     1      -7.678   7.097  65.738  1.00  0.00    -0.099 C  
BRANCH  11  12
HETATM   12  C   UNL     1      -8.167   8.479  66.131  1.00  0.00    -0.115 C  
BRANCH  12  13
HETATM   13  O   UNL     1      -7.479   9.480  65.380  1.00  0.00    -0.094 OA 
BRANCH  13  14
HETATM   14  C   UNL     1      -8.306  10.333  64.563  1.00  0.00    -0.168 C  
HETATM   15  C   UNL     1      -7.688  10.511  63.167  1.00  0.00    -0.048 C  
HETATM   16  C   UNL     1      -8.372  11.591  62.342  1.00  0.00     0.198 C  
HETATM   17  C   UNL     1      -8.417  12.895  63.124  1.00  0.00     6.004 C  
HETATM   18  C   UNL     1      -9.283  12.719  64.369  1.00  0.00     1.043 C  
HETATM   19  C   UNL     1      -8.697  11.655  65.308  1.00  0.00     0.332 C  
BRANCH  19  20
HETATM   20  N   UNL     1      -9.459  11.326  66.536  1.00  0.00    -0.188 NA 
HETATM   21  C   UNL     1     -10.495  10.298  66.409  1.00  0.00    -0.163 C  
HETATM   22  C   UNL     1     -11.784  11.044  66.108  1.00  0.00     0.891 C  
HETATM   23  C   UNL     1     -11.596  12.405  66.769  1.00  0.00    -0.379 C  
HETATM   24  C   UNL     1     -10.121  12.463  67.179  1.00  0.00    -0.213 C  
HETATM   25  O   UNL     1     -12.456  12.518  67.898  1.00  0.00    -0.068 OA 
HETATM   26  H   UNL     1     -12.338  13.366  68.309  1.00  0.00     0.000 HD 
ENDBRANCH  19  20
ENDBRANCH  13  14
ENDBRANCH  12  13
ENDBRANCH  11  12
ENDBRANCH   8  11
ENDBRANCH   2   3
TORSDOF 7
ENDMDL
MODEL      370
REMARK 921   NORMALIZED FREE ENERGY PREDICTED BY IDOCK:   17.71 KCAL/MOL
REMARK 922        TOTAL FREE ENERGY PREDICTED BY IDOCK:   24.04 KCAL/MOL
REMARK 923 INTER-LIGAND FREE ENERGY PREDICTED BY IDOCK:   23.39 KCAL/MOL
REMARK 924 INTRA-LIGAND FREE ENERGY PREDICTED BY IDOCK:    0.64 KCAL/MOL
REMARK 927      BINDING AFFINITY PREDICTED BY RF-SCORE:    0.00 PKD
ROOT
HETATM    1  C   UNL     1     -13.888  19.499  66.044  1.00  0.00    15.041 C  
HETATM    2  O   UNL     1     -12.493  19.760  66.082  1.00  0.00     3.284 OA 
ENDROOT
BRANCH   2   3
HETATM    3  C   UNL     1     -11.747  19.020  66.961  1.00  0.00     1.594 A  
HETATM    4  C   UNL     1     -10.801  19.486  67.885  1.00  0.00    -0.175 A  
HETATM    5  C   UNL     1     -10.112  18.561  68.680  1.00  0.00    -0.406 A  
HETATM    6  C   UNL     1     -11.943  17.639  66.817  1.00  0.00     3.068 A  
HETATM    7  C   UNL     1     -11.222  16.722  67.583  1.00  0.00     0.026 A  
HETATM    8  C   UNL     1     -10.275  17.186  68.492  1.00  0.00    -0.346 A  
BRANCH   4   9
HETATM    9  O   UNL     1     -10.560  20.832  68.001  1.00  0.00     0.118 OA 
HETATM   10  C   UNL     1     -10.754  21.364  69.311  1.00  0.00     1.668 C  
ENDBRANCH   4   9
BRANCH   8  11
HETATM   11  C   UNL     1      -9.421  16.221  69.264  1.00  0.00    -0.202 C  
BRANCH  11  12
HETATM   12  C   UNL     1      -8.012  16.107  68.711  1.00  0.00    -0.216 C  
BRANCH  12  13
HETATM   13  O   UNL     1      -7.899  14.952  67.879  1.00  0.00    -0.118 OA 
BRANCH  13  14
HETATM   14  C   UNL     1      -7.626  13.711  68.558  1.00  0.00    -0.130 C  
HETATM   15  C   UNL     1      -6.931  13.971  69.904  1.00  0.00     0.151 C  
HETATM   16  C   UNL     1      -6.392  12.705  70.555  1.00  0.00     0.411 C  
HETATM   17  C   UNL     1      -5.497  11.957  69.578  1.00  0.00    -0.067 C  
HETATM   18  C   UNL     1      -6.321  11.485  68.383  1.00  0.00    -0.050 C  
HETATM   19  C   UNL     1      -6.922  12.673  67.618  1.00  0.00    -0.140 C  
BRANCH  19  20
HETATM   20  N   UNL     1      -7.801  12.373  66.463  1.00  0.00     0.210 NA 
HETATM   21  C   UNL     1      -8.813  13.379  66.130  1.00  0.00     0.395 C  
HETATM   22  C   UNL     1     -10.070  12.962  66.876  1.00  0.00    -0.241 C  
HETATM   23  C   UNL     1      -9.956  11.447  66.991  1.00  0.00    -0.201 C  
HETATM   24  C   UNL     1      -8.529  11.106  66.549  1.00  0.00    -0.165 C  
HETATM   25  O   UNL     1     -10.924  10.823  66.154  1.00  0.00    -0.115 OA 
HETATM   26  H   UNL     1     -10.852   9.878  66.226  1.00  0.00     0.000 HD 
ENDBRANCH  19  20
ENDBRANCH  13  14
ENDBRANCH  12  13
ENDBRANCH  11  12
ENDBRANCH   8  11
ENDBRANCH   2   3
TORSDOF 7
ENDMDL
MODEL      371
REMARK 921   NORMALIZED FREE ENERGY PREDICTED BY IDOCK:   19.92 KCAL/MOL
REMARK 922        TOTAL FREE ENERGY PREDICTED BY IDOCK:   27.16 KCAL/MOL
REMARK 923 INTER-LIGAND FREE ENERGY PREDICTED BY IDOCK:   19.16 KCAL/MOL
REMARK 924 INTRA-LIGAND FREE ENERGY PREDICTED BY IDOCK:    8.00 KCAL/MOL
REMARK 927      BINDING AFFINITY PREDICTED BY RF-SCORE:    0.00 PKD
ROOT
HETATM    1  C   UNL     1     -13.657  20.191  67.473  1.00  0.00     6.046 C  
HETATM    2  O   UNL     1     -12.608  19.492  66.821  1.00  0.00     3.444 OA 
ENDROOT
BRANCH   2   3
HETATM    3  C   UNL     1     -11.737  18.795  67.617  1.00  0.00     1.677 A  
HETATM    4  C   UNL     1     -10.359  19.003  67.766  1.00  0.00    -0.417 A  
HETATM    5  C   UNL     1      -9.630  18.156  68.611  1.00  0.00    -0.342 A  
HETATM    6  C   UNL     1     -12.343  17.713  68.272  1.00  0.00     3.789 A  
HETATM    7  C   UNL     1     -11.601  16.848  69.078  1.00  0.00     0.506 A  
HETATM    8  C   UNL     1     -10.230  17.050  69.217  1.00  0.00    -0.246 A  
BRANCH   4   9
HETATM    9  O   UNL     1      -9.742  20.026  67.091  1.00  0.00    -0.357 OA 
HETATM   10  C   UNL     1      -8.815  20.784  67.868  1.00  0.00     0.167 C  
ENDBRANCH   4   9
BRANCH   8  11
HETATM   11  C   UNL     1      -9.392  16.084  70.004  1.00  0.00     0.489 C  
BRANCH  11  12
HETATM   12  C   UNL     1      -9.238  14.739  69.316  1.00  0.00    -0.031 C  
BRANCH  12  13
HETATM   13  O   UNL     1      -7.868  14.507  68.983  1.00  0.00    -0.137 OA 
BRANCH  13  14
HETATM   14  C   UNL     1      -7.073  15.684  68.737  1.00  0.00    -0.127 C  
HETATM   15  C   UNL     1      -6.453  16.203  70.044  1.00  0.00    -0.017 C  
HETATM   16  C   UNL     1      -5.811  17.575  69.899  1.00  0.00    -0.249 C  
HETATM   17  C   UNL     1      -6.808  18.557  69.303  1.00  0.00    -0.234 C  
HETATM   18  C   UNL     1      -7.173  18.124  67.886  1.00  0.00    -0.223 C  
HETATM   19  C   UNL     1      -7.849  16.745  67.883  1.00  0.00    -0.172 C  
BRANCH  19  20
HETATM   20  N   UNL     1      -8.210  16.158  66.570  1.00  0.00    -0.292 NA 
HETATM   21  C   UNL     1      -7.599  16.771  65.389  1.00  0.00     2.198 C  
HETATM   22  C   UNL     1      -8.587  17.822  64.910  1.00  0.00     4.146 C  
HETATM   23  C   UNL     1      -9.945  17.293  65.352  1.00  0.00     0.356 C  
HETATM   24  C   UNL     1      -9.645  16.114  66.284  1.00  0.00    -0.306 C  
HETATM   25  O   UNL     1     -10.697  16.880  64.216  1.00  0.00    -0.510 OA 
HETATM   26  H   UNL     1     -11.544  16.550  64.492  1.00  0.00     0.000 HD 
ENDBRANCH  19  20
ENDBRANCH  13  14
ENDBRANCH  12  13
ENDBRANCH  11  12
ENDBRANCH   8  11
ENDBRANCH   2   3
TORSDOF 7
ENDMDL
MODEL      372
REMARK 921   NORMALIZED FREE ENERGY PREDICTED BY IDOCK:   29.40 KCAL/MOL
REMARK 922        TOTAL FREE ENERGY PREDICTED BY IDOCK:   40.52 KCAL/MOL
REMARK 923 INTER-LIGAND FREE ENERGY PREDICTED BY IDOCK:   23.11 KCAL/MOL
REMARK 924 INTRA-LIGAND FREE ENERGY PREDICTED BY IDOCK:   17.40 KCAL/MOL
REMARK 927      BINDING AFFINITY PREDICTED BY RF-SCORE:    0.00 PKD
ROOT
HETATM    1  C   UNL     1     -12.002  18.565  70.227  1.00  0.00     9.353 C  
HETATM    2  O   UNL     1     -11.742  17.435  71.046  1.00  0.00     1.567 OA 
ENDROOT
BRANCH   2   3
HETATM    3  C   UNL     1     -11.085  16.383  70.463  1.00  0.00    -0.198 A  
HETATM    4  C   UNL     1      -9.774  15.950  70.708  1.00  0.00     1.502 A  
HETATM    5  C   UNL     1      -9.268  14.865  69.979  1.00  0.00     0.452 A  
HETATM    6  C   UNL     1     -11.838  15.759  69.458  1.00  0.00    -0.359 A  
HETATM    7  C   UNL     1     -11.310  14.707  68.707  1.00  0.00    -0.302 A  
HETATM    8  C   UNL     1     -10.006  14.285  68.944  1.00  0.00    -0.160 A  
BRANCH   4   9
HETATM    9  O   UNL     1      -9.007  16.583  71.651  1.00  0.00     6.673 OA 
HETATM   10  C   UNL     1      -7.604  16.573  71.389  1.00  0.00     6.307 C  
ENDBRANCH   4   9
BRANCH   8  11
HETATM   11  C   UNL     1      -9.381  13.217  68.092  1.00  0.00    -0.217 C  
BRANCH  11  12
HETATM   12  C   UNL     1      -8.778  13.763  66.810  1.00  0.00    -0.087 C  
BRANCH  12  13
HETATM   13  O   UNL     1      -7.678  14.623  67.107  1.00  0.00    -0.193 OA 
BRANCH  13  14
HETATM   14  C   UNL     1      -7.344  14.758  68.503  1.00  0.00    -0.118 C  
HETATM   15  C   UNL     1      -6.541  16.045  68.747  1.00  0.00    -0.126 C  
HETATM   16  C   UNL     1      -5.945  16.123  70.145  1.00  0.00    -0.134 C  
HETATM   17  C   UNL     1      -5.132  14.871  70.436  1.00  0.00    -0.111 C  
HETATM   18  C   UNL     1      -6.050  13.652  70.451  1.00  0.00    -0.108 C  
HETATM   19  C   UNL     1      -6.717  13.444  69.083  1.00  0.00    -0.099 C  
BRANCH  19  20
HETATM   20  N   UNL     1      -7.688  12.331  68.954  1.00  0.00    -0.009 NA 
HETATM   21  C   UNL     1      -7.282  11.039  69.512  1.00  0.00    -0.090 C  
HETATM   22  C   UNL     1      -6.636  10.278  68.365  1.00  0.00    -0.056 C  
HETATM   23  C   UNL     1      -7.322  10.822  67.118  1.00  0.00    -0.101 C  
HETATM   24  C   UNL     1      -8.123  12.042  67.586  1.00  0.00    -0.155 C  
HETATM   25  O   UNL     1      -8.170   9.825  66.557  1.00  0.00    -0.118 OA 
HETATM   26  H   UNL     1      -8.598  10.165  65.780  1.00  0.00     0.000 HD 
ENDBRANCH  19  20
ENDBRANCH  13  14
ENDBRANCH  12  13
ENDBRANCH  11  12
ENDBRANCH   8  11
ENDBRANCH   2   3
TORSDOF 7
ENDMDL
MODEL      373
REMARK 921   NORMALIZED FREE ENERGY PREDICTED BY IDOCK:   48.32 KCAL/MOL
REMARK 922        TOTAL FREE ENERGY PREDICTED BY IDOCK:   67.18 KCAL/MOL
REMARK 923 INTER-LIGAND FREE ENERGY PREDICTED BY IDOCK:   -1.17 KCAL/MOL
REMARK 924 INTRA-LIGAND FREE ENERGY PREDICTED BY IDOCK:   68.34 KCAL/MOL
REMARK 927      BINDING AFFINITY PREDICTED BY RF-SCORE:    0.00 PKD
ROOT
HETATM    1  C   UNL     1      -7.756   2.834  71.997  1.00  0.00    -0.053 C  
HETATM    2  O   UNL     1      -7.113   2.148  70.933  1.00  0.00    -0.032 OA 
ENDROOT
BRANCH   2   3
HETATM    3  C   UNL     1      -6.963   2.831  69.755  1.00  0.00    -0.034 A  
HETATM    4  C   UNL     1      -7.040   4.216  69.551  1.00  0.00    -0.049 A  
HETATM    5  C   UNL     1      -6.890   4.723  68.254  1.00  0.00    -0.055 A  
HETATM    6  C   UNL     1      -6.793   1.983  68.650  1.00  0.00    -0.036 A  
HETATM    7  C   UNL     1      -6.687   2.495  67.356  1.00  0.00    -0.040 A  
HETATM    8  C   UNL     1      -6.774   3.869  67.155  1.00  0.00    -0.047 A  
BRANCH   4   9
HETATM    9  O   UNL     1      -7.258   5.054  70.615  1.00  0.00    -0.054 OA 
HETATM   10  C   UNL     1      -8.040   6.211  70.316  1.00  0.00    -0.112 C  
ENDBRANCH   4   9
BRANCH   8  11
HETATM   11  C   UNL     1      -6.754   4.441  65.765  1.00  0.00    -0.052 C  
BRANCH  11  12
HETATM   12  C   UNL     1      -7.465   5.778  65.667  1.00  0.00    -0.077 C  
BRANCH  12  13
HETATM   13  O   UNL     1      -8.527   5.846  66.620  1.00  0.00    -0.109 OA 
BRANCH  13  14
HETATM   14  C   UNL     1      -8.541   4.808  67.620  1.00  0.00    -0.103 C  
HETATM   15  C   UNL     1      -8.219   3.443  66.991  1.00  0.00    -0.091 C  
HETATM   16  C   UNL     1      -8.462   2.276  67.935  1.00  0.00    -0.094 C  
HETATM   17  C   UNL     1      -9.878   2.337  68.487  1.00  0.00     0.283 C  
HETATM   18  C   UNL     1     -10.045   3.593  69.338  1.00  0.00     0.539 C  
HETATM   19  C   UNL     1      -9.837   4.863  68.500  1.00  0.00    -0.141 C  
BRANCH  19  20
HETATM   20  N   UNL     1      -9.908   6.168  69.200  1.00  0.00    -0.141 NA 
HETATM   21  C   UNL     1      -8.813   7.108  68.947  1.00  0.00    -0.130 C  
HETATM   22  C   UNL     1      -7.791   6.857  70.043  1.00  0.00    -0.110 C  
HETATM   23  C   UNL     1      -8.616   6.350  71.220  1.00  0.00    -0.127 C  
HETATM   24  C   UNL     1     -10.017   6.085  70.658  1.00  0.00    -0.185 C  
HETATM   25  O   UNL     1      -8.645   7.333  72.250  1.00  0.00    -0.115 OA 
HETATM   26  H   UNL     1      -9.160   7.016  72.983  1.00  0.00     0.000 HD 
ENDBRANCH  19  20
ENDBRANCH  13  14
ENDBRANCH  12  13
ENDBRANCH  11  12
ENDBRANCH   8  11
ENDBRANCH   2   3
TORSDOF 7
ENDMDL
