MODEL        1
REMARK 921   NORMALIZED FREE ENERGY PREDICTED BY IDOCK:   -4.93 KCAL/MOL
REMARK 922        TOTAL FREE ENERGY PREDICTED BY IDOCK:   -9.44 KCAL/MOL
REMARK 923 INTER-LIGAND FREE ENERGY PREDICTED BY IDOCK:   -7.82 KCAL/MOL
REMARK 924 INTRA-LIGAND FREE ENERGY PREDICTED BY IDOCK:   -1.63 KCAL/MOL
REMARK 927      BINDING AFFINITY PREDICTED BY RF-SCORE:    0.00 PKD
ROOT
HETATM    1  C   UNL     1      -7.854   4.361  67.512  1.00  0.00    -0.085 C  
HETATM    2  O   UNL     1      -8.127   3.560  66.319  1.00  0.00    -0.091 OA 
ENDROOT
BRANCH   2   3
HETATM    3  C   UNL     1      -8.521   4.274  65.225  1.00  0.00    -0.115 C  
HETATM    4  O   UNL     1      -9.468   3.910  64.526  1.00  0.00    -0.145 OA 
BRANCH   3   5
HETATM    5  C   UNL     1      -7.713   5.584  64.863  1.00  0.00    -0.094 C  
BRANCH   5   6
HETATM    6  C   UNL     1      -8.426   6.909  64.506  1.00  0.00     0.187 C  
BRANCH   6   7
HETATM    7  C   UNL     1      -8.961   8.131  65.554  1.00  0.00    -0.082 A  
HETATM    8  C   UNL     1      -9.616   8.310  66.870  1.00  0.00    -0.207 A  
HETATM    9  N   UNL     1      -9.678   9.787  66.976  1.00  0.00    -0.175 NA 
HETATM   10  C   UNL     1      -9.053  10.591  65.940  1.00  0.00    -0.168 A  
HETATM   11  H   UNL     1     -10.150  10.232  67.763  1.00  0.00     0.000 HD 
HETATM   12  C   UNL     1      -8.559   9.572  65.070  1.00  0.00    -0.187 A  
HETATM   13  C   UNL     1      -9.179  12.248  65.836  1.00  0.00    -0.031 C  
HETATM   14  C   UNL     1      -7.691   9.779  63.827  1.00  0.00    -0.135 C  
HETATM   15  C   UNL     1      -8.437  13.340  66.390  1.00  0.00     0.465 C  
HETATM   16  N   UNL     1      -7.218  12.943  66.783  1.00  0.00     0.318 NA 
HETATM   17  C   UNL     1      -7.069  13.491  67.910  1.00  0.00    -0.140 C  
HETATM   18  C   UNL     1      -7.323  12.846  69.163  1.00  0.00     0.147 C  
HETATM   19  C   UNL     1      -7.339  14.871  67.850  1.00  0.00    -0.159 C  
HETATM   20  C   UNL     1      -6.235  15.497  68.305  1.00  0.00    -0.123 C  
HETATM   21  C   UNL     1      -6.942  11.583  69.188  1.00  0.00    -0.113 A  
HETATM   22  N   UNL     1      -7.539  10.773  70.111  1.00  0.00    -0.401 NA 
HETATM   23  C   UNL     1      -6.132  16.901  68.303  1.00  0.00    -0.133 C  
HETATM   24  C   UNL     1      -7.299  17.539  68.215  1.00  0.00    -0.223 C  
HETATM   25  C   UNL     1      -7.272   9.508  69.695  1.00  0.00    -0.076 A  
HETATM   26  H   UNL     1      -8.071  11.056  70.934  1.00  0.00     0.000 HD 
HETATM   27  C   UNL     1      -8.577  16.690  67.861  1.00  0.00    -0.196 C  
HETATM   28  C   UNL     1      -8.132   8.323  72.455  1.00  0.00    -0.204 C  
HETATM   29  C   UNL     1      -6.271   9.408  68.685  1.00  0.00    -0.044 A  
HETATM   30  C   UNL     1      -8.120   8.544  69.717  1.00  0.00    -0.116 C  
HETATM   31  C   UNL     1      -6.163  10.712  68.254  1.00  0.00    -0.050 A  
HETATM   32  C   UNL     1      -9.199   7.979  71.448  1.00  0.00    -0.180 C  
HETATM   33  C   UNL     1      -8.604  15.122  66.916  1.00  0.00    -0.289 C  
HETATM   34  C   UNL     1     -10.178   7.369  68.162  1.00  0.00    -0.223 C  
HETATM   35  C   UNL     1      -9.342   8.911  70.365  1.00  0.00    -0.193 C  
HETATM   36  C   UNL     1     -10.309   7.286  71.112  1.00  0.00    -0.207 C  
HETATM   37  C   UNL     1     -10.664   7.786  69.485  1.00  0.00    -0.198 C  
HETATM   38  N   UNL     1     -10.451   9.124  69.697  1.00  0.00    -0.217 NA 
HETATM   39  C   UNL     1      -5.739  10.952  66.866  1.00  0.00    -0.067 C  
HETATM   40  C   UNL     1     -10.146  14.928  67.174  1.00  0.00    -0.240 C  
BRANCH  24  41
HETATM   41  C   UNL     1      -7.142  18.958  68.670  1.00  0.00    -0.297 C  
HETATM   42  O   UNL     1      -7.816  19.438  69.577  1.00  0.00    -0.144 OA 
BRANCH  41  43
HETATM   43  O   UNL     1      -6.310  19.699  67.894  1.00  0.00    -0.207 OA 
HETATM   44  C   UNL     1      -7.012  20.703  67.130  1.00  0.00    -0.322 C  
ENDBRANCH  41  43
ENDBRANCH  24  41
BRANCH  27  45
HETATM   45  C   UNL     1      -9.427  17.727  67.157  1.00  0.00    -0.265 C  
HETATM   46  O   UNL     1      -9.180  18.193  66.053  1.00  0.00    -0.507 OA 
BRANCH  45  47
HETATM   47  O   UNL     1     -10.448  18.131  67.971  1.00  0.00    -0.377 OA 
HETATM   48  C   UNL     1     -10.628  19.546  68.035  1.00  0.00    -0.333 C  
ENDBRANCH  45  47
ENDBRANCH  27  45
BRANCH  29  49
HETATM   49  C   UNL     1      -6.034   8.238  67.824  1.00  0.00    -0.047 C  
HETATM   50  C   UNL     1      -5.218   7.215  68.078  1.00  0.00    -0.020 C  
ENDBRANCH  29  49
BRANCH  36  51
HETATM   51  C   UNL     1     -10.949   7.042  72.550  1.00  0.00    -0.298 C  
HETATM   52  C   UNL     1     -11.372   5.564  73.068  1.00  0.00    -0.323 C  
HETATM   53  C   UNL     1     -10.425   4.632  73.778  1.00  0.00    -0.238 C  
HETATM   54  O   UNL     1     -10.823   3.762  74.546  1.00  0.00    -0.133 OA 
HETATM   55  O   UNL     1      -9.141   4.706  73.392  1.00  0.00    -0.114 OA 
ENDBRANCH  36  51
ENDBRANCH   6   7
ENDBRANCH   5   6
ENDBRANCH   3   5
ENDBRANCH   2   3
TORSDOF 10
ENDMDL
MODEL        2
REMARK 921   NORMALIZED FREE ENERGY PREDICTED BY IDOCK:   -4.76 KCAL/MOL
REMARK 922        TOTAL FREE ENERGY PREDICTED BY IDOCK:   -9.16 KCAL/MOL
REMARK 923 INTER-LIGAND FREE ENERGY PREDICTED BY IDOCK:   -8.32 KCAL/MOL
REMARK 924 INTRA-LIGAND FREE ENERGY PREDICTED BY IDOCK:   -0.85 KCAL/MOL
REMARK 927      BINDING AFFINITY PREDICTED BY RF-SCORE:    0.00 PKD
ROOT
HETATM    1  C   UNL     1     -10.587   3.473  63.316  1.00  0.00    -0.245 C  
HETATM    2  O   UNL     1     -10.065   2.167  63.715  1.00  0.00    -0.140 OA 
ENDROOT
BRANCH   2   3
HETATM    3  C   UNL     1      -9.041   2.209  64.617  1.00  0.00    -0.125 C  
HETATM    4  O   UNL     1      -9.140   1.684  65.728  1.00  0.00    -0.120 OA 
BRANCH   3   5
HETATM    5  C   UNL     1      -7.719   2.971  64.205  1.00  0.00    -0.077 C  
BRANCH   5   6
HETATM    6  C   UNL     1      -7.204   4.196  64.995  1.00  0.00    -0.071 C  
BRANCH   6   7
HETATM    7  C   UNL     1      -8.103   5.333  65.875  1.00  0.00    -0.110 A  
HETATM    8  C   UNL     1      -8.807   5.489  67.170  1.00  0.00    -0.106 A  
HETATM    9  N   UNL     1      -9.316   6.878  67.070  1.00  0.00    -0.139 NA 
HETATM   10  C   UNL     1      -8.944   7.678  65.918  1.00  0.00    -0.103 A  
HETATM   11  H   UNL     1      -9.916   7.264  67.799  1.00  0.00     0.000 HD 
HETATM   12  C   UNL     1      -8.148   6.746  65.186  1.00  0.00    -0.132 A  
HETATM   13  C   UNL     1      -9.564   9.189  65.586  1.00  0.00    -0.287 C  
HETATM   14  C   UNL     1      -7.360   7.029  63.905  1.00  0.00    -0.084 C  
HETATM   15  C   UNL     1      -9.199  10.519  65.965  1.00  0.00    -0.176 C  
HETATM   16  N   UNL     1      -7.924  10.570  66.379  1.00  0.00    -0.131 NA 
HETATM   17  C   UNL     1      -7.970  11.290  67.415  1.00  0.00    -0.132 C  
HETATM   18  C   UNL     1      -8.040  10.780  68.751  1.00  0.00    -0.143 C  
HETATM   19  C   UNL     1      -8.644  12.500  67.169  1.00  0.00    -0.200 C  
HETATM   20  C   UNL     1      -7.790  13.488  67.506  1.00  0.00    -0.184 C  
HETATM   21  C   UNL     1      -7.296   9.709  68.943  1.00  0.00    -0.073 A  
HETATM   22  N   UNL     1      -7.636   8.893  69.983  1.00  0.00    -0.061 NA 
HETATM   23  C   UNL     1      -8.117  14.843  67.305  1.00  0.00    -0.234 C  
HETATM   24  C   UNL     1      -9.421  15.079  67.158  1.00  0.00    -0.223 C  
HETATM   25  C   UNL     1      -6.990   7.723  69.742  1.00  0.00    -0.047 A  
HETATM   26  H   UNL     1      -8.244   9.115  70.772  1.00  0.00     0.000 HD 
HETATM   27  C   UNL     1     -10.374  13.842  66.957  1.00  0.00    -0.267 C  
HETATM   28  C   UNL     1      -7.504   6.733  72.660  1.00  0.00    -0.091 C  
HETATM   29  C   UNL     1      -5.987   7.790  68.731  1.00  0.00    -0.035 A  
HETATM   30  C   UNL     1      -7.507   6.562  69.919  1.00  0.00    -0.088 C  
HETATM   31  C   UNL     1      -6.271   8.992  68.120  1.00  0.00    -0.054 A  
HETATM   32  C   UNL     1      -8.397   5.945  71.738  1.00  0.00    -0.119 C  
HETATM   33  C   UNL     1      -9.908  12.224  66.241  1.00  0.00    -0.254 C  
HETATM   34  C   UNL     1      -9.082   4.613  68.594  1.00  0.00    -0.156 C  
HETATM   35  C   UNL     1      -8.795   6.628  70.539  1.00  0.00    -0.152 C  
HETATM   36  C   UNL     1      -9.239   4.909  71.529  1.00  0.00    -0.185 C  
HETATM   37  C   UNL     1      -9.697   5.044  69.857  1.00  0.00    -0.196 C  
HETATM   38  N   UNL     1      -9.903   6.400  69.875  1.00  0.00    -0.166 NA 
HETATM   39  C   UNL     1      -5.913   9.152  66.702  1.00  0.00    -0.060 C  
HETATM   40  C   UNL     1     -11.322  11.610  66.561  1.00  0.00    -0.331 C  
BRANCH  24  41
HETATM   41  C   UNL     1      -9.709  16.528  67.406  1.00  0.00    -0.246 C  
HETATM   42  O   UNL     1      -9.410  17.406  66.600  1.00  0.00    -0.248 OA 
BRANCH  41  43
HETATM   43  O   UNL     1     -10.181  16.795  68.650  1.00  0.00    -0.260 OA 
HETATM   44  C   UNL     1     -10.010  18.179  69.023  1.00  0.00    -0.280 C  
ENDBRANCH  41  43
ENDBRANCH  24  41
BRANCH  27  45
HETATM   45  C   UNL     1     -11.485  14.464  66.136  1.00  0.00    -0.357 C  
HETATM   46  O   UNL     1     -12.616  14.679  66.550  1.00  0.00    -0.099 OA 
BRANCH  45  47
HETATM   47  O   UNL     1     -11.068  14.658  64.849  1.00  0.00    -0.366 OA 
HETATM   48  C   UNL     1     -11.439  15.920  64.293  1.00  0.00    -0.191 C  
ENDBRANCH  45  47
ENDBRANCH  27  45
BRANCH  29  49
HETATM   49  C   UNL     1      -5.390   6.638  68.037  1.00  0.00    -0.008 C  
HETATM   50  C   UNL     1      -5.165   5.429  68.549  1.00  0.00    -0.003 C  
ENDBRANCH  29  49
BRANCH  36  51
HETATM   51  C   UNL     1      -9.802   4.686  73.002  1.00  0.00    -0.175 C  
HETATM   52  C   UNL     1     -11.099   3.760  73.301  1.00  0.00    -0.262 C  
HETATM   53  C   UNL     1     -11.018   2.274  73.544  1.00  0.00    -0.191 C  
HETATM   54  O   UNL     1     -11.867   1.676  74.196  1.00  0.00    -0.040 OA 
HETATM   55  O   UNL     1     -10.054   1.628  72.868  1.00  0.00    -0.094 OA 
ENDBRANCH  36  51
ENDBRANCH   6   7
ENDBRANCH   5   6
ENDBRANCH   3   5
ENDBRANCH   2   3
TORSDOF 10
ENDMDL
MODEL        3
REMARK 921   NORMALIZED FREE ENERGY PREDICTED BY IDOCK:   -4.09 KCAL/MOL
REMARK 922        TOTAL FREE ENERGY PREDICTED BY IDOCK:   -8.10 KCAL/MOL
REMARK 923 INTER-LIGAND FREE ENERGY PREDICTED BY IDOCK:   -6.66 KCAL/MOL
REMARK 924 INTRA-LIGAND FREE ENERGY PREDICTED BY IDOCK:   -1.44 KCAL/MOL
REMARK 927      BINDING AFFINITY PREDICTED BY RF-SCORE:    0.00 PKD
ROOT
HETATM    1  C   UNL     1      -7.817   4.370  67.675  1.00  0.00    -0.085 C  
HETATM    2  O   UNL     1      -8.141   3.636  66.452  1.00  0.00    -0.098 OA 
ENDROOT
BRANCH   2   3
HETATM    3  C   UNL     1      -8.557   4.413  65.409  1.00  0.00    -0.122 C  
HETATM    4  O   UNL     1      -9.677   4.280  64.914  1.00  0.00    -0.170 OA 
BRANCH   3   5
HETATM    5  C   UNL     1      -7.548   5.486  64.835  1.00  0.00    -0.078 C  
BRANCH   5   6
HETATM    6  C   UNL     1      -8.008   6.910  64.443  1.00  0.00    -0.093 C  
BRANCH   6   7
HETATM    7  C   UNL     1      -8.584   8.143  65.455  1.00  0.00    -0.154 A  
HETATM    8  C   UNL     1      -9.376   8.339  66.691  1.00  0.00    -0.192 A  
HETATM    9  N   UNL     1      -9.358   9.815  66.829  1.00  0.00    -0.148 NA 
HETATM   10  C   UNL     1      -8.568  10.596  65.894  1.00  0.00    -0.172 A  
HETATM   11  H   UNL     1      -9.891  10.274  67.567  1.00  0.00     0.000 HD 
HETATM   12  C   UNL     1      -8.039   9.565  65.060  1.00  0.00    -0.125 A  
HETATM   13  C   UNL     1      -8.577  12.260  65.820  1.00  0.00     0.580 C  
HETATM   14  C   UNL     1      -7.021   9.739  63.930  1.00  0.00    -0.119 C  
HETATM   15  C   UNL     1      -7.839  13.290  66.485  1.00  0.00     0.913 C  
HETATM   16  N   UNL     1      -6.701  12.808  67.005  1.00  0.00    -0.063 NA 
HETATM   17  C   UNL     1      -6.651  13.323  68.156  1.00  0.00    -0.115 C  
HETATM   18  C   UNL     1      -7.090  12.671  69.354  1.00  0.00     0.183 C  
HETATM   19  C   UNL     1      -6.826  14.719  68.102  1.00  0.00    -0.130 C  
HETATM   20  C   UNL     1      -5.746  15.263  68.698  1.00  0.00    -0.089 C  
HETATM   21  C   UNL     1      -6.794  11.387  69.389  1.00  0.00    -0.112 A  
HETATM   22  N   UNL     1      -7.544  10.599  70.214  1.00  0.00    -0.407 NA 
HETATM   23  C   UNL     1      -5.556  16.657  68.745  1.00  0.00    -0.124 C  
HETATM   24  C   UNL     1      -6.664  17.371  68.541  1.00  0.00    -0.195 C  
HETATM   25  C   UNL     1      -7.309   9.328  69.799  1.00  0.00    -0.072 A  
HETATM   26  H   UNL     1      -8.149  10.901  70.978  1.00  0.00     0.000 HD 
HETATM   27  C   UNL     1      -7.941  16.614  68.018  1.00  0.00    -0.173 C  
HETATM   28  C   UNL     1      -8.558   8.148  72.408  1.00  0.00    -0.245 C  
HETATM   29  C   UNL     1      -6.205   9.183  68.908  1.00  0.00    -0.044 A  
HETATM   30  C   UNL     1      -8.212   8.421  69.697  1.00  0.00    -0.117 C  
HETATM   31  C   UNL     1      -5.966  10.485  68.528  1.00  0.00    -0.043 A  
HETATM   32  C   UNL     1      -9.519   7.894  71.276  1.00  0.00    -0.184 C  
HETATM   33  C   UNL     1      -7.956  15.069  67.036  1.00  0.00    -0.197 C  
HETATM   34  C   UNL     1     -10.143   7.412  67.884  1.00  0.00    -0.220 C  
HETATM   35  C   UNL     1      -9.477   8.854  70.209  1.00  0.00    -0.187 C  
HETATM   36  C   UNL     1     -10.623   7.281  70.796  1.00  0.00    -0.237 C  
HETATM   37  C   UNL     1     -10.754   7.834  69.152  1.00  0.00    -0.126 C  
HETATM   38  N   UNL     1     -10.484   9.151  69.423  1.00  0.00    -0.216 NA 
HETATM   39  C   UNL     1      -5.368  10.724  67.205  1.00  0.00    -0.042 C  
HETATM   40  C   UNL     1      -9.525  14.970  67.108  1.00  0.00    -0.223 C  
BRANCH  24  41
HETATM   41  C   UNL     1      -6.472  18.768  69.048  1.00  0.00    -0.272 C  
HETATM   42  O   UNL     1      -7.266  19.303  69.817  1.00  0.00    -0.100 OA 
BRANCH  41  43
HETATM   43  O   UNL     1      -5.442  19.433  68.465  1.00  0.00    -0.192 OA 
HETATM   44  C   UNL     1      -5.820  20.749  68.008  1.00  0.00    -0.296 C  
ENDBRANCH  41  43
ENDBRANCH  24  41
BRANCH  27  45
HETATM   45  C   UNL     1      -8.637  17.717  67.249  1.00  0.00    -0.233 C  
HETATM   46  O   UNL     1      -8.387  18.018  66.090  1.00  0.00    -0.440 OA 
BRANCH  45  47
HETATM   47  O   UNL     1      -9.509  18.382  68.064  1.00  0.00    -0.275 OA 
HETATM   48  C   UNL     1     -10.743  18.740  67.441  1.00  0.00    -0.424 C  
ENDBRANCH  45  47
ENDBRANCH  27  45
BRANCH  29  49
HETATM   49  C   UNL     1      -5.942   8.016  68.050  1.00  0.00    -0.042 C  
HETATM   50  C   UNL     1      -5.220   6.942  68.366  1.00  0.00    -0.016 C  
ENDBRANCH  29  49
BRANCH  36  51
HETATM   51  C   UNL     1     -11.441   7.051  72.143  1.00  0.00    -0.312 C  
HETATM   52  C   UNL     1     -12.224   8.255  72.895  1.00  0.00     0.034 C  
HETATM   53  C   UNL     1     -13.645   8.646  72.578  1.00  0.00    -0.296 C  
HETATM   54  O   UNL     1     -14.366   9.199  73.402  1.00  0.00    -0.067 OA 
HETATM   55  O   UNL     1     -14.013   8.500  71.294  1.00  0.00    -0.294 OA 
ENDBRANCH  36  51
ENDBRANCH   6   7
ENDBRANCH   5   6
ENDBRANCH   3   5
ENDBRANCH   2   3
TORSDOF 10
ENDMDL
MODEL        4
REMARK 921   NORMALIZED FREE ENERGY PREDICTED BY IDOCK:    9.18 KCAL/MOL
REMARK 922        TOTAL FREE ENERGY PREDICTED BY IDOCK:   12.93 KCAL/MOL
REMARK 923 INTER-LIGAND FREE ENERGY PREDICTED BY IDOCK:   11.95 KCAL/MOL
REMARK 924 INTRA-LIGAND FREE ENERGY PREDICTED BY IDOCK:    0.97 KCAL/MOL
REMARK 927      BINDING AFFINITY PREDICTED BY RF-SCORE:    0.00 PKD
ROOT
HETATM    1  C   UNL     1      -8.630  15.752  71.194  1.00  0.00     3.973 C  
HETATM    2  O   UNL     1      -8.197  14.357  71.269  1.00  0.00     3.012 OA 
ENDROOT
BRANCH   2   3
HETATM    3  C   UNL     1      -6.893  14.180  71.632  1.00  0.00     2.029 C  
HETATM    4  O   UNL     1      -6.297  15.013  72.318  1.00  0.00     0.941 OA 
BRANCH   3   5
HETATM    5  C   UNL     1      -6.154  12.876  71.131  1.00  0.00     0.643 C  
BRANCH   5   6
HETATM    6  C   UNL     1      -6.743  11.465  71.364  1.00  0.00     2.965 C  
BRANCH   6   7
HETATM    7  C   UNL     1      -7.617  10.498  70.279  1.00  0.00     0.371 A  
HETATM    8  C   UNL     1      -8.828  10.536  69.426  1.00  0.00    -0.075 A  
HETATM    9  N   UNL     1      -8.798   9.191  68.803  1.00  0.00    -0.132 NA 
HETATM   10  C   UNL     1      -7.664   8.323  69.066  1.00  0.00    -0.098 A  
HETATM   11  H   UNL     1      -9.560   8.882  68.200  1.00  0.00     0.000 HD 
HETATM   12  C   UNL     1      -6.895   9.142  69.946  1.00  0.00    -0.052 A  
HETATM   13  C   UNL     1      -7.566   6.734  68.573  1.00  0.00    -0.104 C  
HETATM   14  C   UNL     1      -5.503   8.827  70.499  1.00  0.00    -0.027 C  
HETATM   15  C   UNL     1      -7.109   6.089  67.380  1.00  0.00    -0.074 C  
HETATM   16  N   UNL     1      -6.298   6.893  66.678  1.00  0.00    -0.044 NA 
HETATM   17  C   UNL     1      -6.689   6.753  65.486  1.00  0.00    -0.051 C  
HETATM   18  C   UNL     1      -7.599   7.638  64.824  1.00  0.00    -0.105 C  
HETATM   19  C   UNL     1      -6.762   5.394  65.127  1.00  0.00    -0.044 C  
HETATM   20  C   UNL     1      -5.987   5.245  64.033  1.00  0.00    -0.021 C  
HETATM   21  C   UNL     1      -7.402   8.908  65.119  1.00  0.00    -0.092 A  
HETATM   22  N   UNL     1      -8.455   9.758  64.939  1.00  0.00    -0.145 NA 
HETATM   23  C   UNL     1      -5.767   3.981  63.454  1.00  0.00    -0.013 C  
HETATM   24  C   UNL     1      -6.666   3.056  63.793  1.00  0.00    -0.032 C  
HETATM   25  C   UNL     1      -8.133  10.874  65.643  1.00  0.00    -0.060 A  
HETATM   26  H   UNL     1      -9.301   9.591  64.394  1.00  0.00     0.000 HD 
HETATM   27  C   UNL     1      -7.661   3.392  64.965  1.00  0.00    -0.081 C  
HETATM   28  C   UNL     1     -10.375  12.525  64.226  1.00  0.00    -0.396 C  
HETATM   29  C   UNL     1      -6.773  10.944  66.065  1.00  0.00    -0.073 A  
HETATM   30  C   UNL     1      -8.961  11.539  66.364  1.00  0.00    -0.200 C  
HETATM   31  C   UNL     1      -6.341   9.650  65.871  1.00  0.00    -0.077 A  
HETATM   32  C   UNL     1     -10.814  12.266  65.644  1.00  0.00    -0.321 C  
HETATM   33  C   UNL     1      -7.353   4.556  66.344  1.00  0.00    -0.081 C  
HETATM   34  C   UNL     1     -10.050  11.621  68.980  1.00  0.00    -0.034 C  
HETATM   35  C   UNL     1     -10.303  11.060  66.232  1.00  0.00    -0.251 C  
HETATM   36  C   UNL     1     -11.660  12.509  66.668  1.00  0.00    -0.442 C  
HETATM   37  C   UNL     1     -11.097  11.487  67.957  1.00  0.00    -0.254 C  
HETATM   38  N   UNL     1     -10.897  10.375  67.180  1.00  0.00    -0.264 NA 
HETATM   39  C   UNL     1      -5.254   9.145  66.723  1.00  0.00    -0.038 C  
HETATM   40  C   UNL     1      -8.824   4.395  66.884  1.00  0.00    -0.114 C  
BRANCH  24  41
HETATM   41  C   UNL     1      -6.628   1.924  62.813  1.00  0.00    -0.017 C  
HETATM   42  O   UNL     1      -5.576   1.478  62.362  1.00  0.00    -0.003 OA 
BRANCH  41  43
HETATM   43  O   UNL     1      -7.849   1.547  62.354  1.00  0.00    -0.044 OA 
HETATM   44  C   UNL     1      -8.800   2.633  62.351  1.00  0.00    -0.074 C  
ENDBRANCH  41  43
ENDBRANCH  24  41
BRANCH  27  45
HETATM   45  C   UNL     1      -7.940   2.008  65.515  1.00  0.00    -0.074 C  
HETATM   46  O   UNL     1      -9.038   1.471  65.515  1.00  0.00    -0.124 OA 
BRANCH  45  47
HETATM   47  O   UNL     1      -6.811   1.495  66.090  1.00  0.00    -0.032 OA 
HETATM   48  C   UNL     1      -6.730   1.686  67.503  1.00  0.00    -0.032 C  
ENDBRANCH  45  47
ENDBRANCH  27  45
BRANCH  29  49
HETATM   49  C   UNL     1      -6.243  11.837  67.108  1.00  0.00    -0.147 C  
HETATM   50  C   UNL     1      -6.572  13.112  67.308  1.00  0.00     0.042 C  
ENDBRANCH  29  49
BRANCH  36  51
HETATM   51  C   UNL     1     -12.958  12.975  65.871  1.00  0.00     0.512 C  
HETATM   52  C   UNL     1     -13.295  14.539  65.606  1.00  0.00     0.730 C  
HETATM   53  C   UNL     1     -12.783  15.307  64.414  1.00  0.00     0.362 C  
HETATM   54  O   UNL     1     -13.370  16.289  63.973  1.00  0.00     0.832 OA 
HETATM   55  O   UNL     1     -11.566  14.948  63.973  1.00  0.00    -0.114 OA 
ENDBRANCH  36  51
ENDBRANCH   6   7
ENDBRANCH   5   6
ENDBRANCH   3   5
ENDBRANCH   2   3
TORSDOF 10
ENDMDL
MODEL        5
REMARK 921   NORMALIZED FREE ENERGY PREDICTED BY IDOCK:   26.90 KCAL/MOL
REMARK 922        TOTAL FREE ENERGY PREDICTED BY IDOCK:   41.00 KCAL/MOL
REMARK 923 INTER-LIGAND FREE ENERGY PREDICTED BY IDOCK:   41.87 KCAL/MOL
REMARK 924 INTRA-LIGAND FREE ENERGY PREDICTED BY IDOCK:   -0.86 KCAL/MOL
REMARK 927      BINDING AFFINITY PREDICTED BY RF-SCORE:    0.00 PKD
ROOT
HETATM    1  C   UNL     1     -10.354  20.680  63.172  1.00  0.00     9.994 C  
HETATM    2  O   UNL     1      -9.623  19.996  64.238  1.00  0.00     3.056 OA 
ENDROOT
BRANCH   2   3
HETATM    3  C   UNL     1     -10.343  19.052  64.913  1.00  0.00     2.150 C  
HETATM    4  O   UNL     1     -11.242  19.366  65.695  1.00  0.00    -0.183 OA 
BRANCH   3   5
HETATM    5  C   UNL     1      -9.978  17.532  64.678  1.00  0.00     3.353 C  
BRANCH   5   6
HETATM    6  C   UNL     1      -8.713  16.893  65.294  1.00  0.00     1.804 C  
BRANCH   6   7
HETATM    7  C   UNL     1      -8.611  15.557  66.335  1.00  0.00    -0.292 A  
HETATM    8  C   UNL     1      -8.915  15.162  67.731  1.00  0.00    -0.178 A  
HETATM    9  N   UNL     1      -8.479  13.746  67.743  1.00  0.00    -0.167 NA 
HETATM   10  C   UNL     1      -8.024  13.142  66.504  1.00  0.00     0.718 A  
HETATM   11  H   UNL     1      -8.499  13.204  68.607  1.00  0.00     0.000 HD 
HETATM   12  C   UNL     1      -8.146  14.244  65.605  1.00  0.00     3.644 A  
HETATM   13  C   UNL     1      -7.354  11.620  66.393  1.00  0.00     0.126 C  
HETATM   14  C   UNL     1      -7.919  14.216  64.092  1.00  0.00    13.728 C  
HETATM   15  C   UNL     1      -7.893  10.306  66.218  1.00  0.00    -0.118 C  
HETATM   16  N   UNL     1      -9.132  10.357  65.709  1.00  0.00    -0.161 NA 
HETATM   17  C   UNL     1      -9.777   9.516  66.394  1.00  0.00    -0.232 C  
HETATM   18  C   UNL     1     -10.584   9.846  67.530  1.00  0.00    -0.333 C  
HETATM   19  C   UNL     1      -9.118   8.273  66.433  1.00  0.00    -0.226 C  
HETATM   20  C   UNL     1      -9.997   7.359  65.974  1.00  0.00     0.352 C  
HETATM   21  C   UNL     1     -11.263  10.967  67.382  1.00  0.00    -0.273 A  
HETATM   22  N   UNL     1     -11.668  11.602  68.520  1.00  0.00    -0.344 NA 
HETATM   23  C   UNL     1      -9.634   6.010  65.801  1.00  0.00     0.134 C  
HETATM   24  C   UNL     1      -8.548   5.641  66.481  1.00  0.00    -0.119 C  
HETATM   25  C   UNL     1     -11.991  12.861  68.126  1.00  0.00    -0.261 A  
HETATM   26  H   UNL     1     -11.719  11.215  69.462  1.00  0.00     0.000 HD 
HETATM   27  C   UNL     1      -7.678   6.771  67.147  1.00  0.00    -0.104 C  
HETATM   28  C   UNL     1     -13.479  13.419  70.816  1.00  0.00     0.333 C  
HETATM   29  C   UNL     1     -12.100  13.038  66.716  1.00  0.00    -0.366 A  
HETATM   30  C   UNL     1     -11.699  13.923  68.786  1.00  0.00    -0.392 C  
HETATM   31  C   UNL     1     -11.502  11.896  66.233  1.00  0.00    -0.367 A  
HETATM   32  C   UNL     1     -12.192  14.203  70.826  1.00  0.00    -0.435 C  
HETATM   33  C   UNL     1      -7.551   8.509  66.587  1.00  0.00    -0.082 C  
HETATM   34  C   UNL     1      -9.618  15.818  69.126  1.00  0.00    -0.255 C  
HETATM   35  C   UNL     1     -11.120  13.628  70.062  1.00  0.00     0.238 C  
HETATM   36  C   UNL     1     -11.404  15.149  71.381  1.00  0.00    -0.380 C  
HETATM   37  C   UNL     1      -9.973  15.166  70.393  1.00  0.00     0.290 C  
HETATM   38  N   UNL     1      -9.844  13.803  70.308  1.00  0.00     2.155 NA 
HETATM   39  C   UNL     1     -10.858  11.954  64.912  1.00  0.00    -0.356 C  
HETATM   40  C   UNL     1      -6.674   8.907  67.833  1.00  0.00    -0.069 C  
BRANCH  24  41
HETATM   41  C   UNL     1      -8.505   4.148  66.604  1.00  0.00    -0.104 C  
HETATM   42  O   UNL     1      -8.601   3.405  65.631  1.00  0.00    -0.109 OA 
BRANCH  41  43
HETATM   43  O   UNL     1      -8.510   3.698  67.884  1.00  0.00    -0.090 OA 
HETATM   44  C   UNL     1      -8.074   2.325  67.990  1.00  0.00    -0.058 C  
ENDBRANCH  41  43
ENDBRANCH  24  41
BRANCH  27  45
HETATM   45  C   UNL     1      -6.307   6.127  67.132  1.00  0.00    -0.041 C  
HETATM   46  O   UNL     1      -5.743   5.674  68.119  1.00  0.00    -0.011 OA 
BRANCH  45  47
HETATM   47  O   UNL     1      -5.759   6.213  65.883  1.00  0.00    -0.022 OA 
HETATM   48  C   UNL     1      -5.140   5.010  65.426  1.00  0.00    -0.012 C  
ENDBRANCH  45  47
ENDBRANCH  27  45
BRANCH  29  49
HETATM   49  C   UNL     1     -12.092  14.329  66.010  1.00  0.00    -0.423 C  
HETATM   50  C   UNL     1     -12.373  14.536  64.724  1.00  0.00    -0.403 C  
ENDBRANCH  29  49
BRANCH  36  51
HETATM   51  C   UNL     1     -11.928  15.121  72.885  1.00  0.00    -0.470 C  
HETATM   52  C   UNL     1     -12.327  16.473  73.687  1.00  0.00    -0.494 C  
HETATM   53  C   UNL     1     -13.704  17.085  73.647  1.00  0.00     2.111 C  
HETATM   54  O   UNL     1     -14.129  17.789  74.557  1.00  0.00     3.710 OA 
HETATM   55  O   UNL     1     -14.366  16.946  72.486  1.00  0.00     1.900 OA 
ENDBRANCH  36  51
ENDBRANCH   6   7
ENDBRANCH   5   6
ENDBRANCH   3   5
ENDBRANCH   2   3
TORSDOF 10
ENDMDL
MODEL        6
REMARK 921   NORMALIZED FREE ENERGY PREDICTED BY IDOCK:   39.17 KCAL/MOL
REMARK 922        TOTAL FREE ENERGY PREDICTED BY IDOCK:   60.44 KCAL/MOL
REMARK 923 INTER-LIGAND FREE ENERGY PREDICTED BY IDOCK:   54.44 KCAL/MOL
REMARK 924 INTRA-LIGAND FREE ENERGY PREDICTED BY IDOCK:    6.00 KCAL/MOL
REMARK 927      BINDING AFFINITY PREDICTED BY RF-SCORE:    0.00 PKD
ROOT
HETATM    1  C   UNL     1      -8.658   6.021  66.130  1.00  0.00    -0.142 C  
HETATM    2  O   UNL     1      -9.074   5.332  64.910  1.00  0.00    -0.104 OA 
ENDROOT
BRANCH   2   3
HETATM    3  C   UNL     1      -8.953   6.066  63.766  1.00  0.00     0.708 C  
HETATM    4  O   UNL     1      -9.544   5.749  62.732  1.00  0.00     0.794 OA 
BRANCH   3   5
HETATM    5  C   UNL     1      -8.013   7.336  63.795  1.00  0.00    -0.078 C  
BRANCH   5   6
HETATM    6  C   UNL     1      -8.582   8.770  63.891  1.00  0.00    -0.063 C  
BRANCH   6   7
HETATM    7  C   UNL     1      -9.504   9.454  65.141  1.00  0.00    -0.255 A  
HETATM    8  C   UNL     1     -10.382   9.061  66.267  1.00  0.00    -0.060 A  
HETATM    9  N   UNL     1     -10.746  10.380  66.838  1.00  0.00    -0.236 NA 
HETATM   10  C   UNL     1     -10.132  11.575  66.286  1.00  0.00    -0.226 A  
HETATM   11  H   UNL     1     -11.415  10.447  67.605  1.00  0.00     0.000 HD 
HETATM   12  C   UNL     1      -9.318  11.011  65.259  1.00  0.00    -0.245 A  
HETATM   13  C   UNL     1     -10.559  13.129  66.709  1.00  0.00    -0.267 C  
HETATM   14  C   UNL     1      -8.320  11.761  64.372  1.00  0.00     1.424 C  
HETATM   15  C   UNL     1     -10.142  14.030  67.739  1.00  0.00    -0.240 C  
HETATM   16  N   UNL     1      -8.947  13.676  68.234  1.00  0.00    -0.189 NA 
HETATM   17  C   UNL     1      -9.088  13.794  69.483  1.00  0.00     1.046 C  
HETATM   18  C   UNL     1      -9.408  12.713  70.366  1.00  0.00     5.582 C  
HETATM   19  C   UNL     1      -9.608  15.057  69.823  1.00  0.00     0.022 C  
HETATM   20  C   UNL     1      -8.733  15.609  70.688  1.00  0.00     1.987 C  
HETATM   21  C   UNL     1      -8.799  11.585  70.056  1.00  0.00     2.365 A  
HETATM   22  N   UNL     1      -9.365  10.428  70.507  1.00  0.00     0.036 NA 
HETATM   23  C   UNL     1      -8.906  16.921  71.171  1.00  0.00     6.724 C  
HETATM   24  C   UNL     1     -10.146  17.395  71.047  1.00  0.00     3.238 C  
HETATM   25  C   UNL     1      -8.795   9.443  69.766  1.00  0.00    -0.183 A  
HETATM   26  H   UNL     1     -10.066  10.326  71.241  1.00  0.00     0.000 HD 
HETATM   27  C   UNL     1     -11.161  16.577  70.165  1.00  0.00    -0.151 C  
HETATM   28  C   UNL     1      -9.837   7.243  71.724  1.00  0.00    -0.175 C  
HETATM   29  C   UNL     1      -7.646   9.842  69.022  1.00  0.00    -0.086 A  
HETATM   30  C   UNL     1      -9.432   8.438  69.285  1.00  0.00    -0.155 C  
HETATM   31  C   UNL     1      -7.726  11.216  69.079  1.00  0.00    -0.114 A  
HETATM   32  C   UNL     1     -10.643   7.154  70.455  1.00  0.00    -0.242 C  
HETATM   33  C   UNL     1     -10.733  15.466  68.774  1.00  0.00    -0.241 C  
HETATM   34  C   UNL     1     -10.949   7.654  67.022  1.00  0.00    -0.042 C  
HETATM   35  C   UNL     1     -10.790   8.389  69.736  1.00  0.00    -0.183 C  
HETATM   36  C   UNL     1     -11.529   6.496  69.677  1.00  0.00    -0.417 C  
HETATM   37  C   UNL     1     -11.711   7.500  68.269  1.00  0.00     1.545 C  
HETATM   38  N   UNL     1     -11.798   8.687  68.951  1.00  0.00     1.478 NA 
HETATM   39  C   UNL     1      -7.141  11.992  67.975  1.00  0.00    -0.086 C  
HETATM   40  C   UNL     1     -12.228  14.999  68.612  1.00  0.00    -0.085 C  
BRANCH  24  41
HETATM   41  C   UNL     1     -10.341  18.562  71.967  1.00  0.00     4.191 C  
HETATM   42  O   UNL     1     -11.262  18.614  72.777  1.00  0.00     1.922 OA 
BRANCH  41  43
HETATM   43  O   UNL     1      -9.514  19.608  71.716  1.00  0.00     2.532 OA 
HETATM   44  C   UNL     1      -9.936  20.388  70.577  1.00  0.00     1.352 C  
ENDBRANCH  41  43
ENDBRANCH  24  41
BRANCH  27  45
HETATM   45  C   UNL     1     -12.074  17.683  69.675  1.00  0.00     5.262 C  
HETATM   46  O   UNL     1     -13.194  17.901  70.113  1.00  0.00    12.763 OA 
BRANCH  45  47
HETATM   47  O   UNL     1     -11.502  18.332  68.617  1.00  0.00     1.188 OA 
HETATM   48  C   UNL     1     -11.303  17.515  67.462  1.00  0.00     0.488 C  
ENDBRANCH  45  47
ENDBRANCH  27  45
BRANCH  29  49
HETATM   49  C   UNL     1      -7.052   9.101  67.898  1.00  0.00    -0.079 C  
HETATM   50  C   UNL     1      -5.760   8.833  67.713  1.00  0.00    -0.039 C  
ENDBRANCH  29  49
BRANCH  36  51
HETATM   51  C   UNL     1     -12.329   5.670  70.778  1.00  0.00     2.146 C  
HETATM   52  C   UNL     1     -11.578   4.796  71.919  1.00  0.00     0.907 C  
HETATM   53  C   UNL     1     -11.142   5.364  73.246  1.00  0.00    -0.297 C  
HETATM   54  O   UNL     1     -11.009   4.660  74.241  1.00  0.00    -0.314 OA 
HETATM   55  O   UNL     1     -10.753   6.649  73.226  1.00  0.00    -0.265 OA 
ENDBRANCH  36  51
ENDBRANCH   6   7
ENDBRANCH   5   6
ENDBRANCH   3   5
ENDBRANCH   2   3
TORSDOF 10
ENDMDL
MODEL        7
REMARK 921   NORMALIZED FREE ENERGY PREDICTED BY IDOCK:   54.36 KCAL/MOL
REMARK 922        TOTAL FREE ENERGY PREDICTED BY IDOCK:   84.52 KCAL/MOL
REMARK 923 INTER-LIGAND FREE ENERGY PREDICTED BY IDOCK:   80.78 KCAL/MOL
REMARK 924 INTRA-LIGAND FREE ENERGY PREDICTED BY IDOCK:    3.74 KCAL/MOL
REMARK 927      BINDING AFFINITY PREDICTED BY RF-SCORE:    0.00 PKD
ROOT
HETATM    1  C   UNL     1      -7.746   3.345  66.288  1.00  0.00    -0.078 C  
HETATM    2  O   UNL     1      -8.768   3.056  65.283  1.00  0.00    -0.107 OA 
ENDROOT
BRANCH   2   3
HETATM    3  C   UNL     1      -9.587   4.104  64.978  1.00  0.00    -0.180 C  
HETATM    4  O   UNL     1     -10.724   4.189  65.445  1.00  0.00    -0.153 OA 
BRANCH   3   5
HETATM    5  C   UNL     1      -9.042   5.208  63.987  1.00  0.00     0.160 C  
BRANCH   5   6
HETATM    6  C   UNL     1      -9.931   6.374  63.496  1.00  0.00     4.302 C  
BRANCH   6   7
HETATM    7  C   UNL     1     -10.737   7.544  64.423  1.00  0.00    10.082 A  
HETATM    8  C   UNL     1     -11.585   7.668  65.632  1.00  0.00     7.365 A  
HETATM    9  N   UNL     1     -11.823   9.130  65.683  1.00  0.00     5.642 NA 
HETATM   10  C   UNL     1     -11.152   9.983  64.718  1.00  0.00     2.477 A  
HETATM   11  H   UNL     1     -12.446   9.530  66.384  1.00  0.00     0.000 HD 
HETATM   12  C   UNL     1     -10.433   9.014  63.955  1.00  0.00     5.315 A  
HETATM   13  C   UNL     1     -11.444  11.614  64.546  1.00  0.00    -0.272 C  
HETATM   14  C   UNL     1      -9.429   9.299  62.835  1.00  0.00     0.690 C  
HETATM   15  C   UNL     1     -10.911  12.790  65.163  1.00  0.00    -0.293 C  
HETATM   16  N   UNL     1      -9.722  12.541  65.730  1.00  0.00    -0.227 NA 
HETATM   17  C   UNL     1      -9.792  13.119  66.850  1.00  0.00    -0.249 C  
HETATM   18  C   UNL     1     -10.145  12.468  68.075  1.00  0.00    -0.220 C  
HETATM   19  C   UNL     1     -10.202  14.458  66.710  1.00  0.00    -0.270 C  
HETATM   20  C   UNL     1      -9.247  15.212  67.293  1.00  0.00    -0.208 C  
HETATM   21  C   UNL     1      -9.636  11.258  68.191  1.00  0.00    -0.186 A  
HETATM   22  N   UNL     1     -10.262  10.399  69.048  1.00  0.00    -0.204 NA 
HETATM   23  C   UNL     1      -9.300  16.619  67.261  1.00  0.00    -0.234 C  
HETATM   24  C   UNL     1     -10.507  17.119  66.996  1.00  0.00    -0.282 C  
HETATM   25  C   UNL     1      -9.802   9.166  68.712  1.00  0.00    -0.167 A  
HETATM   26  H   UNL     1     -10.930  10.633  69.782  1.00  0.00     0.000 HD 
HETATM   27  C   UNL     1     -11.621  16.126  66.497  1.00  0.00     0.711 C  
HETATM   28  C   UNL     1     -10.902   7.933  71.363  1.00  0.00    -0.259 C  
HETATM   29  C   UNL     1      -8.665   9.165  67.851  1.00  0.00    -0.128 A  
HETATM   30  C   UNL     1     -10.533   8.113  68.648  1.00  0.00    -0.195 C  
HETATM   31  C   UNL     1      -8.642  10.466  67.399  1.00  0.00    -0.125 A  
HETATM   32  C   UNL     1     -11.774   7.456  70.232  1.00  0.00    -0.100 C  
HETATM   33  C   UNL     1     -11.345  14.551  65.606  1.00  0.00    -0.336 C  
HETATM   34  C   UNL     1     -12.214   6.689  66.864  1.00  0.00     4.025 C  
HETATM   35  C   UNL     1     -11.867   8.349  69.112  1.00  0.00     1.561 C  
HETATM   36  C   UNL     1     -12.743   6.637  69.769  1.00  0.00     1.953 C  
HETATM   37  C   UNL     1     -12.922   7.068  68.094  1.00  0.00     9.642 C  
HETATM   38  N   UNL     1     -12.889   8.425  68.292  1.00  0.00     7.656 NA 
HETATM   39  C   UNL     1      -8.059  10.731  66.075  1.00  0.00    -0.158 C  
HETATM   40  C   UNL     1     -12.876  14.187  65.657  1.00  0.00    -0.402 C  
BRANCH  24  41
HETATM   41  C   UNL     1     -10.571  18.554  67.423  1.00  0.00    -0.424 C  
HETATM   42  O   UNL     1     -11.528  19.277  67.159  1.00  0.00     0.060 OA 
BRANCH  41  43
HETATM   43  O   UNL     1      -9.424  19.017  67.983  1.00  0.00    -0.299 OA 
HETATM   44  C   UNL     1      -9.629  19.539  69.313  1.00  0.00    -0.206 C  
ENDBRANCH  41  43
ENDBRANCH  24  41
BRANCH  27  45
HETATM   45  C   UNL     1     -12.475  17.049  65.652  1.00  0.00     5.110 C  
HETATM   46  O   UNL     1     -13.682  17.192  65.785  1.00  0.00     9.988 OA 
BRANCH  45  47
HETATM   47  O   UNL     1     -11.718  17.619  64.667  1.00  0.00     0.399 OA 
HETATM   48  C   UNL     1     -11.419  16.750  63.575  1.00  0.00     3.724 C  
ENDBRANCH  45  47
ENDBRANCH  27  45
BRANCH  29  49
HETATM   49  C   UNL     1      -8.183   8.016  67.067  1.00  0.00    -0.116 C  
HETATM   50  C   UNL     1      -6.954   7.839  66.587  1.00  0.00    -0.071 C  
ENDBRANCH  29  49
BRANCH  36  51
HETATM   51  C   UNL     1     -13.546   6.343  71.113  1.00  0.00     0.880 C  
HETATM   52  C   UNL     1     -12.907   5.484  72.331  1.00  0.00     0.808 C  
HETATM   53  C   UNL     1     -12.084   6.097  73.436  1.00  0.00     1.429 C  
HETATM   54  O   UNL     1     -11.996   5.579  74.544  1.00  0.00     3.215 OA 
HETATM   55  O   UNL     1     -11.327   7.147  73.079  1.00  0.00    -0.261 OA 
ENDBRANCH  36  51
ENDBRANCH   6   7
ENDBRANCH   5   6
ENDBRANCH   3   5
ENDBRANCH   2   3
TORSDOF 10
ENDMDL
MODEL        8
REMARK 921   NORMALIZED FREE ENERGY PREDICTED BY IDOCK:   63.28 KCAL/MOL
REMARK 922        TOTAL FREE ENERGY PREDICTED BY IDOCK:   98.65 KCAL/MOL
REMARK 923 INTER-LIGAND FREE ENERGY PREDICTED BY IDOCK:   93.27 KCAL/MOL
REMARK 924 INTRA-LIGAND FREE ENERGY PREDICTED BY IDOCK:    5.38 KCAL/MOL
REMARK 927      BINDING AFFINITY PREDICTED BY RF-SCORE:    0.00 PKD
ROOT
HETATM    1  C   UNL     1     -10.142  20.173  62.664  1.00  0.00    17.806 C  
HETATM    2  O   UNL     1      -9.424  19.390  63.668  1.00  0.00     9.300 OA 
ENDROOT
BRANCH   2   3
HETATM    3  C   UNL     1     -10.129  18.347  64.195  1.00  0.00     7.912 C  
HETATM    4  O   UNL     1     -11.081  18.532  64.955  1.00  0.00    -0.503 OA 
BRANCH   3   5
HETATM    5  C   UNL     1      -9.678  16.880  63.817  1.00  0.00     9.341 C  
BRANCH   5   6
HETATM    6  C   UNL     1      -8.443  16.213  64.466  1.00  0.00     7.527 C  
BRANCH   6   7
HETATM    7  C   UNL     1      -8.368  14.753  65.327  1.00  0.00     4.140 A  
HETATM    8  C   UNL     1      -8.659  14.194  66.668  1.00  0.00     0.035 A  
HETATM    9  N   UNL     1      -8.273  12.774  66.491  1.00  0.00    -0.381 NA 
HETATM   10  C   UNL     1      -7.865  12.318  65.174  1.00  0.00     2.939 A  
HETATM   11  H   UNL     1      -8.294  12.128  67.280  1.00  0.00     0.000 HD 
HETATM   12  C   UNL     1      -7.965  13.530  64.425  1.00  0.00    10.213 A  
HETATM   13  C   UNL     1      -7.252  10.802  64.855  1.00  0.00     0.245 C  
HETATM   14  C   UNL     1      -7.770  13.687  62.916  1.00  0.00    15.099 C  
HETATM   15  C   UNL     1      -7.840   9.539  64.528  1.00  0.00    -0.126 C  
HETATM   16  N   UNL     1      -9.087   9.695  64.060  1.00  0.00    -0.235 NA 
HETATM   17  C   UNL     1      -9.747   8.795  64.649  1.00  0.00     1.305 C  
HETATM   18  C   UNL     1     -10.519   9.004  65.837  1.00  0.00     0.618 C  
HETATM   19  C   UNL     1      -9.132   7.536  64.514  1.00  0.00     1.090 C  
HETATM   20  C   UNL     1     -10.053   6.718  63.964  1.00  0.00     5.581 C  
HETATM   21  C   UNL     1     -11.160  10.156  65.849  1.00  0.00     0.713 A  
HETATM   22  N   UNL     1     -11.520  10.655  67.068  1.00  0.00    -0.231 NA 
HETATM   23  C   UNL     1      -9.741   5.391  63.613  1.00  0.00     1.171 C  
HETATM   24  C   UNL     1      -8.656   4.903  64.214  1.00  0.00    -0.141 C  
HETATM   25  C   UNL     1     -11.805  11.963  66.844  1.00  0.00    -0.096 A  
HETATM   26  H   UNL     1     -11.565  10.152  67.954  1.00  0.00     0.000 HD 
HETATM   27  C   UNL     1      -7.732   5.909  64.997  1.00  0.00    -0.095 C  
HETATM   28  C   UNL     1     -13.219  12.223  69.618  1.00  0.00     1.892 C  
HETATM   29  C   UNL     1     -11.937  12.322  65.470  1.00  0.00    -0.387 A  
HETATM   30  C   UNL     1     -11.463  12.922  67.626  1.00  0.00    -0.383 C  
HETATM   31  C   UNL     1     -11.390  11.231  64.832  1.00  0.00    -0.023 A  
HETATM   32  C   UNL     1     -11.905  12.956  69.696  1.00  0.00    -0.387 C  
HETATM   33  C   UNL     1      -7.555   7.700  64.659  1.00  0.00    -0.111 C  
HETATM   34  C   UNL     1      -9.310  14.690  68.152  1.00  0.00    -0.197 C  
HETATM   35  C   UNL     1     -10.870  12.449  68.840  1.00  0.00    -0.197 C  
HETATM   36  C   UNL     1     -11.073  13.797  70.347  1.00  0.00     0.479 C  
HETATM   37  C   UNL     1      -9.662  13.893  69.335  1.00  0.00     0.525 C  
HETATM   38  N   UNL     1      -9.583  12.549  69.074  1.00  0.00     0.250 NA 
HETATM   39  C   UNL     1     -10.770  11.436  63.514  1.00  0.00    -0.453 C  
HETATM   40  C   UNL     1      -6.640   7.906  65.923  1.00  0.00    -0.049 C  
BRANCH  24  41
HETATM   41  C   UNL     1      -8.664   3.406  64.146  1.00  0.00    -0.093 C  
HETATM   42  O   UNL     1      -7.897   2.713  64.810  1.00  0.00    -0.076 OA 
BRANCH  41  43
HETATM   43  O   UNL     1      -9.475   2.899  63.183  1.00  0.00    -0.094 OA 
HETATM   44  C   UNL     1     -10.813   2.645  63.663  1.00  0.00    -0.122 C  
ENDBRANCH  41  43
ENDBRANCH  24  41
BRANCH  27  45
HETATM   45  C   UNL     1      -6.386   5.228  64.867  1.00  0.00    -0.034 C  
HETATM   46  O   UNL     1      -5.617   5.386  63.929  1.00  0.00    -0.013 OA 
BRANCH  45  47
HETATM   47  O   UNL     1      -6.203   4.346  65.896  1.00  0.00    -0.030 OA 
HETATM   48  C   UNL     1      -5.449   3.185  65.549  1.00  0.00    -0.009 C  
ENDBRANCH  45  47
ENDBRANCH  27  45
BRANCH  29  49
HETATM   49  C   UNL     1     -11.897  13.692  64.934  1.00  0.00    -0.398 C  
HETATM   50  C   UNL     1     -10.838  14.498  64.886  1.00  0.00    -0.436 C  
ENDBRANCH  29  49
BRANCH  36  51
HETATM   51  C   UNL     1     -11.567  13.595  71.848  1.00  0.00     1.798 C  
HETATM   52  C   UNL     1     -12.036  14.838  72.778  1.00  0.00    -0.290 C  
HETATM   53  C   UNL     1     -13.450  15.360  72.812  1.00  0.00    -0.538 C  
HETATM   54  O   UNL     1     -13.902  15.947  73.790  1.00  0.00    -0.105 OA 
HETATM   55  O   UNL     1     -14.122  15.288  71.652  1.00  0.00    -0.473 OA 
ENDBRANCH  36  51
ENDBRANCH   6   7
ENDBRANCH   5   6
ENDBRANCH   3   5
ENDBRANCH   2   3
TORSDOF 10
ENDMDL
MODEL        9
REMARK 921   NORMALIZED FREE ENERGY PREDICTED BY IDOCK:   63.85 KCAL/MOL
REMARK 922        TOTAL FREE ENERGY PREDICTED BY IDOCK:   99.56 KCAL/MOL
REMARK 923 INTER-LIGAND FREE ENERGY PREDICTED BY IDOCK:   95.06 KCAL/MOL
REMARK 924 INTRA-LIGAND FREE ENERGY PREDICTED BY IDOCK:    4.50 KCAL/MOL
REMARK 927      BINDING AFFINITY PREDICTED BY RF-SCORE:    0.00 PKD
ROOT
HETATM    1  C   UNL     1      -8.717  16.848  71.238  1.00  0.00     7.669 C  
HETATM    2  O   UNL     1      -8.763  15.430  71.589  1.00  0.00     3.587 OA 
ENDROOT
BRANCH   2   3
HETATM    3  C   UNL     1      -8.116  15.104  72.746  1.00  0.00     8.339 C  
HETATM    4  O   UNL     1      -7.817  15.961  73.580  1.00  0.00    11.377 OA 
BRANCH   3   5
HETATM    5  C   UNL     1      -7.739  13.587  72.984  1.00  0.00     9.599 C  
BRANCH   5   6
HETATM    6  C   UNL     1      -8.790  12.459  72.870  1.00  0.00    25.468 C  
BRANCH   6   7
HETATM    7  C   UNL     1      -9.413  11.740  71.466  1.00  0.00    12.730 A  
HETATM    8  C   UNL     1     -10.255  12.059  70.289  1.00  0.00     2.716 A  
HETATM    9  N   UNL     1     -10.251  10.769  69.559  1.00  0.00    -0.402 NA 
HETATM   10  C   UNL     1      -9.429   9.683  70.061  1.00  0.00    -0.240 A  
HETATM   11  H   UNL     1     -10.816  10.647  68.719  1.00  0.00     0.000 HD 
HETATM   12  C   UNL     1      -8.862  10.288  71.223  1.00  0.00     2.940 A  
HETATM   13  C   UNL     1      -9.445   8.134  69.447  1.00  0.00    -0.162 C  
HETATM   14  C   UNL     1      -7.800   9.678  72.141  1.00  0.00     1.792 C  
HETATM   15  C   UNL     1      -8.741   7.475  68.391  1.00  0.00    -0.123 C  
HETATM   16  N   UNL     1      -7.621   8.140  68.070  1.00  0.00    -0.104 NA 
HETATM   17  C   UNL     1      -7.620   8.142  66.808  1.00  0.00    -0.094 C  
HETATM   18  C   UNL     1      -8.102   9.222  66.000  1.00  0.00    -0.110 C  
HETATM   19  C   UNL     1      -7.801   6.844  66.293  1.00  0.00    -0.101 C  
HETATM   20  C   UNL     1      -6.749   6.604  65.484  1.00  0.00    -0.051 C  
HETATM   21  C   UNL     1      -7.801  10.411  66.482  1.00  0.00    -0.124 A  
HETATM   22  N   UNL     1      -8.578  11.460  66.081  1.00  0.00    -0.274 NA 
HETATM   23  C   UNL     1      -6.569   5.353  64.863  1.00  0.00    -0.043 C  
HETATM   24  C   UNL     1      -7.672   4.606  64.800  1.00  0.00    -0.078 C  
HETATM   25  C   UNL     1      -8.319  12.452  66.971  1.00  0.00    -0.157 A  
HETATM   26  H   UNL     1      -9.215  11.490  65.286  1.00  0.00     0.000 HD 
HETATM   27  C   UNL     1      -8.923   5.069  65.636  1.00  0.00    -0.149 C  
HETATM   28  C   UNL     1      -9.665  14.582  65.125  1.00  0.00     0.016 C  
HETATM   29  C   UNL     1      -7.180  12.232  67.800  1.00  0.00    -0.114 A  
HETATM   30  C   UNL     1      -9.212  13.228  67.470  1.00  0.00    -0.213 C  
HETATM   31  C   UNL     1      -6.934  10.891  67.604  1.00  0.00    -0.082 A  
HETATM   32  C   UNL     1     -10.579  14.341  66.298  1.00  0.00    -0.291 C  
HETATM   33  C   UNL     1      -8.889   6.075  67.165  1.00  0.00    -0.108 C  
HETATM   34  C   UNL     1     -11.064  13.385  69.611  1.00  0.00    -0.020 C  
HETATM   35  C   UNL     1     -10.499  13.028  66.875  1.00  0.00    -0.254 C  
HETATM   36  C   UNL     1     -11.659  14.691  67.029  1.00  0.00    -0.385 C  
HETATM   37  C   UNL     1     -11.727  13.513  68.306  1.00  0.00    -0.359 C  
HETATM   38  N   UNL     1     -11.476  12.425  67.509  1.00  0.00    -0.324 NA 
HETATM   39  C   UNL     1      -6.285  10.138  68.689  1.00  0.00    -0.044 C  
HETATM   40  C   UNL     1     -10.460   6.178  67.200  1.00  0.00    -0.327 C  
BRANCH  24  41
HETATM   41  C   UNL     1      -7.509   3.541  63.759  1.00  0.00    -0.059 C  
HETATM   42  O   UNL     1      -8.111   3.570  62.689  1.00  0.00    -0.070 OA 
BRANCH  41  43
HETATM   43  O   UNL     1      -6.768   2.478  64.164  1.00  0.00    -0.030 OA 
HETATM   44  C   UNL     1      -5.375   2.607  63.811  1.00  0.00    -0.008 C  
ENDBRANCH  41  43
ENDBRANCH  24  41
BRANCH  27  45
HETATM   45  C   UNL     1      -9.594   3.740  65.913  1.00  0.00    -0.160 C  
HETATM   46  O   UNL     1     -10.340   3.165  65.133  1.00  0.00     0.242 OA 
BRANCH  45  47
HETATM   47  O   UNL     1      -9.321   3.330  67.188  1.00  0.00    -0.187 OA 
HETATM   48  C   UNL     1     -10.126   2.244  67.644  1.00  0.00     1.427 C  
ENDBRANCH  45  47
ENDBRANCH  27  45
BRANCH  29  49
HETATM   49  C   UNL     1      -6.876  12.948  69.049  1.00  0.00    -0.080 C  
HETATM   50  C   UNL     1      -7.719  13.196  70.050  1.00  0.00     1.907 C  
ENDBRANCH  29  49
BRANCH  36  51
HETATM   51  C   UNL     1     -12.528  15.443  65.927  1.00  0.00     1.014 C  
HETATM   52  C   UNL     1     -12.437  17.046  65.701  1.00  0.00     5.110 C  
HETATM   53  C   UNL     1     -11.441  17.697  64.775  1.00  0.00     1.889 C  
HETATM   54  O   UNL     1     -11.650  18.791  64.261  1.00  0.00     2.285 OA 
HETATM   55  O   UNL     1     -10.250  17.084  64.683  1.00  0.00     0.282 OA 
ENDBRANCH  36  51
ENDBRANCH   6   7
ENDBRANCH   5   6
ENDBRANCH   3   5
ENDBRANCH   2   3
TORSDOF 10
ENDMDL
