MODEL        1
REMARK 921   NORMALIZED FREE ENERGY PREDICTED BY IDOCK:   -7.14 KCAL/MOL
REMARK 922        TOTAL FREE ENERGY PREDICTED BY IDOCK:   -8.04 KCAL/MOL
REMARK 923 INTER-LIGAND FREE ENERGY PREDICTED BY IDOCK:   -7.98 KCAL/MOL
REMARK 924 INTRA-LIGAND FREE ENERGY PREDICTED BY IDOCK:   -0.07 KCAL/MOL
REMARK 927      BINDING AFFINITY PREDICTED BY RF-SCORE:    0.00 PKD
ROOT
ATOM      1  N6    A A   1     -10.329  19.375  69.253  1.00  0.00    -0.521 NA 
ATOM      2  C6    A A   1      -9.922  18.496  68.256  1.00  0.00    -0.376 A  
ATOM      3  H62   A A   1     -10.644  20.243  68.821  1.00  0.00     0.000 HD 
ATOM      4  H61   A A   1     -11.034  19.060  69.920  1.00  0.00     0.000 HD 
ATOM      5  N1    A A   1      -8.989  18.911  67.375  1.00  0.00    -0.275 NA 
ATOM      6  C2    A A   1      -8.595  18.055  66.407  1.00  0.00    -0.228 A  
ATOM      7  N3    A A   1      -9.003  16.781  66.191  1.00  0.00    -0.436 NA 
ATOM      8  C4    A A   1      -9.932  16.416  67.092  1.00  0.00    -0.260 A  
ATOM      9  C5    A A   1     -10.423  17.189  68.139  1.00  0.00    -0.366 A  
ATOM     10  N7    A A   1     -11.328  16.480  68.895  1.00  0.00    -0.262 NA 
ATOM     11  C8    A A   1     -11.400  15.307  68.312  1.00  0.00    -0.336 A  
ATOM     12  N9    A A   1     -10.587  15.221  67.202  1.00  0.00    -0.295 NA 
ENDROOT
BRANCH  12  13
ATOM     13  C1*   A A   1     -10.491  14.015  66.412  1.00  0.00    -0.284 C  
ATOM     14  O4*   A A   1     -10.411  14.433  65.029  1.00  0.00    -0.402 OA 
ATOM     15  C4*   A A   1     -11.736  14.317  64.448  1.00  0.00    -0.389 C  
ATOM     16  C3*   A A   1     -12.549  13.366  65.333  1.00  0.00    -0.475 C  
ATOM     17  H2*   A A   1     -12.818  11.914  67.657  1.00  0.00     0.000 HD 
ATOM     18  C2*   A A   1     -11.564  12.926  66.412  1.00  0.00    -0.371 C  
ATOM     19  O3*   A A   1     -13.021  12.245  64.576  1.00  0.00    -0.738 OA 
ATOM     20  H3*   A A   1     -13.526  11.656  65.124  1.00  0.00     0.000 HD 
ATOM     21  O2*   A A   1     -12.152  12.591  67.657  1.00  0.00    -0.436 OA 
BRANCH  15  22
ATOM     22  C5*   A A   1     -12.378  15.708  64.373  1.00  0.00     0.078 C  
ATOM     23  O5*   A A   1     -11.434  16.662  63.894  1.00  0.00    -1.604 OA 
ATOM     24  H5*   A A   1     -11.832  17.524  63.847  1.00  0.00     0.000 HD 
ENDBRANCH  15  22
ENDBRANCH  12  13
TORSDOF 2
ENDMDL
MODEL        2
REMARK 921   NORMALIZED FREE ENERGY PREDICTED BY IDOCK:   -6.98 KCAL/MOL
REMARK 922        TOTAL FREE ENERGY PREDICTED BY IDOCK:   -7.87 KCAL/MOL
REMARK 923 INTER-LIGAND FREE ENERGY PREDICTED BY IDOCK:   -7.91 KCAL/MOL
REMARK 924 INTRA-LIGAND FREE ENERGY PREDICTED BY IDOCK:    0.04 KCAL/MOL
REMARK 927      BINDING AFFINITY PREDICTED BY RF-SCORE:    0.00 PKD
ROOT
ATOM      1  N6    A A   1     -11.620  16.562  63.843  1.00  0.00    -1.578 NA 
ATOM      2  C6    A A   1     -10.971  15.693  64.711  1.00  0.00    -0.400 A  
ATOM      3  H62   A A   1     -10.948  16.915  63.163  1.00  0.00     0.000 HD 
ATOM      4  H61   A A   1     -12.447  16.226  63.349  1.00  0.00     0.000 HD 
ATOM      5  N1    A A   1      -9.877  16.137  65.366  1.00  0.00    -0.472 NA 
ATOM      6  C2    A A   1      -9.248  15.291  66.210  1.00  0.00    -0.315 A  
ATOM      7  N3    A A   1      -9.574  14.014  66.522  1.00  0.00    -0.286 NA 
ATOM      8  C4    A A   1     -10.666  13.619  65.845  1.00  0.00    -0.281 A  
ATOM      9  C5    A A   1     -11.413  14.383  64.954  1.00  0.00    -0.386 A  
ATOM     10  N7    A A   1     -12.495  13.676  64.482  1.00  0.00    -0.618 NA 
ATOM     11  C8    A A   1     -12.400  12.501  65.060  1.00  0.00    -0.453 A  
ATOM     12  N9    A A   1     -11.299  12.407  65.882  1.00  0.00    -0.339 NA 
ENDROOT
BRANCH  12  13
ATOM     13  C1*   A A   1     -11.002  11.210  66.635  1.00  0.00    -0.228 C  
ATOM     14  O4*   A A   1     -11.957  11.158  67.721  1.00  0.00    -0.630 OA 
ATOM     15  C4*   A A   1     -11.308  11.674  68.913  1.00  0.00    -0.267 C  
ATOM     16  C3*   A A   1      -9.795  11.598  68.688  1.00  0.00    -0.165 C  
ATOM     17  H2*   A A   1      -7.651  11.170  67.015  1.00  0.00     0.000 HD 
ATOM     18  C2*   A A   1      -9.654  10.957  67.311  1.00  0.00    -0.164 C  
ATOM     19  O3*   A A   1      -9.169  10.797  69.698  1.00  0.00    -0.403 OA 
ATOM     20  H3*   A A   1      -8.231  10.750  69.558  1.00  0.00     0.000 HD 
ATOM     21  O2*   A A   1      -8.488  11.328  66.595  1.00  0.00    -0.158 OA 
BRANCH  15  22
ATOM     22  C5*   A A   1     -11.773  13.115  69.157  1.00  0.00    -0.325 C  
ATOM     23  O5*   A A   1     -10.657  13.950  69.455  1.00  0.00    -0.443 OA 
ATOM     24  H5*   A A   1     -10.944  14.843  69.607  1.00  0.00     0.000 HD 
ENDBRANCH  15  22
ENDBRANCH  12  13
TORSDOF 2
ENDMDL
MODEL        3
REMARK 921   NORMALIZED FREE ENERGY PREDICTED BY IDOCK:   -6.70 KCAL/MOL
REMARK 922        TOTAL FREE ENERGY PREDICTED BY IDOCK:   -7.55 KCAL/MOL
REMARK 923 INTER-LIGAND FREE ENERGY PREDICTED BY IDOCK:   -7.30 KCAL/MOL
REMARK 924 INTRA-LIGAND FREE ENERGY PREDICTED BY IDOCK:   -0.25 KCAL/MOL
REMARK 927      BINDING AFFINITY PREDICTED BY RF-SCORE:    0.00 PKD
ROOT
ATOM      1  N6    A A   1      -9.912  17.807  68.752  1.00  0.00    -0.364 NA 
ATOM      2  C6    A A   1     -10.675  16.650  68.656  1.00  0.00    -0.349 A  
ATOM      3  H62   A A   1      -9.187  17.669  69.455  1.00  0.00     0.000 HD 
ATOM      4  H61   A A   1      -9.485  18.180  67.904  1.00  0.00     0.000 HD 
ATOM      5  N1    A A   1     -11.240  16.157  69.778  1.00  0.00    -0.341 NA 
ATOM      6  C2    A A   1     -11.981  15.032  69.681  1.00  0.00    -0.321 A  
ATOM      7  N3    A A   1     -12.267  14.303  68.576  1.00  0.00    -0.240 NA 
ATOM      8  C4    A A   1     -11.681  14.832  67.488  1.00  0.00    -0.348 A  
ATOM      9  C5    A A   1     -10.901  15.983  67.441  1.00  0.00    -0.277 A  
ATOM     10  N7    A A   1     -10.505  16.260  66.153  1.00  0.00    -0.329 NA 
ATOM     11  C8    A A   1     -11.018  15.290  65.432  1.00  0.00    -0.372 A  
ATOM     12  N9    A A   1     -11.726  14.387  66.195  1.00  0.00    -0.375 NA 
ENDROOT
BRANCH  12  13
ATOM     13  C1*   A A   1     -12.393  13.246  65.612  1.00  0.00    -0.465 C  
ATOM     14  O4*   A A   1     -11.815  12.071  66.228  1.00  0.00    -0.563 OA 
ATOM     15  C4*   A A   1     -10.815  11.536  65.322  1.00  0.00    -0.259 C  
ATOM     16  C3*   A A   1     -11.107  12.096  63.926  1.00  0.00    -0.404 C  
ATOM     17  H2*   A A   1     -12.482  13.833  62.292  1.00  0.00     0.000 HD 
ATOM     18  C2*   A A   1     -12.367  12.935  64.116  1.00  0.00    -0.376 C  
ATOM     19  O3*   A A   1     -11.328  11.035  62.988  1.00  0.00    -0.738 OA 
ATOM     20  H3*   A A   1     -11.508  11.383  62.123  1.00  0.00     0.000 HD 
ATOM     21  O2*   A A   1     -12.498  14.026  63.222  1.00  0.00    -0.795 OA 
BRANCH  15  22
ATOM     22  C5*   A A   1      -9.419  11.940  65.814  1.00  0.00    -0.196 C  
ATOM     23  O5*   A A   1      -9.461  12.271  67.199  1.00  0.00    -0.187 OA 
ATOM     24  H5*   A A   1      -8.597  12.521  67.504  1.00  0.00     0.000 HD 
ENDBRANCH  15  22
ENDBRANCH  12  13
TORSDOF 2
ENDMDL
MODEL        4
REMARK 921   NORMALIZED FREE ENERGY PREDICTED BY IDOCK:   -6.68 KCAL/MOL
REMARK 922        TOTAL FREE ENERGY PREDICTED BY IDOCK:   -7.53 KCAL/MOL
REMARK 923 INTER-LIGAND FREE ENERGY PREDICTED BY IDOCK:   -7.27 KCAL/MOL
REMARK 924 INTRA-LIGAND FREE ENERGY PREDICTED BY IDOCK:   -0.25 KCAL/MOL
REMARK 927      BINDING AFFINITY PREDICTED BY RF-SCORE:    0.00 PKD
ROOT
ATOM      1  N6    A A   1     -11.619  16.562  63.998  1.00  0.00    -1.544 NA 
ATOM      2  C6    A A   1     -10.807  15.932  64.934  1.00  0.00    -0.400 A  
ATOM      3  H62   A A   1     -11.050  16.843  63.201  1.00  0.00     0.000 HD 
ATOM      4  H61   A A   1     -12.444  16.066  63.659  1.00  0.00     0.000 HD 
ATOM      5  N1    A A   1      -9.717  16.587  65.384  1.00  0.00    -0.447 NA 
ATOM      6  C2    A A   1      -8.930  15.972  66.293  1.00  0.00    -0.345 A  
ATOM      7  N3    A A   1      -9.088  14.751  66.857  1.00  0.00    -0.234 NA 
ATOM      8  C4    A A   1     -10.184  14.139  66.375  1.00  0.00    -0.290 A  
ATOM      9  C5    A A   1     -11.083  14.654  65.447  1.00  0.00    -0.348 A  
ATOM     10  N7    A A   1     -12.118  13.776  65.221  1.00  0.00    -0.384 NA 
ATOM     11  C8    A A   1     -11.847  12.742  65.982  1.00  0.00    -0.439 A  
ATOM     12  N9    A A   1     -10.675  12.902  66.690  1.00  0.00    -0.263 NA 
ENDROOT
BRANCH  12  13
ATOM     13  C1*   A A   1     -10.188  11.897  67.606  1.00  0.00    -0.201 C  
ATOM     14  O4*   A A   1      -9.031  11.294  66.979  1.00  0.00    -0.149 OA 
ATOM     15  C4*   A A   1      -9.455  10.052  66.358  1.00  0.00    -0.186 C  
ATOM     16  C3*   A A   1     -10.779   9.635  67.009  1.00  0.00    -0.155 C  
ATOM     17  H2*   A A   1     -12.914  10.207  68.650  1.00  0.00     0.000 HD 
ATOM     18  C2*   A A   1     -11.027  10.706  68.067  1.00  0.00    -0.282 C  
ATOM     19  O3*   A A   1     -10.667   8.336  67.603  1.00  0.00    -0.432 OA 
ATOM     20  H3*   A A   1     -11.487   8.078  68.006  1.00  0.00     0.000 HD 
ATOM     21  O2*   A A   1     -12.392  10.947  68.363  1.00  0.00    -0.477 OA 
BRANCH  15  22
ATOM     22  C5*   A A   1      -9.611  10.271  64.848  1.00  0.00    -0.304 C  
ATOM     23  O5*   A A   1      -8.943  11.465  64.450  1.00  0.00    -0.395 OA 
ATOM     24  H5*   A A   1      -9.039  11.601  63.515  1.00  0.00     0.000 HD 
ENDBRANCH  15  22
ENDBRANCH  12  13
TORSDOF 2
ENDMDL
MODEL        5
REMARK 921   NORMALIZED FREE ENERGY PREDICTED BY IDOCK:   -6.63 KCAL/MOL
REMARK 922        TOTAL FREE ENERGY PREDICTED BY IDOCK:   -7.47 KCAL/MOL
REMARK 923 INTER-LIGAND FREE ENERGY PREDICTED BY IDOCK:   -7.54 KCAL/MOL
REMARK 924 INTRA-LIGAND FREE ENERGY PREDICTED BY IDOCK:    0.06 KCAL/MOL
REMARK 927      BINDING AFFINITY PREDICTED BY RF-SCORE:    0.00 PKD
ROOT
ATOM      1  N6    A A   1     -13.134  11.772  62.955  1.00  0.00    -0.768 NA 
ATOM      2  C6    A A   1     -12.024  12.168  63.692  1.00  0.00    -0.534 A  
ATOM      3  H62   A A   1     -13.600  11.008  63.443  1.00  0.00     0.000 HD 
ATOM      4  H61   A A   1     -13.827  12.477  62.704  1.00  0.00     0.000 HD 
ATOM      5  N1    A A   1     -11.106  11.235  64.023  1.00  0.00    -0.330 NA 
ATOM      6  C2    A A   1     -10.028  11.623  64.738  1.00  0.00    -0.254 A  
ATOM      7  N3    A A   1      -9.709  12.865  65.177  1.00  0.00    -0.043 NA 
ATOM      8  C4    A A   1     -10.653  13.755  64.824  1.00  0.00    -0.428 A  
ATOM      9  C5    A A   1     -11.804  13.497  64.087  1.00  0.00    -0.437 A  
ATOM     10  N7    A A   1     -12.519  14.652  63.867  1.00  0.00    -0.792 NA 
ATOM     11  C8    A A   1     -11.828  15.590  64.471  1.00  0.00    -0.216 A  
ATOM     12  N9    A A   1     -10.696  15.097  65.084  1.00  0.00    -0.392 NA 
ENDROOT
BRANCH  12  13
ATOM     13  C1*   A A   1      -9.774  15.951  65.795  1.00  0.00    -0.325 C  
ATOM     14  O4*   A A   1      -9.465  15.279  67.039  1.00  0.00    -0.212 OA 
ATOM     15  C4*   A A   1     -10.294  15.860  68.080  1.00  0.00    -0.262 C  
ATOM     16  C3*   A A   1     -10.775  17.227  67.582  1.00  0.00    -0.307 C  
ATOM     17  H2*   A A   1     -11.038  19.069  65.553  1.00  0.00     0.000 HD 
ATOM     18  C2*   A A   1     -10.112  17.382  66.217  1.00  0.00    -0.322 C  
ATOM     19  O3*   A A   1     -10.366  18.268  68.477  1.00  0.00    -0.372 OA 
ATOM     20  H3*   A A   1     -10.664  19.115  68.168  1.00  0.00     0.000 HD 
ATOM     21  O2*   A A   1     -10.828  18.181  65.291  1.00  0.00    -0.628 OA 
BRANCH  15  22
ATOM     22  C5*   A A   1     -11.469  14.918  68.373  1.00  0.00    -0.318 C  
ATOM     23  O5*   A A   1     -12.497  15.615  69.072  1.00  0.00    -0.596 OA 
ATOM     24  H5*   A A   1     -13.225  15.032  69.254  1.00  0.00     0.000 HD 
ENDBRANCH  15  22
ENDBRANCH  12  13
TORSDOF 2
ENDMDL
MODEL        6
REMARK 921   NORMALIZED FREE ENERGY PREDICTED BY IDOCK:   -6.59 KCAL/MOL
REMARK 922        TOTAL FREE ENERGY PREDICTED BY IDOCK:   -7.43 KCAL/MOL
REMARK 923 INTER-LIGAND FREE ENERGY PREDICTED BY IDOCK:   -7.39 KCAL/MOL
REMARK 924 INTRA-LIGAND FREE ENERGY PREDICTED BY IDOCK:   -0.04 KCAL/MOL
REMARK 927      BINDING AFFINITY PREDICTED BY RF-SCORE:    0.00 PKD
ROOT
ATOM      1  N6    A A   1      -8.986   9.291  68.824  1.00  0.00    -0.132 NA 
ATOM      2  C6    A A   1      -9.908  10.329  68.883  1.00  0.00    -0.195 A  
ATOM      3  H62   A A   1      -9.485   8.408  68.722  1.00  0.00     0.000 HD 
ATOM      4  H61   A A   1      -8.247   9.337  68.121  1.00  0.00     0.000 HD 
ATOM      5  N1    A A   1     -10.884  10.268  69.813  1.00  0.00    -0.267 NA 
ATOM      6  C2    A A   1     -11.779  11.278  69.868  1.00  0.00    -0.352 A  
ATOM      7  N3    A A   1     -11.835  12.399  69.109  1.00  0.00    -0.310 NA 
ATOM      8  C4    A A   1     -10.846  12.411  68.199  1.00  0.00    -0.221 A  
ATOM      9  C5    A A   1      -9.857  11.446  68.035  1.00  0.00    -0.184 A  
ATOM     10  N7    A A   1      -8.976  11.806  67.040  1.00  0.00    -0.180 NA 
ATOM     11  C8    A A   1      -9.427  12.956  66.597  1.00  0.00    -0.255 A  
ATOM     12  N9    A A   1     -10.570  13.359  67.253  1.00  0.00    -0.254 NA 
ENDROOT
BRANCH  12  13
ATOM     13  C1*   A A   1     -11.234  14.604  66.944  1.00  0.00    -0.343 C  
ATOM     14  O4*   A A   1     -12.514  14.257  66.366  1.00  0.00    -0.441 OA 
ATOM     15  C4*   A A   1     -12.392  14.343  64.922  1.00  0.00    -0.405 C  
ATOM     16  C3*   A A   1     -11.170  15.213  64.610  1.00  0.00    -0.343 C  
ATOM     17  H2*   A A   1      -8.908  16.538  65.450  1.00  0.00     0.000 HD 
ATOM     18  C2*   A A   1     -10.659  15.644  65.981  1.00  0.00    -0.328 C  
ATOM     19  O3*   A A   1     -11.542  16.347  63.817  1.00  0.00    -1.605 OA 
ATOM     20  H3*   A A   1     -10.785  16.886  63.623  1.00  0.00     0.000 HD 
ATOM     21  O2*   A A   1      -9.265  15.892  66.048  1.00  0.00    -0.322 OA 
BRANCH  15  22
ATOM     22  C5*   A A   1     -12.243  12.929  64.343  1.00  0.00    -0.417 C  
ATOM     23  O5*   A A   1     -11.822  12.995  62.983  1.00  0.00    -0.841 OA 
ATOM     24  H5*   A A   1     -11.730  12.120  62.625  1.00  0.00     0.000 HD 
ENDBRANCH  15  22
ENDBRANCH  12  13
TORSDOF 2
ENDMDL
MODEL        7
REMARK 921   NORMALIZED FREE ENERGY PREDICTED BY IDOCK:   -6.53 KCAL/MOL
REMARK 922        TOTAL FREE ENERGY PREDICTED BY IDOCK:   -7.36 KCAL/MOL
REMARK 923 INTER-LIGAND FREE ENERGY PREDICTED BY IDOCK:   -7.39 KCAL/MOL
REMARK 924 INTRA-LIGAND FREE ENERGY PREDICTED BY IDOCK:    0.03 KCAL/MOL
REMARK 927      BINDING AFFINITY PREDICTED BY RF-SCORE:    0.00 PKD
ROOT
ATOM      1  N6    A A   1     -11.502  16.391  63.943  1.00  0.00    -1.618 NA 
ATOM      2  C6    A A   1     -11.656  15.144  64.538  1.00  0.00    -0.329 A  
ATOM      3  H62   A A   1     -12.361  16.926  64.066  1.00  0.00     0.000 HD 
ATOM      4  H61   A A   1     -10.708  16.967  64.223  1.00  0.00     0.000 HD 
ATOM      5  N1    A A   1     -12.706  14.381  64.168  1.00  0.00    -0.688 NA 
ATOM      6  C2    A A   1     -12.853  13.170  64.748  1.00  0.00    -0.229 A  
ATOM      7  N3    A A   1     -12.062  12.576  65.674  1.00  0.00    -0.562 NA 
ATOM      8  C4    A A   1     -11.035  13.376  66.010  1.00  0.00    -0.271 A  
ATOM      9  C5    A A   1     -10.759  14.636  65.491  1.00  0.00    -0.349 A  
ATOM     10  N7    A A   1      -9.599  15.148  66.026  1.00  0.00    -0.312 NA 
ATOM     11  C8    A A   1      -9.187  14.227  66.865  1.00  0.00    -0.254 A  
ATOM     12  N9    A A   1     -10.031  13.139  66.908  1.00  0.00    -0.240 NA 
ENDROOT
BRANCH  12  13
ATOM     13  C1*   A A   1      -9.767  11.995  67.749  1.00  0.00    -0.192 C  
ATOM     14  O4*   A A   1      -8.651  11.292  67.153  1.00  0.00    -0.139 OA 
ATOM     15  C4*   A A   1      -9.182  10.186  66.376  1.00  0.00    -0.158 C  
ATOM     16  C3*   A A   1     -10.602   9.905  66.878  1.00  0.00    -0.178 C  
ATOM     17  H2*   A A   1     -12.779  10.623  68.404  1.00  0.00     0.000 HD 
ATOM     18  C2*   A A   1     -10.798  10.898  68.020  1.00  0.00    -0.245 C  
ATOM     19  O3*   A A   1     -10.720   8.554  67.342  1.00  0.00    -0.424 OA 
ATOM     20  H3*   A A   1     -11.600   8.380  67.653  1.00  0.00     0.000 HD 
ATOM     21  O2*   A A   1     -12.138  11.304  68.235  1.00  0.00    -0.619 OA 
BRANCH  15  22
ATOM     22  C5*   A A   1      -9.171  10.562  64.889  1.00  0.00    -0.215 C  
ATOM     23  O5*   A A   1     -10.455  10.334  64.313  1.00  0.00    -0.372 OA 
ATOM     24  H5*   A A   1     -10.448  10.567  63.392  1.00  0.00     0.000 HD 
ENDBRANCH  15  22
ENDBRANCH  12  13
TORSDOF 2
ENDMDL
MODEL        8
REMARK 921   NORMALIZED FREE ENERGY PREDICTED BY IDOCK:   -6.43 KCAL/MOL
REMARK 922        TOTAL FREE ENERGY PREDICTED BY IDOCK:   -7.25 KCAL/MOL
REMARK 923 INTER-LIGAND FREE ENERGY PREDICTED BY IDOCK:   -7.08 KCAL/MOL
REMARK 924 INTRA-LIGAND FREE ENERGY PREDICTED BY IDOCK:   -0.17 KCAL/MOL
REMARK 927      BINDING AFFINITY PREDICTED BY RF-SCORE:    0.00 PKD
ROOT
ATOM      1  N6    A A   1     -10.941  10.371  70.657  1.00  0.00    -0.414 NA 
ATOM      2  C6    A A   1     -10.849  10.347  69.270  1.00  0.00    -0.241 A  
ATOM      3  H62   A A   1     -10.039  10.112  71.054  1.00  0.00     0.000 HD 
ATOM      4  H61   A A   1     -11.270  11.226  71.107  1.00  0.00     0.000 HD 
ATOM      5  N1    A A   1     -10.416   9.216  68.674  1.00  0.00    -0.216 NA 
ATOM      6  C2    A A   1     -10.327   9.196  67.327  1.00  0.00    -0.270 A  
ATOM      7  N3    A A   1     -10.637  10.177  66.446  1.00  0.00    -0.136 NA 
ATOM      8  C4    A A   1     -11.061  11.280  67.087  1.00  0.00    -0.301 A  
ATOM      9  C5    A A   1     -11.206  11.438  68.462  1.00  0.00    -0.250 A  
ATOM     10  N7    A A   1     -11.711  12.681  68.766  1.00  0.00    -0.308 NA 
ATOM     11  C8    A A   1     -11.855  13.274  67.604  1.00  0.00    -0.357 A  
ATOM     12  N9    A A   1     -11.458  12.475  66.554  1.00  0.00    -0.341 NA 
ENDROOT
BRANCH  12  13
ATOM     13  C1*   A A   1     -11.543  12.914  65.180  1.00  0.00    -0.332 C  
ATOM     14  O4*   A A   1     -10.196  13.248  64.770  1.00  0.00    -0.342 OA 
ATOM     15  C4*   A A   1     -10.040  14.688  64.876  1.00  0.00    -0.196 C  
ATOM     16  C3*   A A   1     -11.441  15.308  64.892  1.00  0.00    -0.343 C  
ATOM     17  H2*   A A   1     -14.174  15.021  65.051  1.00  0.00     0.000 HD 
ATOM     18  C2*   A A   1     -12.378  14.114  64.734  1.00  0.00    -0.417 C  
ATOM     19  O3*   A A   1     -11.599  16.236  63.812  1.00  0.00    -1.539 OA 
ATOM     20  H3*   A A   1     -12.467  16.620  63.822  1.00  0.00     0.000 HD 
ATOM     21  O2*   A A   1     -13.655  14.275  65.328  1.00  0.00    -0.394 OA 
BRANCH  15  22
ATOM     22  C5*   A A   1      -9.260  15.018  66.156  1.00  0.00    -0.259 C  
ATOM     23  O5*   A A   1      -8.464  13.903  66.550  1.00  0.00    -0.424 OA 
ATOM     24  H5*   A A   1      -7.982  14.107  67.343  1.00  0.00     0.000 HD 
ENDBRANCH  15  22
ENDBRANCH  12  13
TORSDOF 2
ENDMDL
MODEL        9
REMARK 921   NORMALIZED FREE ENERGY PREDICTED BY IDOCK:   -6.36 KCAL/MOL
REMARK 922        TOTAL FREE ENERGY PREDICTED BY IDOCK:   -7.17 KCAL/MOL
REMARK 923 INTER-LIGAND FREE ENERGY PREDICTED BY IDOCK:   -7.68 KCAL/MOL
REMARK 924 INTRA-LIGAND FREE ENERGY PREDICTED BY IDOCK:    0.52 KCAL/MOL
REMARK 927      BINDING AFFINITY PREDICTED BY RF-SCORE:    0.00 PKD
ROOT
ATOM      1  N6    A A   1     -12.470  14.112  63.279  1.00  0.00    -1.098 NA 
ATOM      2  C6    A A   1     -12.099  14.136  64.618  1.00  0.00    -0.452 A  
ATOM      3  H62   A A   1     -13.477  13.968  63.216  1.00  0.00     0.000 HD 
ATOM      4  H61   A A   1     -12.210  14.903  62.689  1.00  0.00     0.000 HD 
ATOM      5  N1    A A   1     -12.442  13.090  65.399  1.00  0.00    -0.487 NA 
ATOM      6  C2    A A   1     -12.080  13.116  66.699  1.00  0.00    -0.346 A  
ATOM      7  N3    A A   1     -11.380  14.069  67.361  1.00  0.00    -0.314 NA 
ATOM      8  C4    A A   1     -11.065  15.087  66.543  1.00  0.00    -0.329 A  
ATOM      9  C5    A A   1     -11.366  15.189  65.189  1.00  0.00    -0.357 A  
ATOM     10  N7    A A   1     -10.846  16.344  64.652  1.00  0.00    -0.717 NA 
ATOM     11  C8    A A   1     -10.255  16.942  65.660  1.00  0.00    -0.206 A  
ATOM     12  N9    A A   1     -10.373  16.231  66.835  1.00  0.00    -0.296 NA 
ENDROOT
BRANCH  12  13
ATOM     13  C1*   A A   1      -9.785  16.689  68.072  1.00  0.00    -0.241 C  
ATOM     14  O4*   A A   1     -10.633  17.755  68.562  1.00  0.00    -0.343 OA 
ATOM     15  C4*   A A   1     -10.025  19.019  68.187  1.00  0.00    -0.382 C  
ATOM     16  C3*   A A   1      -8.548  18.752  67.882  1.00  0.00    -0.296 C  
ATOM     17  H2*   A A   1      -6.480  16.983  67.465  1.00  0.00     0.000 HD 
ATOM     18  C2*   A A   1      -8.371  17.263  68.166  1.00  0.00    -0.233 C  
ATOM     19  O3*   A A   1      -7.703  19.543  68.726  1.00  0.00    -0.344 OA 
ATOM     20  H3*   A A   1      -6.787  19.378  68.537  1.00  0.00     0.000 HD 
ATOM     21  O2*   A A   1      -7.359  16.626  67.406  1.00  0.00    -0.141 OA 
BRANCH  15  22
ATOM     22  C5*   A A   1     -10.761  19.590  66.967  1.00  0.00    -0.477 C  
ATOM     23  O5*   A A   1      -9.907  20.473  66.245  1.00  0.00    -0.623 OA 
ATOM     24  H5*   A A   1     -10.362  20.827  65.490  1.00  0.00     0.000 HD 
ENDBRANCH  15  22
ENDBRANCH  12  13
TORSDOF 2
ENDMDL
MODEL       10
REMARK 921   NORMALIZED FREE ENERGY PREDICTED BY IDOCK:   -6.34 KCAL/MOL
REMARK 922        TOTAL FREE ENERGY PREDICTED BY IDOCK:   -7.14 KCAL/MOL
REMARK 923 INTER-LIGAND FREE ENERGY PREDICTED BY IDOCK:   -7.85 KCAL/MOL
REMARK 924 INTRA-LIGAND FREE ENERGY PREDICTED BY IDOCK:    0.71 KCAL/MOL
REMARK 927      BINDING AFFINITY PREDICTED BY RF-SCORE:    0.00 PKD
ROOT
ATOM      1  N6    A A   1     -12.669  15.953  71.542  1.00  0.00    -0.522 NA 
ATOM      2  C6    A A   1     -12.289  14.853  70.782  1.00  0.00    -0.329 A  
ATOM      3  H62   A A   1     -12.265  15.869  72.474  1.00  0.00     0.000 HD 
ATOM      4  H61   A A   1     -12.473  16.886  71.178  1.00  0.00     0.000 HD 
ATOM      5  N1    A A   1     -12.549  13.619  71.263  1.00  0.00    -0.358 NA 
ATOM      6  C2    A A   1     -12.178  12.552  70.522  1.00  0.00    -0.297 A  
ATOM      7  N3    A A   1     -11.574  12.536  69.310  1.00  0.00    -0.302 NA 
ATOM      8  C4    A A   1     -11.335  13.786  68.877  1.00  0.00    -0.288 A  
ATOM      9  C5    A A   1     -11.667  14.969  69.529  1.00  0.00    -0.322 A  
ATOM     10  N7    A A   1     -11.319  16.065  68.773  1.00  0.00    -0.365 NA 
ATOM     11  C8    A A   1     -10.773  15.561  67.691  1.00  0.00    -0.302 A  
ATOM     12  N9    A A   1     -10.741  14.183  67.711  1.00  0.00    -0.245 NA 
ENDROOT
BRANCH  12  13
ATOM     13  C1*   A A   1     -10.199  13.412  66.616  1.00  0.00    -0.274 C  
ATOM     14  O4*   A A   1      -9.521  14.349  65.747  1.00  0.00    -0.228 OA 
ATOM     15  C4*   A A   1     -10.415  14.668  64.648  1.00  0.00    -0.175 C  
ATOM     16  C3*   A A   1     -11.470  13.559  64.570  1.00  0.00    -0.381 C  
ATOM     17  H2*   A A   1     -12.671  11.330  65.649  1.00  0.00     0.000 HD 
ATOM     18  C2*   A A   1     -11.065  12.581  65.668  1.00  0.00    -0.303 C  
ATOM     19  O3*   A A   1     -11.452  12.930  63.283  1.00  0.00    -0.706 OA 
ATOM     20  H3*   A A   1     -12.106  12.242  63.235  1.00  0.00     0.000 HD 
ATOM     21  O2*   A A   1     -12.134  11.846  66.238  1.00  0.00    -0.535 OA 
BRANCH  15  22
ATOM     22  C5*   A A   1     -11.054  16.040  64.899  1.00  0.00    -0.370 C  
ATOM     23  O5*   A A   1     -11.687  16.514  63.714  1.00  0.00    -1.548 OA 
ATOM     24  H5*   A A   1     -12.082  17.364  63.869  1.00  0.00     0.000 HD 
ENDBRANCH  15  22
ENDBRANCH  12  13
TORSDOF 2
ENDMDL
MODEL       11
REMARK 921   NORMALIZED FREE ENERGY PREDICTED BY IDOCK:   -6.25 KCAL/MOL
REMARK 922        TOTAL FREE ENERGY PREDICTED BY IDOCK:   -7.05 KCAL/MOL
REMARK 923 INTER-LIGAND FREE ENERGY PREDICTED BY IDOCK:   -7.01 KCAL/MOL
REMARK 924 INTRA-LIGAND FREE ENERGY PREDICTED BY IDOCK:   -0.04 KCAL/MOL
REMARK 927      BINDING AFFINITY PREDICTED BY RF-SCORE:    0.00 PKD
ROOT
ATOM      1  N6    A A   1     -13.453  12.935  72.124  1.00  0.00    -0.549 NA 
ATOM      2  C6    A A   1     -12.714  13.797  71.323  1.00  0.00    -0.371 A  
ATOM      3  H62   A A   1     -14.374  13.340  72.287  1.00  0.00     0.000 HD 
ATOM      4  H61   A A   1     -13.565  11.967  71.821  1.00  0.00     0.000 HD 
ATOM      5  N1    A A   1     -12.564  15.077  71.725  1.00  0.00    -0.320 NA 
ATOM      6  C2    A A   1     -11.846  15.913  70.945  1.00  0.00    -0.417 A  
ATOM      7  N3    A A   1     -11.212  15.643  69.778  1.00  0.00    -0.292 NA 
ATOM      8  C4    A A   1     -11.392  14.360  69.421  1.00  0.00    -0.281 A  
ATOM      9  C5    A A   1     -12.099  13.392  70.128  1.00  0.00    -0.344 A  
ATOM     10  N7    A A   1     -12.036  12.172  69.495  1.00  0.00    -0.297 NA 
ATOM     11  C8    A A   1     -11.320  12.395  68.417  1.00  0.00    -0.285 A  
ATOM     12  N9    A A   1     -10.920  13.710  68.315  1.00  0.00    -0.245 NA 
ENDROOT
BRANCH  12  13
ATOM     13  C1*   A A   1     -10.108  14.182  67.217  1.00  0.00    -0.256 C  
ATOM     14  O4*   A A   1     -10.953  15.044  66.420  1.00  0.00    -0.329 OA 
ATOM     15  C4*   A A   1     -11.444  14.272  65.293  1.00  0.00    -0.344 C  
ATOM     16  C3*   A A   1     -10.520  13.062  65.120  1.00  0.00    -0.320 C  
ATOM     17  H2*   A A   1      -8.475  11.470  66.051  1.00  0.00     0.000 HD 
ATOM     18  C2*   A A   1      -9.455  13.250  66.196  1.00  0.00    -0.139 C  
ATOM     19  O3*   A A   1      -9.936  13.050  63.812  1.00  0.00    -0.744 OA 
ATOM     20  H3*   A A   1      -9.363  12.300  63.705  1.00  0.00     0.000 HD 
ATOM     21  O2*   A A   1      -8.881  12.049  66.685  1.00  0.00    -0.198 OA 
BRANCH  15  22
ATOM     22  C5*   A A   1     -12.891  13.843  65.567  1.00  0.00    -0.431 C  
ATOM     23  O5*   A A   1     -13.221  12.693  64.794  1.00  0.00    -0.846 OA 
ATOM     24  H5*   A A   1     -14.117  12.427  64.964  1.00  0.00     0.000 HD 
ENDBRANCH  15  22
ENDBRANCH  12  13
TORSDOF 2
ENDMDL
MODEL       12
REMARK 921   NORMALIZED FREE ENERGY PREDICTED BY IDOCK:   -6.18 KCAL/MOL
REMARK 922        TOTAL FREE ENERGY PREDICTED BY IDOCK:   -6.97 KCAL/MOL
REMARK 923 INTER-LIGAND FREE ENERGY PREDICTED BY IDOCK:   -6.99 KCAL/MOL
REMARK 924 INTRA-LIGAND FREE ENERGY PREDICTED BY IDOCK:    0.03 KCAL/MOL
REMARK 927      BINDING AFFINITY PREDICTED BY RF-SCORE:    0.00 PKD
ROOT
ATOM      1  N6    A A   1     -13.107  14.395  70.105  1.00  0.00    -0.431 NA 
ATOM      2  C6    A A   1     -12.135  14.556  69.124  1.00  0.00    -0.264 A  
ATOM      3  H62   A A   1     -13.841  15.088  69.961  1.00  0.00     0.000 HD 
ATOM      4  H61   A A   1     -13.535  13.476  70.218  1.00  0.00     0.000 HD 
ATOM      5  N1    A A   1     -11.568  15.771  68.974  1.00  0.00    -0.383 NA 
ATOM      6  C2    A A   1     -10.624  15.924  68.021  1.00  0.00    -0.287 A  
ATOM      7  N3    A A   1     -10.130  14.996  67.167  1.00  0.00    -0.238 NA 
ATOM      8  C4    A A   1     -10.727  13.806  67.354  1.00  0.00    -0.275 A  
ATOM      9  C5    A A   1     -11.703  13.506  68.298  1.00  0.00    -0.359 A  
ATOM     10  N7    A A   1     -12.053  12.176  68.242  1.00  0.00    -0.384 NA 
ATOM     11  C8    A A   1     -11.318  11.680  67.275  1.00  0.00    -0.305 A  
ATOM     12  N9    A A   1     -10.508  12.631  66.690  1.00  0.00    -0.243 NA 
ENDROOT
BRANCH  12  13
ATOM     13  C1*   A A   1      -9.600  12.308  65.614  1.00  0.00    -0.137 C  
ATOM     14  O4*   A A   1      -9.928  13.194  64.518  1.00  0.00    -0.254 OA 
ATOM     15  C4*   A A   1     -10.769  12.463  63.588  1.00  0.00    -0.455 C  
ATOM     16  C3*   A A   1     -10.571  10.968  63.859  1.00  0.00    -0.312 C  
ATOM     17  H2*   A A   1      -9.561   8.941  65.423  1.00  0.00     0.000 HD 
ATOM     18  C2*   A A   1      -9.524  10.925  64.967  1.00  0.00    -0.233 C  
ATOM     19  O3*   A A   1     -10.107  10.294  62.682  1.00  0.00    -0.646 OA 
ATOM     20  H3*   A A   1      -9.985   9.368  62.850  1.00  0.00     0.000 HD 
ATOM     21  O2*   A A   1      -9.608   9.800  65.825  1.00  0.00    -0.213 OA 
BRANCH  15  22
ATOM     22  C5*   A A   1     -12.230  12.887  63.788  1.00  0.00    -0.476 C  
ATOM     23  O5*   A A   1     -12.524  14.032  62.993  1.00  0.00    -1.101 OA 
ATOM     24  H5*   A A   1     -13.429  14.295  63.117  1.00  0.00     0.000 HD 
ENDBRANCH  15  22
ENDBRANCH  12  13
TORSDOF 2
ENDMDL
MODEL       13
REMARK 921   NORMALIZED FREE ENERGY PREDICTED BY IDOCK:   -6.17 KCAL/MOL
REMARK 922        TOTAL FREE ENERGY PREDICTED BY IDOCK:   -6.95 KCAL/MOL
REMARK 923 INTER-LIGAND FREE ENERGY PREDICTED BY IDOCK:   -6.69 KCAL/MOL
REMARK 924 INTRA-LIGAND FREE ENERGY PREDICTED BY IDOCK:   -0.26 KCAL/MOL
REMARK 927      BINDING AFFINITY PREDICTED BY RF-SCORE:    0.00 PKD
ROOT
ATOM      1  N6    A A   1     -12.088  13.951  68.236  1.00  0.00    -0.481 NA 
ATOM      2  C6    A A   1     -11.575  14.732  67.207  1.00  0.00    -0.369 A  
ATOM      3  H62   A A   1     -11.658  13.028  68.198  1.00  0.00     0.000 HD 
ATOM      4  H61   A A   1     -12.029  14.306  69.190  1.00  0.00     0.000 HD 
ATOM      5  N1    A A   1     -11.653  14.263  65.944  1.00  0.00    -0.350 NA 
ATOM      6  C2    A A   1     -11.154  15.023  64.946  1.00  0.00    -0.415 A  
ATOM      7  N3    A A   1     -10.576  16.246  65.025  1.00  0.00    -0.659 NA 
ATOM      8  C4    A A   1     -10.520  16.667  66.301  1.00  0.00    -0.268 A  
ATOM      9  C5    A A   1     -10.998  15.994  67.420  1.00  0.00    -0.237 A  
ATOM     10  N7    A A   1     -10.819  16.742  68.561  1.00  0.00    -0.351 NA 
ATOM     11  C8    A A   1     -10.229  17.839  68.149  1.00  0.00    -0.382 A  
ATOM     12  N9    A A   1     -10.008  17.838  66.788  1.00  0.00    -0.317 NA 
ENDROOT
BRANCH  12  13
ATOM     13  C1*   A A   1      -9.386  18.952  66.110  1.00  0.00    -0.187 C  
ATOM     14  O4*   A A   1      -8.070  18.507  65.707  1.00  0.00    -0.490 OA 
ATOM     15  C4*   A A   1      -7.114  18.993  66.685  1.00  0.00    -0.211 C  
ATOM     16  C3*   A A   1      -7.771  20.152  67.441  1.00  0.00    -0.306 C  
ATOM     17  H2*   A A   1     -10.001  21.655  68.032  1.00  0.00     0.000 HD 
ATOM     18  C2*   A A   1      -9.136  20.305  66.777  1.00  0.00    -0.306 C  
ATOM     19  O3*   A A   1      -6.995  21.350  67.311  1.00  0.00    -0.676 OA 
ATOM     20  H3*   A A   1      -7.403  22.068  67.780  1.00  0.00     0.000 HD 
ATOM     21  O2*   A A   1     -10.156  20.814  67.618  1.00  0.00    -0.330 OA 
BRANCH  15  22
ATOM     22  C5*   A A   1      -6.730  17.846  67.629  1.00  0.00    -0.185 C  
ATOM     23  O5*   A A   1      -7.066  16.591  67.043  1.00  0.00    -0.171 OA 
ATOM     24  H5*   A A   1      -6.828  15.881  67.628  1.00  0.00     0.000 HD 
ENDBRANCH  15  22
ENDBRANCH  12  13
TORSDOF 2
ENDMDL
MODEL       14
REMARK 921   NORMALIZED FREE ENERGY PREDICTED BY IDOCK:   -6.14 KCAL/MOL
REMARK 922        TOTAL FREE ENERGY PREDICTED BY IDOCK:   -6.93 KCAL/MOL
REMARK 923 INTER-LIGAND FREE ENERGY PREDICTED BY IDOCK:   -6.75 KCAL/MOL
REMARK 924 INTRA-LIGAND FREE ENERGY PREDICTED BY IDOCK:   -0.18 KCAL/MOL
REMARK 927      BINDING AFFINITY PREDICTED BY RF-SCORE:    0.00 PKD
ROOT
ATOM      1  N6    A A   1     -12.919  11.777  62.727  1.00  0.00    -0.641 NA 
ATOM      2  C6    A A   1     -11.917  11.858  63.687  1.00  0.00    -0.476 A  
ATOM      3  H62   A A   1     -13.172  10.799  62.594  1.00  0.00     0.000 HD 
ATOM      4  H61   A A   1     -13.769  12.324  62.866  1.00  0.00     0.000 HD 
ATOM      5  N1    A A   1     -10.792  11.135  63.504  1.00  0.00    -0.300 NA 
ATOM      6  C2    A A   1      -9.820  11.215  64.437  1.00  0.00    -0.284 A  
ATOM      7  N3    A A   1      -9.798  11.958  65.570  1.00  0.00    -0.233 NA 
ATOM      8  C4    A A   1     -10.938  12.656  65.707  1.00  0.00    -0.280 A  
ATOM      9  C5    A A   1     -12.013  12.673  64.825  1.00  0.00    -0.402 A  
ATOM     10  N7    A A   1     -12.992  13.539  65.256  1.00  0.00    -0.711 NA 
ATOM     11  C8    A A   1     -12.531  14.026  66.384  1.00  0.00    -0.355 A  
ATOM     12  N9    A A   1     -11.297  13.510  66.713  1.00  0.00    -0.317 NA 
ENDROOT
BRANCH  12  13
ATOM     13  C1*   A A   1     -10.588  13.916  67.905  1.00  0.00    -0.245 C  
ATOM     14  O4*   A A   1     -10.234  12.702  68.608  1.00  0.00    -0.222 OA 
ATOM     15  C4*   A A   1     -11.214  12.491  69.659  1.00  0.00    -0.020 C  
ATOM     16  C3*   A A   1     -11.907  13.832  69.924  1.00  0.00    -0.327 C  
ATOM     17  H2*   A A   1     -12.383  16.451  69.222  1.00  0.00     0.000 HD 
ATOM     18  C2*   A A   1     -11.205  14.807  68.984  1.00  0.00    -0.270 C  
ATOM     19  O3*   A A   1     -11.746  14.226  71.292  1.00  0.00    -0.486 OA 
ATOM     20  H3*   A A   1     -12.176  15.057  71.457  1.00  0.00     0.000 HD 
ATOM     21  O2*   A A   1     -12.000  15.897  68.551  1.00  0.00    -0.306 OA 
BRANCH  15  22
ATOM     22  C5*   A A   1     -12.213  11.417  69.210  1.00  0.00    -0.204 C  
ATOM     23  O5*   A A   1     -11.699  10.703  68.089  1.00  0.00    -0.671 OA 
ATOM     24  H5*   A A   1     -12.317  10.038  67.810  1.00  0.00     0.000 HD 
ENDBRANCH  15  22
ENDBRANCH  12  13
TORSDOF 2
ENDMDL
MODEL       15
REMARK 921   NORMALIZED FREE ENERGY PREDICTED BY IDOCK:   -6.14 KCAL/MOL
REMARK 922        TOTAL FREE ENERGY PREDICTED BY IDOCK:   -6.93 KCAL/MOL
REMARK 923 INTER-LIGAND FREE ENERGY PREDICTED BY IDOCK:   -7.03 KCAL/MOL
REMARK 924 INTRA-LIGAND FREE ENERGY PREDICTED BY IDOCK:    0.10 KCAL/MOL
REMARK 927      BINDING AFFINITY PREDICTED BY RF-SCORE:    0.00 PKD
ROOT
ATOM      1  N6    A A   1     -12.397  11.510  62.976  1.00  0.00    -0.935 NA 
ATOM      2  C6    A A   1     -11.987  12.617  63.709  1.00  0.00    -0.510 A  
ATOM      3  H62   A A   1     -12.394  11.748  61.985  1.00  0.00     0.000 HD 
ATOM      4  H61   A A   1     -11.900  10.629  63.107  1.00  0.00     0.000 HD 
ATOM      5  N1    A A   1     -12.645  13.782  63.536  1.00  0.00    -0.808 NA 
ATOM      6  C2    A A   1     -12.244  14.856  64.250  1.00  0.00    -0.344 A  
ATOM      7  N3    A A   1     -11.248  14.937  65.165  1.00  0.00    -0.369 NA 
ATOM      8  C4    A A   1     -10.623  13.754  65.299  1.00  0.00    -0.353 A  
ATOM      9  C5    A A   1     -10.933  12.571  64.636  1.00  0.00    -0.310 A  
ATOM     10  N7    A A   1     -10.120  11.543  65.053  1.00  0.00    -0.257 NA 
ATOM     11  C8    A A   1      -9.321  12.090  65.939  1.00  0.00    -0.157 A  
ATOM     12  N9    A A   1      -9.572  13.434  66.112  1.00  0.00    -0.244 NA 
ENDROOT
BRANCH  12  13
ATOM     13  C1*   A A   1      -8.826  14.240  67.051  1.00  0.00    -0.226 C  
ATOM     14  O4*   A A   1      -9.164  13.753  68.372  1.00  0.00    -0.198 OA 
ATOM     15  C4*   A A   1     -10.177  14.632  68.927  1.00  0.00    -0.241 C  
ATOM     16  C3*   A A   1     -10.126  15.951  68.148  1.00  0.00    -0.229 C  
ATOM     17  H2*   A A   1      -9.195  17.430  66.021  1.00  0.00     0.000 HD 
ATOM     18  C2*   A A   1      -8.979  15.757  67.161  1.00  0.00    -0.214 C  
ATOM     19  O3*   A A   1      -9.870  17.052  69.029  1.00  0.00    -0.265 OA 
ATOM     20  H3*   A A   1      -9.838  17.869  68.546  1.00  0.00     0.000 HD 
ATOM     21  O2*   A A   1      -9.100  16.488  65.953  1.00  0.00    -0.460 OA 
BRANCH  15  22
ATOM     22  C5*   A A   1     -11.550  13.958  68.808  1.00  0.00    -0.335 C  
ATOM     23  O5*   A A   1     -12.456  14.804  68.104  1.00  0.00    -0.574 OA 
ATOM     24  H5*   A A   1     -13.306  14.386  68.031  1.00  0.00     0.000 HD 
ENDBRANCH  15  22
ENDBRANCH  12  13
TORSDOF 2
ENDMDL
MODEL       16
REMARK 921   NORMALIZED FREE ENERGY PREDICTED BY IDOCK:   -6.10 KCAL/MOL
REMARK 922        TOTAL FREE ENERGY PREDICTED BY IDOCK:   -6.88 KCAL/MOL
REMARK 923 INTER-LIGAND FREE ENERGY PREDICTED BY IDOCK:   -6.62 KCAL/MOL
REMARK 924 INTRA-LIGAND FREE ENERGY PREDICTED BY IDOCK:   -0.26 KCAL/MOL
REMARK 927      BINDING AFFINITY PREDICTED BY RF-SCORE:    0.00 PKD
ROOT
ATOM      1  N6    A A   1     -11.891  13.339  70.474  1.00  0.00    -0.542 NA 
ATOM      2  C6    A A   1     -11.674  13.733  69.159  1.00  0.00    -0.334 A  
ATOM      3  H62   A A   1     -11.352  12.493  70.660  1.00  0.00     0.000 HD 
ATOM      4  H61   A A   1     -11.717  14.014  71.219  1.00  0.00     0.000 HD 
ATOM      5  N1    A A   1     -11.904  12.840  68.174  1.00  0.00    -0.341 NA 
ATOM      6  C2    A A   1     -11.693  13.227  66.897  1.00  0.00    -0.388 A  
ATOM      7  N3    A A   1     -11.283  14.433  66.438  1.00  0.00    -0.337 NA 
ATOM      8  C4    A A   1     -11.065  15.284  67.455  1.00  0.00    -0.324 A  
ATOM      9  C5    A A   1     -11.247  15.024  68.810  1.00  0.00    -0.277 A  
ATOM     10  N7    A A   1     -10.978  16.140  69.568  1.00  0.00    -0.317 NA 
ATOM     11  C8    A A   1     -10.623  17.055  68.697  1.00  0.00    -0.362 A  
ATOM     12  N9    A A   1     -10.642  16.583  67.402  1.00  0.00    -0.317 NA 
ENDROOT
BRANCH  12  13
ATOM     13  C1*   A A   1     -10.305  17.421  66.275  1.00  0.00    -0.330 C  
ATOM     14  O4*   A A   1      -9.033  16.947  65.774  1.00  0.00    -0.524 OA 
ATOM     15  C4*   A A   1      -7.992  17.809  66.306  1.00  0.00    -0.247 C  
ATOM     16  C3*   A A   1      -8.655  19.116  66.752  1.00  0.00    -0.309 C  
ATOM     17  H2*   A A   1     -10.926  20.586  67.264  1.00  0.00     0.000 HD 
ATOM     18  C2*   A A   1     -10.124  18.936  66.380  1.00  0.00    -0.409 C  
ATOM     19  O3*   A A   1      -8.082  20.237  66.067  1.00  0.00    -0.519 OA 
ATOM     20  H3*   A A   1      -8.492  21.047  66.344  1.00  0.00     0.000 HD 
ATOM     21  O2*   A A   1     -11.038  19.645  67.199  1.00  0.00    -0.420 OA 
BRANCH  15  22
ATOM     22  C5*   A A   1      -7.298  17.098  67.475  1.00  0.00    -0.161 C  
ATOM     23  O5*   A A   1      -7.531  15.694  67.408  1.00  0.00    -0.166 OA 
ATOM     24  H5*   A A   1      -7.101  15.254  68.132  1.00  0.00     0.000 HD 
ENDBRANCH  15  22
ENDBRANCH  12  13
TORSDOF 2
ENDMDL
MODEL       17
REMARK 921   NORMALIZED FREE ENERGY PREDICTED BY IDOCK:   -6.09 KCAL/MOL
REMARK 922        TOTAL FREE ENERGY PREDICTED BY IDOCK:   -6.87 KCAL/MOL
REMARK 923 INTER-LIGAND FREE ENERGY PREDICTED BY IDOCK:   -6.59 KCAL/MOL
REMARK 924 INTRA-LIGAND FREE ENERGY PREDICTED BY IDOCK:   -0.28 KCAL/MOL
REMARK 927      BINDING AFFINITY PREDICTED BY RF-SCORE:    0.00 PKD
ROOT
ATOM      1  N6    A A   1     -11.961  16.027  63.707  1.00  0.00    -1.339 NA 
ATOM      2  C6    A A   1     -11.241  15.807  64.876  1.00  0.00    -0.350 A  
ATOM      3  H62   A A   1     -11.311  16.255  62.955  1.00  0.00     0.000 HD 
ATOM      4  H61   A A   1     -12.599  15.299  63.386  1.00  0.00     0.000 HD 
ATOM      5  N1    A A   1     -10.397  16.770  65.302  1.00  0.00    -0.643 NA 
ATOM      6  C2    A A   1      -9.699  16.554  66.438  1.00  0.00    -0.285 A  
ATOM      7  N3    A A   1      -9.734  15.475  67.256  1.00  0.00    -0.218 NA 
ATOM      8  C4    A A   1     -10.585  14.546  66.788  1.00  0.00    -0.276 A  
ATOM      9  C5    A A   1     -11.369  14.638  65.643  1.00  0.00    -0.338 A  
ATOM     10  N7    A A   1     -12.161  13.523  65.494  1.00  0.00    -0.392 NA 
ATOM     11  C8    A A   1     -11.854  12.760  66.517  1.00  0.00    -0.405 A  
ATOM     12  N9    A A   1     -10.891  13.325  67.324  1.00  0.00    -0.262 NA 
ENDROOT
BRANCH  12  13
ATOM     13  C1*   A A   1     -10.410  12.671  68.520  1.00  0.00    -0.221 C  
ATOM     14  O4*   A A   1      -9.030  12.316  68.269  1.00  0.00    -0.190 OA 
ATOM     15  C4*   A A   1      -8.990  10.917  67.884  1.00  0.00    -0.141 C  
ATOM     16  C3*   A A   1     -10.293  10.267  68.361  1.00  0.00    -0.177 C  
ATOM     17  H2*   A A   1     -12.828  10.494  69.410  1.00  0.00     0.000 HD 
ATOM     18  C2*   A A   1     -11.030  11.391  69.081  1.00  0.00    -0.236 C  
ATOM     19  O3*   A A   1     -10.022   9.174  69.247  1.00  0.00    -0.177 OA 
ATOM     20  H3*   A A   1     -10.829   8.771  69.543  1.00  0.00     0.000 HD 
ATOM     21  O2*   A A   1     -12.443  11.289  69.060  1.00  0.00    -0.417 OA 
BRANCH  15  22
ATOM     22  C5*   A A   1      -8.832  10.818  66.361  1.00  0.00    -0.165 C  
ATOM     23  O5*   A A   1      -8.346  12.049  65.834  1.00  0.00    -0.359 OA 
ATOM     24  H5*   A A   1      -8.247  11.988  64.891  1.00  0.00     0.000 HD 
ENDBRANCH  15  22
ENDBRANCH  12  13
TORSDOF 2
ENDMDL
MODEL       18
REMARK 921   NORMALIZED FREE ENERGY PREDICTED BY IDOCK:   -6.08 KCAL/MOL
REMARK 922        TOTAL FREE ENERGY PREDICTED BY IDOCK:   -6.85 KCAL/MOL
REMARK 923 INTER-LIGAND FREE ENERGY PREDICTED BY IDOCK:   -6.91 KCAL/MOL
REMARK 924 INTRA-LIGAND FREE ENERGY PREDICTED BY IDOCK:    0.06 KCAL/MOL
REMARK 927      BINDING AFFINITY PREDICTED BY RF-SCORE:    0.00 PKD
ROOT
ATOM      1  N6    A A   1     -11.521  11.024  70.863  1.00  0.00    -0.260 NA 
ATOM      2  C6    A A   1     -11.712  11.975  69.868  1.00  0.00    -0.299 A  
ATOM      3  H62   A A   1     -12.358  10.979  71.444  1.00  0.00     0.000 HD 
ATOM      4  H61   A A   1     -11.257  10.078  70.587  1.00  0.00     0.000 HD 
ATOM      5  N1    A A   1     -12.060  13.227  70.234  1.00  0.00    -0.355 NA 
ATOM      6  C2    A A   1     -12.244  14.149  69.265  1.00  0.00    -0.269 A  
ATOM      7  N3    A A   1     -12.110  14.003  67.925  1.00  0.00    -0.339 NA 
ATOM      8  C4    A A   1     -11.765  12.742  67.612  1.00  0.00    -0.367 A  
ATOM      9  C5    A A   1     -11.537  11.698  68.503  1.00  0.00    -0.317 A  
ATOM     10  N7    A A   1     -11.152  10.556  67.839  1.00  0.00    -0.292 NA 
ATOM     11  C8    A A   1     -11.161  10.892  66.570  1.00  0.00    -0.048 A  
ATOM     12  N9    A A   1     -11.543  12.202  66.376  1.00  0.00    -0.477 NA 
ENDROOT
BRANCH  12  13
ATOM     13  C1*   A A   1     -11.608  12.796  65.060  1.00  0.00    -0.337 C  
ATOM     14  O4*   A A   1     -10.247  13.108  64.681  1.00  0.00    -0.349 OA 
ATOM     15  C4*   A A   1     -10.021  14.518  64.947  1.00  0.00    -0.073 C  
ATOM     16  C3*   A A   1     -11.390  15.199  65.041  1.00  0.00    -0.380 C  
ATOM     17  H2*   A A   1     -14.134  15.029  65.185  1.00  0.00     0.000 HD 
ATOM     18  C2*   A A   1     -12.384  14.078  64.757  1.00  0.00    -0.413 C  
ATOM     19  O3*   A A   1     -11.503  16.249  64.073  1.00  0.00    -1.371 OA 
ATOM     20  H3*   A A   1     -12.352  16.671  64.132  1.00  0.00     0.000 HD 
ATOM     21  O2*   A A   1     -13.651  14.232  65.374  1.00  0.00    -0.516 OA 
BRANCH  15  22
ATOM     22  C5*   A A   1      -9.224  14.664  66.250  1.00  0.00    -0.222 C  
ATOM     23  O5*   A A   1      -9.795  15.684  67.065  1.00  0.00    -0.228 OA 
ATOM     24  H5*   A A   1      -9.302  15.775  67.872  1.00  0.00     0.000 HD 
ENDBRANCH  15  22
ENDBRANCH  12  13
TORSDOF 2
ENDMDL
MODEL       19
REMARK 921   NORMALIZED FREE ENERGY PREDICTED BY IDOCK:   -6.07 KCAL/MOL
REMARK 922        TOTAL FREE ENERGY PREDICTED BY IDOCK:   -6.85 KCAL/MOL
REMARK 923 INTER-LIGAND FREE ENERGY PREDICTED BY IDOCK:   -6.72 KCAL/MOL
REMARK 924 INTRA-LIGAND FREE ENERGY PREDICTED BY IDOCK:   -0.13 KCAL/MOL
REMARK 927      BINDING AFFINITY PREDICTED BY RF-SCORE:    0.00 PKD
ROOT
ATOM      1  N6    A A   1     -10.358  17.888  68.184  1.00  0.00    -0.378 NA 
ATOM      2  C6    A A   1     -10.904  16.611  68.256  1.00  0.00    -0.356 A  
ATOM      3  H62   A A   1      -9.605  17.965  68.866  1.00  0.00     0.000 HD 
ATOM      4  H61   A A   1     -10.025  18.223  67.281  1.00  0.00     0.000 HD 
ATOM      5  N1    A A   1     -11.346  16.167  69.451  1.00  0.00    -0.333 NA 
ATOM      6  C2    A A   1     -11.876  14.927  69.518  1.00  0.00    -0.325 A  
ATOM      7  N3    A A   1     -12.052  14.030  68.518  1.00  0.00    -0.342 NA 
ATOM      8  C4    A A   1     -11.595  14.517  67.351  1.00  0.00    -0.385 A  
ATOM      9  C5    A A   1     -11.035  15.773  67.138  1.00  0.00    -0.244 A  
ATOM     10  N7    A A   1     -10.723  15.956  65.810  1.00  0.00    -0.331 NA 
ATOM     11  C8    A A   1     -11.071  14.831  65.229  1.00  0.00    -0.370 A  
ATOM     12  N9    A A   1     -11.588  13.917  66.122  1.00  0.00    -0.345 NA 
ENDROOT
BRANCH  12  13
ATOM     13  C1*   A A   1     -12.053  12.615  65.705  1.00  0.00    -0.443 C  
ATOM     14  O4*   A A   1     -11.684  11.689  66.755  1.00  0.00    -0.541 OA 
ATOM     15  C4*   A A   1     -10.461  11.019  66.351  1.00  0.00    -0.258 C  
ATOM     16  C3*   A A   1     -10.326  11.173  64.833  1.00  0.00    -0.313 C  
ATOM     17  H2*   A A   1     -11.154  12.313  62.468  1.00  0.00     0.000 HD 
ATOM     18  C2*   A A   1     -11.585  11.930  64.421  1.00  0.00    -0.292 C  
ATOM     19  O3*   A A   1     -10.259   9.892  64.195  1.00  0.00    -0.401 OA 
ATOM     20  H3*   A A   1     -10.175   9.988  63.254  1.00  0.00     0.000 HD 
ATOM     21  O2*   A A   1     -11.445  12.739  63.266  1.00  0.00    -0.476 OA 
BRANCH  15  22
ATOM     22  C5*   A A   1      -9.274  11.647  67.093  1.00  0.00    -0.176 C  
ATOM     23  O5*   A A   1      -8.591  12.565  66.243  1.00  0.00    -0.412 OA 
ATOM     24  H5*   A A   1      -7.856  12.954  66.702  1.00  0.00     0.000 HD 
ENDBRANCH  15  22
ENDBRANCH  12  13
TORSDOF 2
ENDMDL
MODEL       20
REMARK 921   NORMALIZED FREE ENERGY PREDICTED BY IDOCK:   -6.04 KCAL/MOL
REMARK 922        TOTAL FREE ENERGY PREDICTED BY IDOCK:   -6.82 KCAL/MOL
REMARK 923 INTER-LIGAND FREE ENERGY PREDICTED BY IDOCK:   -6.82 KCAL/MOL
REMARK 924 INTRA-LIGAND FREE ENERGY PREDICTED BY IDOCK:    0.00 KCAL/MOL
REMARK 927      BINDING AFFINITY PREDICTED BY RF-SCORE:    0.00 PKD
ROOT
ATOM      1  N6    A A   1      -9.718  20.496  67.012  1.00  0.00    -0.574 NA 
ATOM      2  C6    A A   1      -9.169  19.255  66.709  1.00  0.00    -0.323 A  
ATOM      3  H62   A A   1      -9.840  21.024  66.149  1.00  0.00     0.000 HD 
ATOM      4  H61   A A   1     -10.586  20.526  67.546  1.00  0.00     0.000 HD 
ATOM      5  N1    A A   1      -8.020  19.216  66.004  1.00  0.00    -0.436 NA 
ATOM      6  C2    A A   1      -7.489  18.009  65.711  1.00  0.00    -0.083 A  
ATOM      7  N3    A A   1      -7.950  16.780  66.049  1.00  0.00    -0.380 NA 
ATOM      8  C4    A A   1      -9.095  16.874  66.747  1.00  0.00    -0.245 A  
ATOM      9  C5    A A   1      -9.746  18.044  67.123  1.00  0.00    -0.297 A  
ATOM     10  N7    A A   1     -10.866  17.768  67.874  1.00  0.00    -0.310 NA 
ATOM     11  C8    A A   1     -10.906  16.458  67.940  1.00  0.00    -0.328 A  
ATOM     12  N9    A A   1      -9.865  15.865  67.258  1.00  0.00    -0.232 NA 
ENDROOT
BRANCH  12  13
ATOM     13  C1*   A A   1      -9.696  14.431  67.209  1.00  0.00    -0.233 C  
ATOM     14  O4*   A A   1      -9.870  14.042  65.826  1.00  0.00    -0.301 OA 
ATOM     15  C4*   A A   1     -11.229  13.559  65.665  1.00  0.00    -0.292 C  
ATOM     16  C3*   A A   1     -11.760  13.191  67.054  1.00  0.00    -0.377 C  
ATOM     17  H2*   A A   1     -11.487  13.208  69.793  1.00  0.00     0.000 HD 
ATOM     18  C2*   A A   1     -10.582  13.457  67.986  1.00  0.00    -0.243 C  
ATOM     19  O3*   A A   1     -12.157  11.815  67.100  1.00  0.00    -0.592 OA 
ATOM     20  H3*   A A   1     -12.486  11.588  67.961  1.00  0.00     0.000 HD 
ATOM     21  O2*   A A   1     -10.937  13.814  69.311  1.00  0.00    -0.236 OA 
BRANCH  15  22
ATOM     22  C5*   A A   1     -12.079  14.652  65.005  1.00  0.00    -0.349 C  
ATOM     23  O5*   A A   1     -12.266  14.364  63.622  1.00  0.00    -0.988 OA 
ATOM     24  H5*   A A   1     -12.792  15.042  63.213  1.00  0.00     0.000 HD 
ENDBRANCH  15  22
ENDBRANCH  12  13
TORSDOF 2
ENDMDL
MODEL       21
REMARK 921   NORMALIZED FREE ENERGY PREDICTED BY IDOCK:   -6.04 KCAL/MOL
REMARK 922        TOTAL FREE ENERGY PREDICTED BY IDOCK:   -6.81 KCAL/MOL
REMARK 923 INTER-LIGAND FREE ENERGY PREDICTED BY IDOCK:   -6.55 KCAL/MOL
REMARK 924 INTRA-LIGAND FREE ENERGY PREDICTED BY IDOCK:   -0.26 KCAL/MOL
REMARK 927      BINDING AFFINITY PREDICTED BY RF-SCORE:    0.00 PKD
ROOT
ATOM      1  N6    A A   1     -12.272  15.866  63.788  1.00  0.00    -1.141 NA 
ATOM      2  C6    A A   1     -11.957  14.528  63.990  1.00  0.00    -0.209 A  
ATOM      3  H62   A A   1     -13.275  15.995  63.918  1.00  0.00     0.000 HD 
ATOM      4  H61   A A   1     -11.773  16.570  64.334  1.00  0.00     0.000 HD 
ATOM      5  N1    A A   1     -12.615  13.597  63.267  1.00  0.00    -0.755 NA 
ATOM      6  C2    A A   1     -12.308  12.297  63.464  1.00  0.00    -0.565 A  
ATOM      7  N3    A A   1     -11.386  11.767  64.304  1.00  0.00    -0.340 NA 
ATOM      8  C4    A A   1     -10.761  12.731  65.001  1.00  0.00    -0.296 A  
ATOM      9  C5    A A   1     -10.972  14.102  64.894  1.00  0.00    -0.397 A  
ATOM     10  N7    A A   1     -10.121  14.799  65.722  1.00  0.00    -0.319 NA 
ATOM     11  C8    A A   1      -9.419  13.872  66.332  1.00  0.00    -0.250 A  
ATOM     12  N9    A A   1      -9.780  12.600  65.944  1.00  0.00    -0.241 NA 
ENDROOT
BRANCH  12  13
ATOM     13  C1*   A A   1      -9.129  11.423  66.471  1.00  0.00    -0.186 C  
ATOM     14  O4*   A A   1     -10.145  10.670  67.175  1.00  0.00    -0.191 OA 
ATOM     15  C4*   A A   1     -10.025  10.969  68.590  1.00  0.00    -0.199 C  
ATOM     16  C3*   A A   1      -8.622  11.538  68.828  1.00  0.00    -0.052 C  
ATOM     17  H2*   A A   1      -6.242  12.507  67.840  1.00  0.00     0.000 HD 
ATOM     18  C2*   A A   1      -7.959  11.482  67.455  1.00  0.00    -0.143 C  
ATOM     19  O3*   A A   1      -7.906  10.743  69.781  1.00  0.00    -0.365 OA 
ATOM     20  H3*   A A   1      -7.036  11.096  69.928  1.00  0.00     0.000 HD 
ATOM     21  O2*   A A   1      -6.969  12.470  67.229  1.00  0.00    -0.149 OA 
BRANCH  15  22
ATOM     22  C5*   A A   1     -11.117  11.971  68.988  1.00  0.00    -0.239 C  
ATOM     23  O5*   A A   1     -12.136  12.012  67.993  1.00  0.00    -0.514 OA 
ATOM     24  H5*   A A   1     -12.812  12.632  68.239  1.00  0.00     0.000 HD 
ENDBRANCH  15  22
ENDBRANCH  12  13
TORSDOF 2
ENDMDL
MODEL       22
REMARK 921   NORMALIZED FREE ENERGY PREDICTED BY IDOCK:   -5.98 KCAL/MOL
REMARK 922        TOTAL FREE ENERGY PREDICTED BY IDOCK:   -6.75 KCAL/MOL
REMARK 923 INTER-LIGAND FREE ENERGY PREDICTED BY IDOCK:   -6.71 KCAL/MOL
REMARK 924 INTRA-LIGAND FREE ENERGY PREDICTED BY IDOCK:   -0.04 KCAL/MOL
REMARK 927      BINDING AFFINITY PREDICTED BY RF-SCORE:    0.00 PKD
ROOT
ATOM      1  N6    A A   1     -12.151  16.417  71.889  1.00  0.00    -0.628 NA 
ATOM      2  C6    A A   1     -12.219  15.184  71.251  1.00  0.00    -0.333 A  
ATOM      3  H62   A A   1     -11.490  16.354  72.662  1.00  0.00     0.000 HD 
ATOM      4  H61   A A   1     -11.930  17.241  71.330  1.00  0.00     0.000 HD 
ATOM      5  N1    A A   1     -12.511  14.093  71.989  1.00  0.00    -0.263 NA 
ATOM      6  C2    A A   1     -12.577  12.897  71.367  1.00  0.00    -0.220 A  
ATOM      7  N3    A A   1     -12.402  12.619  70.052  1.00  0.00    -0.158 NA 
ATOM      8  C4    A A   1     -12.111  13.735  69.362  1.00  0.00    -0.328 A  
ATOM      9  C5    A A   1     -12.018  15.026  69.870  1.00  0.00    -0.334 A  
ATOM     10  N7    A A   1     -11.754  15.934  68.870  1.00  0.00    -0.396 NA 
ATOM     11  C8    A A   1     -11.671  15.210  67.778  1.00  0.00    -0.232 A  
ATOM     12  N9    A A   1     -11.862  13.867  68.023  1.00  0.00    -0.360 NA 
ENDROOT
BRANCH  12  13
ATOM     13  C1*   A A   1     -11.833  12.882  66.967  1.00  0.00    -0.374 C  
ATOM     14  O4*   A A   1     -10.568  12.188  67.085  1.00  0.00    -0.219 OA 
ATOM     15  C4*   A A   1      -9.648  12.768  66.123  1.00  0.00    -0.212 C  
ATOM     16  C3*   A A   1     -10.481  13.501  65.066  1.00  0.00    -0.376 C  
ATOM     17  H2*   A A   1     -12.903  14.478  64.194  1.00  0.00     0.000 HD 
ATOM     18  C2*   A A   1     -11.925  13.241  65.483  1.00  0.00    -0.405 C  
ATOM     19  O3*   A A   1     -10.218  12.978  63.759  1.00  0.00    -0.642 OA 
ATOM     20  H3*   A A   1     -10.734  13.433  63.104  1.00  0.00     0.000 HD 
ATOM     21  O2*   A A   1     -12.845  14.255  65.116  1.00  0.00    -0.659 OA 
BRANCH  15  22
ATOM     22  C5*   A A   1      -8.691  13.721  66.851  1.00  0.00    -0.154 C  
ATOM     23  O5*   A A   1      -8.607  14.962  66.156  1.00  0.00    -0.418 OA 
ATOM     24  H5*   A A   1      -8.014  15.552  66.606  1.00  0.00     0.000 HD 
ENDBRANCH  15  22
ENDBRANCH  12  13
TORSDOF 2
ENDMDL
MODEL       23
REMARK 921   NORMALIZED FREE ENERGY PREDICTED BY IDOCK:   -5.96 KCAL/MOL
REMARK 922        TOTAL FREE ENERGY PREDICTED BY IDOCK:   -6.73 KCAL/MOL
REMARK 923 INTER-LIGAND FREE ENERGY PREDICTED BY IDOCK:   -7.09 KCAL/MOL
REMARK 924 INTRA-LIGAND FREE ENERGY PREDICTED BY IDOCK:    0.36 KCAL/MOL
REMARK 927      BINDING AFFINITY PREDICTED BY RF-SCORE:    0.00 PKD
ROOT
ATOM      1  N6    A A   1     -10.343  17.765  69.080  1.00  0.00    -0.397 NA 
ATOM      2  C6    A A   1     -10.584  17.078  67.897  1.00  0.00    -0.365 A  
ATOM      3  H62   A A   1     -10.745  18.700  69.008  1.00  0.00     0.000 HD 
ATOM      4  H61   A A   1     -10.644  17.341  69.958  1.00  0.00     0.000 HD 
ATOM      5  N1    A A   1     -10.186  17.638  66.735  1.00  0.00    -0.324 NA 
ATOM      6  C2    A A   1     -10.420  16.968  65.587  1.00  0.00    -0.216 A  
ATOM      7  N3    A A   1     -11.006  15.758  65.421  1.00  0.00    -0.334 NA 
ATOM      8  C4    A A   1     -11.386  15.243  66.604  1.00  0.00    -0.170 A  
ATOM      9  C5    A A   1     -11.203  15.818  67.857  1.00  0.00    -0.313 A  
ATOM     10  N7    A A   1     -11.669  14.992  68.854  1.00  0.00    -0.322 NA 
ATOM     11  C8    A A   1     -12.142  13.943  68.220  1.00  0.00    -0.287 A  
ATOM     12  N9    A A   1     -12.011  14.053  66.853  1.00  0.00    -0.430 NA 
ENDROOT
BRANCH  12  13
ATOM     13  C1*   A A   1     -12.447  13.009  65.954  1.00  0.00    -0.256 C  
ATOM     14  O4*   A A   1     -11.721  11.814  66.327  1.00  0.00    -0.482 OA 
ATOM     15  C4*   A A   1     -10.596  11.672  65.420  1.00  0.00    -0.280 C  
ATOM     16  C3*   A A   1     -10.894  12.514  64.175  1.00  0.00    -0.382 C  
ATOM     17  H2*   A A   1     -12.438  14.386  62.875  1.00  0.00     0.000 HD 
ATOM     18  C2*   A A   1     -12.283  13.088  64.436  1.00  0.00    -0.406 C  
ATOM     19  O3*   A A   1     -10.883  11.701  62.996  1.00  0.00    -0.651 OA 
ATOM     20  H3*   A A   1     -11.067  12.223  62.224  1.00  0.00     0.000 HD 
ATOM     21  O2*   A A   1     -12.540  14.337  63.818  1.00  0.00    -0.821 OA 
BRANCH  15  22
ATOM     22  C5*   A A   1      -9.317  12.139  66.126  1.00  0.00    -0.195 C  
ATOM     23  O5*   A A   1      -9.087  13.521  65.870  1.00  0.00    -0.457 OA 
ATOM     24  H5*   A A   1      -8.295  13.810  66.307  1.00  0.00     0.000 HD 
ENDBRANCH  15  22
ENDBRANCH  12  13
TORSDOF 2
ENDMDL
MODEL       24
REMARK 921   NORMALIZED FREE ENERGY PREDICTED BY IDOCK:   -5.95 KCAL/MOL
REMARK 922        TOTAL FREE ENERGY PREDICTED BY IDOCK:   -6.71 KCAL/MOL
REMARK 923 INTER-LIGAND FREE ENERGY PREDICTED BY IDOCK:   -6.59 KCAL/MOL
REMARK 924 INTRA-LIGAND FREE ENERGY PREDICTED BY IDOCK:   -0.12 KCAL/MOL
REMARK 927      BINDING AFFINITY PREDICTED BY RF-SCORE:    0.00 PKD
ROOT
ATOM      1  N6    A A   1     -11.406  16.239  64.042  1.00  0.00    -1.475 NA 
ATOM      2  C6    A A   1     -11.604  14.884  64.275  1.00  0.00    -0.191 A  
ATOM      3  H62   A A   1     -12.308  16.713  64.053  1.00  0.00     0.000 HD 
ATOM      4  H61   A A   1     -10.757  16.746  64.644  1.00  0.00     0.000 HD 
ATOM      5  N1    A A   1     -12.462  14.213  63.479  1.00  0.00    -0.763 NA 
ATOM      6  C2    A A   1     -12.652  12.895  63.708  1.00  0.00    -0.244 A  
ATOM      7  N3    A A   1     -12.074  12.111  64.648  1.00  0.00    -0.345 NA 
ATOM      8  C4    A A   1     -11.232  12.824  65.416  1.00  0.00    -0.292 A  
ATOM      9  C5    A A   1     -10.937  14.178  65.289  1.00  0.00    -0.337 A  
ATOM     10  N7    A A   1      -9.993  14.567  66.212  1.00  0.00    -0.291 NA 
ATOM     11  C8    A A   1      -9.732  13.478  66.898  1.00  0.00    -0.261 A  
ATOM     12  N9    A A   1     -10.469  12.396  66.467  1.00  0.00    -0.228 NA 
ENDROOT
BRANCH  12  13
ATOM     13  C1*   A A   1     -10.334  11.088  67.065  1.00  0.00    -0.228 C  
ATOM     14  O4*   A A   1     -11.585  10.809  67.735  1.00  0.00    -0.521 OA 
ATOM     15  C4*   A A   1     -11.415  11.110  69.146  1.00  0.00    -0.298 C  
ATOM     16  C3*   A A   1      -9.912  11.118  69.441  1.00  0.00     0.085 C  
ATOM     17  H2*   A A   1      -7.306  11.068  68.553  1.00  0.00     0.000 HD 
ATOM     18  C2*   A A   1      -9.268  10.750  68.108  1.00  0.00    -0.151 C  
ATOM     19  O3*   A A   1      -9.587  10.160  70.455  1.00  0.00    -0.369 OA 
ATOM     20  H3*   A A   1      -8.655  10.165  70.638  1.00  0.00     0.000 HD 
ATOM     21  O2*   A A   1      -7.968  11.279  67.905  1.00  0.00    -0.111 OA 
BRANCH  15  22
ATOM     22  C5*   A A   1     -12.060  12.468  69.454  1.00  0.00    -0.180 C  
ATOM     23  O5*   A A   1     -11.123  13.323  70.102  1.00  0.00    -0.395 OA 
ATOM     24  H5*   A A   1     -11.522  14.164  70.293  1.00  0.00     0.000 HD 
ENDBRANCH  15  22
ENDBRANCH  12  13
TORSDOF 2
ENDMDL
MODEL       25
REMARK 921   NORMALIZED FREE ENERGY PREDICTED BY IDOCK:   -5.95 KCAL/MOL
REMARK 922        TOTAL FREE ENERGY PREDICTED BY IDOCK:   -6.71 KCAL/MOL
REMARK 923 INTER-LIGAND FREE ENERGY PREDICTED BY IDOCK:   -6.57 KCAL/MOL
REMARK 924 INTRA-LIGAND FREE ENERGY PREDICTED BY IDOCK:   -0.14 KCAL/MOL
REMARK 927      BINDING AFFINITY PREDICTED BY RF-SCORE:    0.00 PKD
ROOT
ATOM      1  N6    A A   1      -8.230  19.435  65.752  1.00  0.00    -0.417 NA 
ATOM      2  C6    A A   1      -8.967  18.798  66.743  1.00  0.00    -0.308 A  
ATOM      3  H62   A A   1      -7.286  19.604  66.097  1.00  0.00     0.000 HD 
ATOM      4  H61   A A   1      -8.174  18.997  64.832  1.00  0.00     0.000 HD 
ATOM      5  N1    A A   1      -9.042  19.376  67.960  1.00  0.00    -0.318 NA 
ATOM      6  C2    A A   1      -9.759  18.755  68.921  1.00  0.00    -0.344 A  
ATOM      7  N3    A A   1     -10.457  17.597  68.837  1.00  0.00    -0.322 NA 
ATOM      8  C4    A A   1     -10.349  17.060  67.610  1.00  0.00    -0.332 A  
ATOM      9  C5    A A   1      -9.653  17.592  66.529  1.00  0.00    -0.285 A  
ATOM     10  N7    A A   1      -9.798  16.802  65.411  1.00  0.00    -0.508 NA 
ATOM     11  C8    A A   1     -10.552  15.803  65.806  1.00  0.00    -0.355 A  
ATOM     12  N9    A A   1     -10.899  15.901  67.136  1.00  0.00    -0.302 NA 
ENDROOT
BRANCH  12  13
ATOM     13  C1*   A A   1     -11.740  14.921  67.784  1.00  0.00    -0.317 C  
ATOM     14  O4*   A A   1     -10.943  14.324  68.834  1.00  0.00    -0.242 OA 
ATOM     15  C4*   A A   1     -10.420  13.064  68.338  1.00  0.00    -0.252 C  
ATOM     16  C3*   A A   1     -11.283  12.639  67.146  1.00  0.00    -0.300 C  
ATOM     17  H2*   A A   1     -13.240  13.209  65.295  1.00  0.00     0.000 HD 
ATOM     18  C2*   A A   1     -12.350  13.725  67.052  1.00  0.00    -0.247 C  
ATOM     19  O3*   A A   1     -11.872  11.354  67.376  1.00  0.00    -0.609 OA 
ATOM     20  H3*   A A   1     -12.407  11.091  66.637  1.00  0.00     0.000 HD 
ATOM     21  O2*   A A   1     -12.860  13.951  65.749  1.00  0.00    -0.501 OA 
BRANCH  15  22
ATOM     22  C5*   A A   1      -8.951  13.252  67.935  1.00  0.00    -0.199 C  
ATOM     23  O5*   A A   1      -8.757  12.857  66.580  1.00  0.00    -0.412 OA 
ATOM     24  H5*   A A   1      -7.847  12.973  66.330  1.00  0.00     0.000 HD 
ENDBRANCH  15  22
ENDBRANCH  12  13
TORSDOF 2
ENDMDL
MODEL       26
REMARK 921   NORMALIZED FREE ENERGY PREDICTED BY IDOCK:   -5.90 KCAL/MOL
REMARK 922        TOTAL FREE ENERGY PREDICTED BY IDOCK:   -6.65 KCAL/MOL
REMARK 923 INTER-LIGAND FREE ENERGY PREDICTED BY IDOCK:   -7.37 KCAL/MOL
REMARK 924 INTRA-LIGAND FREE ENERGY PREDICTED BY IDOCK:    0.71 KCAL/MOL
REMARK 927      BINDING AFFINITY PREDICTED BY RF-SCORE:    0.00 PKD
ROOT
ATOM      1  N6    A A   1     -10.889  19.949  65.475  1.00  0.00    -0.310 NA 
ATOM      2  C6    A A   1     -10.453  18.923  66.304  1.00  0.00    -0.445 A  
ATOM      3  H62   A A   1     -10.147  20.643  65.389  1.00  0.00     0.000 HD 
ATOM      4  H61   A A   1     -11.230  19.709  64.544  1.00  0.00     0.000 HD 
ATOM      5  N1    A A   1     -10.002  19.239  67.536  1.00  0.00    -0.345 NA 
ATOM      6  C2    A A   1      -9.579  18.240  68.340  1.00  0.00    -0.335 A  
ATOM      7  N3    A A   1      -9.554  16.909  68.089  1.00  0.00    -0.249 NA 
ATOM      8  C4    A A   1     -10.009  16.646  66.852  1.00  0.00    -0.271 A  
ATOM      9  C5    A A   1     -10.480  17.571  65.926  1.00  0.00    -0.249 A  
ATOM     10  N7    A A   1     -10.914  16.946  64.779  1.00  0.00    -0.849 NA 
ATOM     11  C8    A A   1     -10.697  15.670  64.995  1.00  0.00    -0.436 A  
ATOM     12  N9    A A   1     -10.133  15.434  66.230  1.00  0.00    -0.275 NA 
ENDROOT
BRANCH  12  13
ATOM     13  C1*   A A   1      -9.823  14.100  66.691  1.00  0.00    -0.283 C  
ATOM     14  O4*   A A   1     -10.044  13.214  65.569  1.00  0.00    -0.289 OA 
ATOM     15  C4*   A A   1     -11.354  12.610  65.727  1.00  0.00    -0.333 C  
ATOM     16  C3*   A A   1     -11.756  12.748  67.199  1.00  0.00    -0.380 C  
ATOM     17  H2*   A A   1     -11.311  13.800  69.703  1.00  0.00     0.000 HD 
ATOM     18  C2*   A A   1     -10.554  13.423  67.851  1.00  0.00    -0.245 C  
ATOM     19  O3*   A A   1     -12.006  11.463  67.781  1.00  0.00    -0.637 OA 
ATOM     20  H3*   A A   1     -12.255  11.549  68.693  1.00  0.00     0.000 HD 
ATOM     21  O2*   A A   1     -10.858  14.221  68.983  1.00  0.00    -0.247 OA 
BRANCH  15  22
ATOM     22  C5*   A A   1     -12.351  13.317  64.799  1.00  0.00    -0.402 C  
ATOM     23  O5*   A A   1     -13.330  12.393  64.330  1.00  0.00    -0.789 OA 
ATOM     24  H5*   A A   1     -13.947  12.830  63.756  1.00  0.00     0.000 HD 
ENDBRANCH  15  22
ENDBRANCH  12  13
TORSDOF 2
ENDMDL
MODEL       27
REMARK 921   NORMALIZED FREE ENERGY PREDICTED BY IDOCK:   -5.90 KCAL/MOL
REMARK 922        TOTAL FREE ENERGY PREDICTED BY IDOCK:   -6.65 KCAL/MOL
REMARK 923 INTER-LIGAND FREE ENERGY PREDICTED BY IDOCK:   -6.49 KCAL/MOL
REMARK 924 INTRA-LIGAND FREE ENERGY PREDICTED BY IDOCK:   -0.16 KCAL/MOL
REMARK 927      BINDING AFFINITY PREDICTED BY RF-SCORE:    0.00 PKD
ROOT
ATOM      1  N6    A A   1     -11.257  10.110  70.355  1.00  0.00    -0.308 NA 
ATOM      2  C6    A A   1     -10.447  10.571  69.324  1.00  0.00    -0.235 A  
ATOM      3  H62   A A   1     -10.789  10.281  71.245  1.00  0.00     0.000 HD 
ATOM      4  H61   A A   1     -12.215  10.456  70.412  1.00  0.00     0.000 HD 
ATOM      5  N1    A A   1      -9.179  10.113  69.249  1.00  0.00    -0.198 NA 
ATOM      6  C2    A A   1      -8.395  10.562  68.245  1.00  0.00    -0.122 A  
ATOM      7  N3    A A   1      -8.709  11.427  67.251  1.00  0.00    -0.144 NA 
ATOM      8  C4    A A   1      -9.978  11.854  67.371  1.00  0.00    -0.190 A  
ATOM      9  C5    A A   1     -10.895  11.472  68.346  1.00  0.00    -0.211 A  
ATOM     10  N7    A A   1     -12.117  12.068  68.135  1.00  0.00    -0.448 NA 
ATOM     11  C8    A A   1     -11.945  12.810  67.066  1.00  0.00    -0.295 A  
ATOM     12  N9    A A   1     -10.660  12.730  66.573  1.00  0.00    -0.252 NA 
ENDROOT
BRANCH  12  13
ATOM     13  C1*   A A   1     -10.246  13.449  65.390  1.00  0.00    -0.298 C  
ATOM     14  O4*   A A   1      -9.489  14.595  65.848  1.00  0.00    -0.283 OA 
ATOM     15  C4*   A A   1     -10.372  15.747  65.840  1.00  0.00    -0.354 C  
ATOM     16  C3*   A A   1     -11.552  15.423  64.917  1.00  0.00    -0.248 C  
ATOM     17  H2*   A A   1     -12.973  13.609  63.411  1.00  0.00     0.000 HD 
ATOM     18  C2*   A A   1     -11.231  14.033  64.376  1.00  0.00    -0.306 C  
ATOM     19  O3*   A A   1     -11.646  16.381  63.856  1.00  0.00    -1.564 OA 
ATOM     20  H3*   A A   1     -12.377  16.180  63.284  1.00  0.00     0.000 HD 
ATOM     21  O2*   A A   1     -12.361  13.246  64.041  1.00  0.00    -0.570 OA 
BRANCH  15  22
ATOM     22  C5*   A A   1     -10.838  16.037  67.273  1.00  0.00    -0.255 C  
ATOM     23  O5*   A A   1     -10.003  15.361  68.209  1.00  0.00    -0.211 OA 
ATOM     24  H5*   A A   1     -10.291  15.540  69.096  1.00  0.00     0.000 HD 
ENDBRANCH  15  22
ENDBRANCH  12  13
TORSDOF 2
ENDMDL
MODEL       28
REMARK 921   NORMALIZED FREE ENERGY PREDICTED BY IDOCK:   -5.89 KCAL/MOL
REMARK 922        TOTAL FREE ENERGY PREDICTED BY IDOCK:   -6.65 KCAL/MOL
REMARK 923 INTER-LIGAND FREE ENERGY PREDICTED BY IDOCK:   -6.57 KCAL/MOL
REMARK 924 INTRA-LIGAND FREE ENERGY PREDICTED BY IDOCK:   -0.08 KCAL/MOL
REMARK 927      BINDING AFFINITY PREDICTED BY RF-SCORE:    0.00 PKD
ROOT
ATOM      1  N6    A A   1     -12.473  13.697  63.523  1.00  0.00    -0.946 NA 
ATOM      2  C6    A A   1     -11.441  13.943  64.421  1.00  0.00    -0.361 A  
ATOM      3  H62   A A   1     -13.165  13.095  63.970  1.00  0.00     0.000 HD 
ATOM      4  H61   A A   1     -12.949  14.493  63.100  1.00  0.00     0.000 HD 
ATOM      5  N1    A A   1     -10.810  12.890  64.980  1.00  0.00    -0.289 NA 
ATOM      6  C2    A A   1      -9.808  13.133  65.852  1.00  0.00    -0.233 A  
ATOM      7  N3    A A   1      -9.309  14.327  66.252  1.00  0.00    -0.249 NA 
ATOM      8  C4    A A   1      -9.970  15.342  65.670  1.00  0.00    -0.364 A  
ATOM      9  C5    A A   1     -11.012  15.238  64.754  1.00  0.00    -0.386 A  
ATOM     10  N7    A A   1     -11.419  16.480  64.325  1.00  0.00    -1.008 NA 
ATOM     11  C8    A A   1     -10.654  17.324  64.978  1.00  0.00     0.286 A  
ATOM     12  N9    A A   1      -9.769  16.686  65.821  1.00  0.00    -0.531 NA 
ENDROOT
BRANCH  12  13
ATOM     13  C1*   A A   1      -8.817  17.414  66.627  1.00  0.00    -0.254 C  
ATOM     14  O4*   A A   1      -8.729  16.717  67.892  1.00  0.00    -0.189 OA 
ATOM     15  C4*   A A   1      -9.573  17.413  68.847  1.00  0.00    -0.223 C  
ATOM     16  C3*   A A   1      -9.813  18.828  68.310  1.00  0.00    -0.373 C  
ATOM     17  H2*   A A   1      -9.618  20.672  66.276  1.00  0.00     0.000 HD 
ATOM     18  C2*   A A   1      -9.000  18.881  67.020  1.00  0.00    -0.294 C  
ATOM     19  O3*   A A   1      -9.359  19.811  69.248  1.00  0.00    -0.234 OA 
ATOM     20  H3*   A A   1      -9.508  20.688  68.915  1.00  0.00     0.000 HD 
ATOM     21  O2*   A A   1      -9.504  19.761  66.031  1.00  0.00    -0.383 OA 
BRANCH  15  22
ATOM     22  C5*   A A   1     -10.889  16.641  69.014  1.00  0.00    -0.314 C  
ATOM     23  O5*   A A   1     -10.692  15.261  68.720  1.00  0.00    -0.227 OA 
ATOM     24  H5*   A A   1     -11.506  14.782  68.824  1.00  0.00     0.000 HD 
ENDBRANCH  15  22
ENDBRANCH  12  13
TORSDOF 2
ENDMDL
MODEL       29
REMARK 921   NORMALIZED FREE ENERGY PREDICTED BY IDOCK:   -5.88 KCAL/MOL
REMARK 922        TOTAL FREE ENERGY PREDICTED BY IDOCK:   -6.63 KCAL/MOL
REMARK 923 INTER-LIGAND FREE ENERGY PREDICTED BY IDOCK:   -7.14 KCAL/MOL
REMARK 924 INTRA-LIGAND FREE ENERGY PREDICTED BY IDOCK:    0.51 KCAL/MOL
REMARK 927      BINDING AFFINITY PREDICTED BY RF-SCORE:    0.00 PKD
ROOT
ATOM      1  N6    A A   1      -9.833   8.136  66.236  1.00  0.00    -0.443 NA 
ATOM      2  C6    A A   1      -9.869   9.449  65.782  1.00  0.00    -0.275 A  
ATOM      3  H62   A A   1      -8.863   7.829  66.288  1.00  0.00     0.000 HD 
ATOM      4  H61   A A   1     -10.300   7.913  67.116  1.00  0.00     0.000 HD 
ATOM      5  N1    A A   1      -9.253   9.744  64.618  1.00  0.00    -0.250 NA 
ATOM      6  C2    A A   1      -9.289  11.021  64.180  1.00  0.00    -0.210 A  
ATOM      7  N3    A A   1      -9.891  12.092  64.751  1.00  0.00    -0.208 NA 
ATOM      8  C4    A A   1     -10.487  11.748  65.905  1.00  0.00    -0.255 A  
ATOM      9  C5    A A   1     -10.534  10.477  66.469  1.00  0.00    -0.212 A  
ATOM     10  N7    A A   1     -11.272  10.479  67.631  1.00  0.00    -0.378 NA 
ATOM     11  C8    A A   1     -11.652  11.726  67.781  1.00  0.00    -0.304 A  
ATOM     12  N9    A A   1     -11.188  12.541  66.771  1.00  0.00    -0.280 NA 
ENDROOT
BRANCH  12  13
ATOM     13  C1*   A A   1     -11.497  13.951  66.719  1.00  0.00    -0.352 C  
ATOM     14  O4*   A A   1     -12.735  14.076  65.980  1.00  0.00    -0.475 OA 
ATOM     15  C4*   A A   1     -12.405  14.433  64.612  1.00  0.00    -0.418 C  
ATOM     16  C3*   A A   1     -10.985  15.007  64.611  1.00  0.00    -0.303 C  
ATOM     17  H2*   A A   1      -8.609  15.496  65.913  1.00  0.00     0.000 HD 
ATOM     18  C2*   A A   1     -10.574  14.989  66.080  1.00  0.00    -0.322 C  
ATOM     19  O3*   A A   1     -10.975  16.340  64.087  1.00  0.00    -1.126 OA 
ATOM     20  H3*   A A   1     -10.094  16.695  64.086  1.00  0.00     0.000 HD 
ATOM     21  O2*   A A   1      -9.182  14.851  66.310  1.00  0.00    -0.287 OA 
BRANCH  15  22
ATOM     22  C5*   A A   1     -12.513  13.186  63.724  1.00  0.00    -0.288 C  
ATOM     23  O5*   A A   1     -13.273  12.176  64.383  1.00  0.00    -0.758 OA 
ATOM     24  H5*   A A   1     -13.340  11.404  63.834  1.00  0.00     0.000 HD 
ENDBRANCH  15  22
ENDBRANCH  12  13
TORSDOF 2
ENDMDL
MODEL       30
REMARK 921   NORMALIZED FREE ENERGY PREDICTED BY IDOCK:   -5.85 KCAL/MOL
REMARK 922        TOTAL FREE ENERGY PREDICTED BY IDOCK:   -6.60 KCAL/MOL
REMARK 923 INTER-LIGAND FREE ENERGY PREDICTED BY IDOCK:   -6.47 KCAL/MOL
REMARK 924 INTRA-LIGAND FREE ENERGY PREDICTED BY IDOCK:   -0.12 KCAL/MOL
REMARK 927      BINDING AFFINITY PREDICTED BY RF-SCORE:    0.00 PKD
ROOT
ATOM      1  N6    A A   1      -7.226  10.474  69.461  1.00  0.00    -0.123 NA 
ATOM      2  C6    A A   1      -8.580  10.577  69.166  1.00  0.00    -0.150 A  
ATOM      3  H62   A A   1      -6.918   9.520  69.276  1.00  0.00     0.000 HD 
ATOM      4  H61   A A   1      -6.580  11.124  69.013  1.00  0.00     0.000 HD 
ATOM      5  N1    A A   1      -9.434   9.717  69.760  1.00  0.00    -0.216 NA 
ATOM      6  C2    A A   1     -10.750   9.820  69.472  1.00  0.00    -0.233 A  
ATOM      7  N3    A A   1     -11.367  10.706  68.654  1.00  0.00    -0.278 NA 
ATOM      8  C4    A A   1     -10.476  11.537  68.087  1.00  0.00    -0.193 A  
ATOM      9  C5    A A   1      -9.101  11.548  68.297  1.00  0.00    -0.185 A  
ATOM     10  N7    A A   1      -8.501  12.567  67.592  1.00  0.00    -0.160 NA 
ATOM     11  C8    A A   1      -9.487  13.153  66.953  1.00  0.00    -0.244 A  
ATOM     12  N9    A A   1     -10.704  12.556  67.204  1.00  0.00    -0.234 NA 
ENDROOT
BRANCH  12  13
ATOM     13  C1*   A A   1     -11.933  13.044  66.622  1.00  0.00    -0.387 C  
ATOM     14  O4*   A A   1     -12.392  12.019  65.710  1.00  0.00    -0.469 OA 
ATOM     15  C4*   A A   1     -11.990  12.400  64.368  1.00  0.00    -0.407 C  
ATOM     16  C3*   A A   1     -11.699  13.904  64.379  1.00  0.00    -0.404 C  
ATOM     17  H2*   A A   1     -11.335  16.253  65.769  1.00  0.00     0.000 HD 
ATOM     18  C2*   A A   1     -12.020  14.335  65.807  1.00  0.00    -0.393 C  
ATOM     19  O3*   A A   1     -12.528  14.590  63.434  1.00  0.00    -1.080 OA 
ATOM     20  H3*   A A   1     -12.348  15.522  63.441  1.00  0.00     0.000 HD 
ATOM     21  O2*   A A   1     -11.281  15.450  66.275  1.00  0.00    -0.282 OA 
BRANCH  15  22
ATOM     22  C5*   A A   1     -10.753  11.587  63.962  1.00  0.00    -0.384 C  
ATOM     23  O5*   A A   1      -9.719  12.456  63.508  1.00  0.00    -0.653 OA 
ATOM     24  H5*   A A   1      -8.953  11.953  63.256  1.00  0.00     0.000 HD 
ENDBRANCH  15  22
ENDBRANCH  12  13
TORSDOF 2
ENDMDL
MODEL       31
REMARK 921   NORMALIZED FREE ENERGY PREDICTED BY IDOCK:   -5.79 KCAL/MOL
REMARK 922        TOTAL FREE ENERGY PREDICTED BY IDOCK:   -6.53 KCAL/MOL
REMARK 923 INTER-LIGAND FREE ENERGY PREDICTED BY IDOCK:   -7.02 KCAL/MOL
REMARK 924 INTRA-LIGAND FREE ENERGY PREDICTED BY IDOCK:    0.48 KCAL/MOL
REMARK 927      BINDING AFFINITY PREDICTED BY RF-SCORE:    0.00 PKD
ROOT
ATOM      1  N6    A A   1     -11.015   8.777  69.367  1.00  0.00    -0.422 NA 
ATOM      2  C6    A A   1     -10.529   9.198  68.135  1.00  0.00    -0.211 A  
ATOM      3  H62   A A   1     -10.229   8.617  69.997  1.00  0.00     0.000 HD 
ATOM      4  H61   A A   1     -11.707   9.358  69.841  1.00  0.00     0.000 HD 
ATOM      5  N1    A A   1      -9.614   8.430  67.508  1.00  0.00    -0.149 NA 
ATOM      6  C2    A A   1      -9.144   8.842  66.311  1.00  0.00    -0.193 A  
ATOM      7  N3    A A   1      -9.480   9.950  65.609  1.00  0.00    -0.215 NA 
ATOM      8  C4    A A   1     -10.390  10.681  66.275  1.00  0.00    -0.234 A  
ATOM      9  C5    A A   1     -10.963  10.375  67.505  1.00  0.00    -0.295 A  
ATOM     10  N7    A A   1     -11.895  11.321  67.866  1.00  0.00    -0.634 NA 
ATOM     11  C8    A A   1     -11.879  12.193  66.885  1.00  0.00    -0.222 A  
ATOM     12  N9    A A   1     -10.971  11.862  65.902  1.00  0.00    -0.298 NA 
ENDROOT
BRANCH  12  13
ATOM     13  C1*   A A   1     -10.794  12.669  64.717  1.00  0.00    -0.302 C  
ATOM     14  O4*   A A   1      -9.923  13.763  65.089  1.00  0.00    -0.297 OA 
ATOM     15  C4*   A A   1     -10.752  14.924  65.357  1.00  0.00    -0.377 C  
ATOM     16  C3*   A A   1     -12.109  14.692  64.685  1.00  0.00    -0.454 C  
ATOM     17  H2*   A A   1     -13.871  13.026  63.382  1.00  0.00     0.000 HD 
ATOM     18  C2*   A A   1     -11.952  13.346  63.984  1.00  0.00    -0.464 C  
ATOM     19  O3*   A A   1     -12.396  15.735  63.745  1.00  0.00    -1.046 OA 
ATOM     20  H3*   A A   1     -13.237  15.591  63.328  1.00  0.00     0.000 HD 
ATOM     21  O2*   A A   1     -13.152  12.606  63.838  1.00  0.00    -0.656 OA 
BRANCH  15  22
ATOM     22  C5*   A A   1     -10.895  15.103  66.874  1.00  0.00    -0.317 C  
ATOM     23  O5*   A A   1      -9.861  15.949  67.371  1.00  0.00    -0.230 OA 
ATOM     24  H5*   A A   1      -9.950  16.060  68.311  1.00  0.00     0.000 HD 
ENDBRANCH  15  22
ENDBRANCH  12  13
TORSDOF 2
ENDMDL
MODEL       32
REMARK 921   NORMALIZED FREE ENERGY PREDICTED BY IDOCK:   -5.79 KCAL/MOL
REMARK 922        TOTAL FREE ENERGY PREDICTED BY IDOCK:   -6.53 KCAL/MOL
REMARK 923 INTER-LIGAND FREE ENERGY PREDICTED BY IDOCK:   -6.38 KCAL/MOL
REMARK 924 INTRA-LIGAND FREE ENERGY PREDICTED BY IDOCK:   -0.15 KCAL/MOL
REMARK 927      BINDING AFFINITY PREDICTED BY RF-SCORE:    0.00 PKD
ROOT
ATOM      1  N6    A A   1     -11.999  14.443  71.274  1.00  0.00    -0.417 NA 
ATOM      2  C6    A A   1     -12.050  13.386  70.374  1.00  0.00    -0.333 A  
ATOM      3  H62   A A   1     -11.279  14.253  71.970  1.00  0.00     0.000 HD 
ATOM      4  H61   A A   1     -11.867  15.386  70.909  1.00  0.00     0.000 HD 
ATOM      5  N1    A A   1     -12.225  12.138  70.858  1.00  0.00    -0.305 NA 
ATOM      6  C2    A A   1     -12.274  11.112  69.980  1.00  0.00    -0.326 A  
ATOM      7  N3    A A   1     -12.185  11.153  68.629  1.00  0.00    -0.549 NA 
ATOM      8  C4    A A   1     -12.009  12.414  68.198  1.00  0.00    -0.214 A  
ATOM      9  C5    A A   1     -11.947  13.560  68.985  1.00  0.00    -0.335 A  
ATOM     10  N7    A A   1     -11.810  14.687  68.207  1.00  0.00    -0.318 NA 
ATOM     11  C8    A A   1     -11.773  14.236  66.975  1.00  0.00    -0.403 A  
ATOM     12  N9    A A   1     -11.871  12.863  66.914  1.00  0.00    -0.385 NA 
ENDROOT
BRANCH  12  13
ATOM     13  C1*   A A   1     -11.870  12.148  65.659  1.00  0.00    -0.276 C  
ATOM     14  O4*   A A   1     -10.987  11.015  65.831  1.00  0.00    -0.173 OA 
ATOM     15  C4*   A A   1      -9.698  11.361  65.259  1.00  0.00    -0.241 C  
ATOM     16  C3*   A A   1      -9.916  12.533  64.296  1.00  0.00    -0.190 C  
ATOM     17  H2*   A A   1     -11.541  14.500  63.263  1.00  0.00     0.000 HD 
ATOM     18  C2*   A A   1     -11.421  12.775  64.338  1.00  0.00    -0.354 C  
ATOM     19  O3*   A A   1      -9.483  12.193  62.974  1.00  0.00    -0.588 OA 
ATOM     20  H3*   A A   1      -9.618  12.920  62.377  1.00  0.00     0.000 HD 
ATOM     21  O2*   A A   1     -11.819  14.111  64.084  1.00  0.00    -0.401 OA 
BRANCH  15  22
ATOM     22  C5*   A A   1      -8.727  11.729  66.388  1.00  0.00    -0.147 C  
ATOM     23  O5*   A A   1      -8.631  13.145  66.515  1.00  0.00    -0.426 OA 
ATOM     24  H5*   A A   1      -8.029  13.373  67.214  1.00  0.00     0.000 HD 
ENDBRANCH  15  22
ENDBRANCH  12  13
TORSDOF 2
ENDMDL
MODEL       33
REMARK 921   NORMALIZED FREE ENERGY PREDICTED BY IDOCK:   -5.74 KCAL/MOL
REMARK 922        TOTAL FREE ENERGY PREDICTED BY IDOCK:   -6.48 KCAL/MOL
REMARK 923 INTER-LIGAND FREE ENERGY PREDICTED BY IDOCK:   -6.29 KCAL/MOL
REMARK 924 INTRA-LIGAND FREE ENERGY PREDICTED BY IDOCK:   -0.19 KCAL/MOL
REMARK 927      BINDING AFFINITY PREDICTED BY RF-SCORE:    0.00 PKD
ROOT
ATOM      1  N6    A A   1      -9.302  17.675  65.731  1.00  0.00    -0.470 NA 
ATOM      2  C6    A A   1     -10.083  16.582  65.377  1.00  0.00    -0.066 A  
ATOM      3  H62   A A   1      -9.912  18.441  66.015  1.00  0.00     0.000 HD 
ATOM      4  H61   A A   1      -8.579  17.546  66.440  1.00  0.00     0.000 HD 
ATOM      5  N1    A A   1     -11.039  16.751  64.439  1.00  0.00    -1.072 NA 
ATOM      6  C2    A A   1     -11.796  15.687  64.097  1.00  0.00    -0.068 A  
ATOM      7  N3    A A   1     -11.726  14.417  64.563  1.00  0.00    -0.421 NA 
ATOM      8  C4    A A   1     -10.763  14.300  65.493  1.00  0.00    -0.331 A  
ATOM      9  C5    A A   1      -9.909  15.305  65.935  1.00  0.00    -0.354 A  
ATOM     10  N7    A A   1      -9.012  14.821  66.859  1.00  0.00    -0.240 NA 
ATOM     11  C8    A A   1      -9.323  13.553  66.990  1.00  0.00    -0.247 A  
ATOM     12  N9    A A   1     -10.390  13.189  66.198  1.00  0.00    -0.278 NA 
ENDROOT
BRANCH  12  13
ATOM     13  C1*   A A   1     -10.897  11.837  66.165  1.00  0.00    -0.291 C  
ATOM     14  O4*   A A   1     -12.144  11.846  66.899  1.00  0.00    -0.599 OA 
ATOM     15  C4*   A A   1     -11.878  11.364  68.242  1.00  0.00    -0.249 C  
ATOM     16  C3*   A A   1     -10.553  10.596  68.206  1.00  0.00    -0.194 C  
ATOM     17  H2*   A A   1      -8.262   9.852  66.872  1.00  0.00     0.000 HD 
ATOM     18  C2*   A A   1     -10.134  10.642  66.740  1.00  0.00    -0.224 C  
ATOM     19  O3*   A A   1     -10.735   9.246  68.649  1.00  0.00    -0.309 OA 
ATOM     20  H3*   A A   1      -9.914   8.769  68.627  1.00  0.00     0.000 HD 
ATOM     21  O2*   A A   1      -8.736  10.594  66.515  1.00  0.00    -0.139 OA 
BRANCH  15  22
ATOM     22  C5*   A A   1     -11.813  12.559  69.203  1.00  0.00    -0.296 C  
ATOM     23  O5*   A A   1     -12.323  13.729  68.570  1.00  0.00    -0.441 OA 
ATOM     24  H5*   A A   1     -12.283  14.469  69.164  1.00  0.00     0.000 HD 
ENDBRANCH  15  22
ENDBRANCH  12  13
TORSDOF 2
ENDMDL
MODEL       34
REMARK 921   NORMALIZED FREE ENERGY PREDICTED BY IDOCK:   -5.74 KCAL/MOL
REMARK 922        TOTAL FREE ENERGY PREDICTED BY IDOCK:   -6.48 KCAL/MOL
REMARK 923 INTER-LIGAND FREE ENERGY PREDICTED BY IDOCK:   -6.60 KCAL/MOL
REMARK 924 INTRA-LIGAND FREE ENERGY PREDICTED BY IDOCK:    0.12 KCAL/MOL
REMARK 927      BINDING AFFINITY PREDICTED BY RF-SCORE:    0.00 PKD
ROOT
ATOM      1  N6    A A   1      -9.790  10.353  62.337  1.00  0.00    -0.743 NA 
ATOM      2  C6    A A   1      -9.958  10.730  63.665  1.00  0.00    -0.345 A  
ATOM      3  H62   A A   1      -9.999   9.360  62.245  1.00  0.00     0.000 HD 
ATOM      4  H61   A A   1     -10.299  10.868  61.619  1.00  0.00     0.000 HD 
ATOM      5  N1    A A   1      -9.283  10.050  64.616  1.00  0.00    -0.238 NA 
ATOM      6  C2    A A   1      -9.448  10.418  65.905  1.00  0.00    -0.189 A  
ATOM      7  N3    A A   1     -10.209  11.421  66.405  1.00  0.00    -0.223 NA 
ATOM      8  C4    A A   1     -10.860  12.064  65.421  1.00  0.00    -0.291 A  
ATOM      9  C5    A A   1     -10.779  11.798  64.058  1.00  0.00    -0.378 A  
ATOM     10  N7    A A   1     -11.542  12.686  63.334  1.00  0.00    -0.501 NA 
ATOM     11  C8    A A   1     -12.088  13.466  64.237  1.00  0.00    -0.424 A  
ATOM     12  N9    A A   1     -11.722  13.121  65.520  1.00  0.00    -0.340 NA 
ENDROOT
BRANCH  12  13
ATOM     13  C1*   A A   1     -12.190  13.853  66.674  1.00  0.00    -0.424 C  
ATOM     14  O4*   A A   1     -11.510  15.131  66.656  1.00  0.00    -0.300 OA 
ATOM     15  C4*   A A   1     -10.385  15.052  67.571  1.00  0.00    -0.241 C  
ATOM     16  C3*   A A   1     -10.644  13.883  68.527  1.00  0.00    -0.252 C  
ATOM     17  H2*   A A   1     -12.111  11.666  69.241  1.00  0.00     0.000 HD 
ATOM     18  C2*   A A   1     -12.014  13.356  68.110  1.00  0.00    -0.321 C  
ATOM     19  O3*   A A   1     -10.655  14.332  69.888  1.00  0.00    -0.445 OA 
ATOM     20  H3*   A A   1     -10.816  13.607  70.480  1.00  0.00     0.000 HD 
ATOM     21  O2*   A A   1     -12.221  11.975  68.350  1.00  0.00    -0.373 OA 
BRANCH  15  22
ATOM     22  C5*   A A   1      -9.094  14.851  66.767  1.00  0.00    -0.270 C  
ATOM     23  O5*   A A   1      -9.275  15.294  65.424  1.00  0.00    -0.305 OA 
ATOM     24  H5*   A A   1      -8.475  15.169  64.926  1.00  0.00     0.000 HD 
ENDBRANCH  15  22
ENDBRANCH  12  13
TORSDOF 2
ENDMDL
MODEL       35
REMARK 921   NORMALIZED FREE ENERGY PREDICTED BY IDOCK:   -5.72 KCAL/MOL
REMARK 922        TOTAL FREE ENERGY PREDICTED BY IDOCK:   -6.46 KCAL/MOL
REMARK 923 INTER-LIGAND FREE ENERGY PREDICTED BY IDOCK:   -6.83 KCAL/MOL
REMARK 924 INTRA-LIGAND FREE ENERGY PREDICTED BY IDOCK:    0.37 KCAL/MOL
REMARK 927      BINDING AFFINITY PREDICTED BY RF-SCORE:    0.00 PKD
ROOT
ATOM      1  N6    A A   1     -13.275  13.148  71.855  1.00  0.00    -0.437 NA 
ATOM      2  C6    A A   1     -12.525  12.941  70.703  1.00  0.00    -0.252 A  
ATOM      3  H62   A A   1     -12.812  12.691  72.639  1.00  0.00     0.000 HD 
ATOM      4  H61   A A   1     -13.507  14.106  72.118  1.00  0.00     0.000 HD 
ATOM      5  N1    A A   1     -12.219  11.674  70.354  1.00  0.00    -0.358 NA 
ATOM      6  C2    A A   1     -11.490  11.476  69.235  1.00  0.00    -0.305 A  
ATOM      7  N3    A A   1     -11.014  12.398  68.365  1.00  0.00    -0.227 NA 
ATOM      8  C4    A A   1     -11.342  13.642  68.757  1.00  0.00    -0.289 A  
ATOM      9  C5    A A   1     -12.090  13.989  69.877  1.00  0.00    -0.345 A  
ATOM     10  N7    A A   1     -12.276  15.351  69.944  1.00  0.00    -0.347 NA 
ATOM     11  C8    A A   1     -11.642  15.824  68.897  1.00  0.00    -0.394 A  
ATOM     12  N9    A A   1     -11.043  14.831  68.152  1.00  0.00    -0.268 NA 
ENDROOT
BRANCH  12  13
ATOM     13  C1*   A A   1     -10.304  15.117  66.945  1.00  0.00    -0.272 C  
ATOM     14  O4*   A A   1     -11.276  15.523  65.952  1.00  0.00    -0.254 OA 
ATOM     15  C4*   A A   1     -11.564  14.374  65.112  1.00  0.00    -0.361 C  
ATOM     16  C3*   A A   1     -10.412  13.378  65.276  1.00  0.00    -0.324 C  
ATOM     17  H2*   A A   1      -8.124  12.569  66.577  1.00  0.00     0.000 HD 
ATOM     18  C2*   A A   1      -9.443  14.080  66.223  1.00  0.00    -0.227 C  
ATOM     19  O3*   A A   1      -9.793  13.104  64.013  1.00  0.00    -0.715 OA 
ATOM     20  H3*   A A   1      -9.079  12.486  64.114  1.00  0.00     0.000 HD 
ATOM     21  O2*   A A   1      -8.659  13.213  67.025  1.00  0.00    -0.205 OA 
BRANCH  15  22
ATOM     22  C5*   A A   1     -12.906  13.763  65.537  1.00  0.00    -0.419 C  
ATOM     23  O5*   A A   1     -13.114  12.520  64.872  1.00  0.00    -0.833 OA 
ATOM     24  H5*   A A   1     -13.945  12.141  65.134  1.00  0.00     0.000 HD 
ENDBRANCH  15  22
ENDBRANCH  12  13
TORSDOF 2
ENDMDL
MODEL       36
REMARK 921   NORMALIZED FREE ENERGY PREDICTED BY IDOCK:   -5.72 KCAL/MOL
REMARK 922        TOTAL FREE ENERGY PREDICTED BY IDOCK:   -6.46 KCAL/MOL
REMARK 923 INTER-LIGAND FREE ENERGY PREDICTED BY IDOCK:   -6.19 KCAL/MOL
REMARK 924 INTRA-LIGAND FREE ENERGY PREDICTED BY IDOCK:   -0.26 KCAL/MOL
REMARK 927      BINDING AFFINITY PREDICTED BY RF-SCORE:    0.00 PKD
ROOT
ATOM      1  N6    A A   1      -9.809  10.376  63.337  1.00  0.00    -0.453 NA 
ATOM      2  C6    A A   1     -10.736  11.255  63.884  1.00  0.00    -0.384 A  
ATOM      3  H62   A A   1      -9.393  10.804  62.511  1.00  0.00     0.000 HD 
ATOM      4  H61   A A   1      -9.065  10.020  63.937  1.00  0.00     0.000 HD 
ATOM      5  N1    A A   1     -11.721  11.726  63.090  1.00  0.00    -0.224 NA 
ATOM      6  C2    A A   1     -12.621  12.579  63.624  1.00  0.00    -0.392 A  
ATOM      7  N3    A A   1     -12.695  13.041  64.895  1.00  0.00    -0.706 NA 
ATOM      8  C4    A A   1     -11.693  12.546  65.643  1.00  0.00    -0.423 A  
ATOM      9  C5    A A   1     -10.706  11.658  65.228  1.00  0.00    -0.291 A  
ATOM     10  N7    A A   1      -9.872  11.324  66.270  1.00  0.00    -0.207 NA 
ATOM     11  C8    A A   1     -10.329  12.006  67.293  1.00  0.00    -0.212 A  
ATOM     12  N9    A A   1     -11.423  12.778  66.964  1.00  0.00    -0.321 NA 
ENDROOT
BRANCH  12  13
ATOM     13  C1*   A A   1     -12.104  13.600  67.937  1.00  0.00    -0.283 C  
ATOM     14  O4*   A A   1     -11.799  14.974  67.603  1.00  0.00    -0.328 OA 
ATOM     15  C4*   A A   1     -10.721  15.417  68.468  1.00  0.00    -0.256 C  
ATOM     16  C3*   A A   1     -10.676  14.474  69.675  1.00  0.00    -0.103 C  
ATOM     17  H2*   A A   1     -11.500  12.167  70.931  1.00  0.00     0.000 HD 
ATOM     18  C2*   A A   1     -11.837  13.513  69.440  1.00  0.00    -0.335 C  
ATOM     19  O3*   A A   1     -10.846  15.203  70.897  1.00  0.00    -0.509 OA 
ATOM     20  H3*   A A   1     -10.819  14.618  71.645  1.00  0.00     0.000 HD 
ATOM     21  O2*   A A   1     -11.665  12.221  69.997  1.00  0.00    -0.306 OA 
BRANCH  15  22
ATOM     22  C5*   A A   1      -9.402  15.396  67.684  1.00  0.00    -0.203 C  
ATOM     23  O5*   A A   1      -9.662  15.338  66.284  1.00  0.00    -0.259 OA 
ATOM     24  H5*   A A   1      -8.845  15.324  65.798  1.00  0.00     0.000 HD 
ENDBRANCH  15  22
ENDBRANCH  12  13
TORSDOF 2
ENDMDL
MODEL       37
REMARK 921   NORMALIZED FREE ENERGY PREDICTED BY IDOCK:   -5.64 KCAL/MOL
REMARK 922        TOTAL FREE ENERGY PREDICTED BY IDOCK:   -6.37 KCAL/MOL
REMARK 923 INTER-LIGAND FREE ENERGY PREDICTED BY IDOCK:   -7.16 KCAL/MOL
REMARK 924 INTRA-LIGAND FREE ENERGY PREDICTED BY IDOCK:    0.78 KCAL/MOL
REMARK 927      BINDING AFFINITY PREDICTED BY RF-SCORE:    0.00 PKD
ROOT
ATOM      1  N6    A A   1     -12.996  13.378  72.256  1.00  0.00    -0.317 NA 
ATOM      2  C6    A A   1     -12.605  12.819  71.045  1.00  0.00    -0.271 A  
ATOM      3  H62   A A   1     -12.418  12.992  73.002  1.00  0.00     0.000 HD 
ATOM      4  H61   A A   1     -13.011  14.395  72.340  1.00  0.00     0.000 HD 
ATOM      5  N1    A A   1     -12.586  11.474  70.934  1.00  0.00    -0.366 NA 
ATOM      6  C2    A A   1     -12.205  10.934  69.756  1.00  0.00    -0.311 A  
ATOM      7  N3    A A   1     -11.841  11.569  68.616  1.00  0.00    -0.432 NA 
ATOM      8  C4    A A   1     -11.874  12.903  68.778  1.00  0.00    -0.315 A  
ATOM      9  C5    A A   1     -12.250  13.591  69.927  1.00  0.00    -0.292 A  
ATOM     10  N7    A A   1     -12.215  14.951  69.723  1.00  0.00    -0.305 NA 
ATOM     11  C8    A A   1     -11.810  15.089  68.482  1.00  0.00    -0.291 A  
ATOM     12  N9    A A   1     -11.571  13.878  67.869  1.00  0.00    -0.322 NA 
ENDROOT
BRANCH  12  13
ATOM     13  C1*   A A   1     -11.134  13.786  66.495  1.00  0.00    -0.306 C  
ATOM     14  O4*   A A   1      -9.836  14.422  66.432  1.00  0.00    -0.271 OA 
ATOM     15  C4*   A A   1     -10.024  15.774  65.937  1.00  0.00    -0.352 C  
ATOM     16  C3*   A A   1     -11.383  15.827  65.232  1.00  0.00    -0.093 C  
ATOM     17  H2*   A A   1     -13.801  14.659  64.623  1.00  0.00     0.000 HD 
ATOM     18  C2*   A A   1     -11.908  14.397  65.327  1.00  0.00    -0.373 C  
ATOM     19  O3*   A A   1     -11.233  16.233  63.867  1.00  0.00    -1.264 OA 
ATOM     20  H3*   A A   1     -12.076  16.266  63.430  1.00  0.00     0.000 HD 
ATOM     21  O2*   A A   1     -13.320  14.280  65.349  1.00  0.00    -0.649 OA 
BRANCH  15  22
ATOM     22  C5*   A A   1      -9.958  16.756  67.114  1.00  0.00    -0.274 C  
ATOM     23  O5*   A A   1     -10.521  18.011  66.742  1.00  0.00    -0.354 OA 
ATOM     24  H5*   A A   1     -10.481  18.619  67.471  1.00  0.00     0.000 HD 
ENDBRANCH  15  22
ENDBRANCH  12  13
TORSDOF 2
ENDMDL
MODEL       38
REMARK 921   NORMALIZED FREE ENERGY PREDICTED BY IDOCK:   -5.55 KCAL/MOL
REMARK 922        TOTAL FREE ENERGY PREDICTED BY IDOCK:   -6.26 KCAL/MOL
REMARK 923 INTER-LIGAND FREE ENERGY PREDICTED BY IDOCK:   -6.39 KCAL/MOL
REMARK 924 INTRA-LIGAND FREE ENERGY PREDICTED BY IDOCK:    0.12 KCAL/MOL
REMARK 927      BINDING AFFINITY PREDICTED BY RF-SCORE:    0.00 PKD
ROOT
ATOM      1  N6    A A   1      -6.936  16.993  66.959  1.00  0.00    -0.172 NA 
ATOM      2  C6    A A   1      -7.746  15.885  67.175  1.00  0.00    -0.212 A  
ATOM      3  H62   A A   1      -5.974  16.681  66.829  1.00  0.00     0.000 HD 
ATOM      4  H61   A A   1      -7.182  17.635  66.205  1.00  0.00     0.000 HD 
ATOM      5  N1    A A   1      -7.421  15.037  68.173  1.00  0.00    -0.105 NA 
ATOM      6  C2    A A   1      -8.211  13.960  68.381  1.00  0.00    -0.153 A  
ATOM      7  N3    A A   1      -9.336  13.599  67.719  1.00  0.00    -0.209 NA 
ATOM      8  C4    A A   1      -9.615  14.473  66.736  1.00  0.00    -0.263 A  
ATOM      9  C5    A A   1      -8.897  15.621  66.416  1.00  0.00    -0.330 A  
ATOM     10  N7    A A   1      -9.496  16.307  65.385  1.00  0.00    -0.337 NA 
ATOM     11  C8    A A   1     -10.546  15.585  65.072  1.00  0.00    -0.409 A  
ATOM     12  N9    A A   1     -10.655  14.452  65.849  1.00  0.00    -0.296 NA 
ENDROOT
BRANCH  12  13
ATOM     13  C1*   A A   1     -11.745  13.517  65.693  1.00  0.00    -0.339 C  
ATOM     14  O4*   A A   1     -11.202  12.202  65.960  1.00  0.00    -0.307 OA 
ATOM     15  C4*   A A   1     -10.911  11.571  64.685  1.00  0.00    -0.288 C  
ATOM     16  C3*   A A   1     -11.723  12.300  63.610  1.00  0.00    -0.504 C  
ATOM     17  H2*   A A   1     -13.321  14.408  62.847  1.00  0.00     0.000 HD 
ATOM     18  C2*   A A   1     -12.520  13.343  64.387  1.00  0.00    -0.277 C  
ATOM     19  O3*   A A   1     -12.591  11.390  62.923  1.00  0.00    -0.970 OA 
ATOM     20  H3*   A A   1     -13.094  11.842  62.256  1.00  0.00     0.000 HD 
ATOM     21  O2*   A A   1     -12.839  14.516  63.658  1.00  0.00    -0.632 OA 
BRANCH  15  22
ATOM     22  C5*   A A   1      -9.404  11.655  64.412  1.00  0.00     0.066 C  
ATOM     23  O5*   A A   1      -9.168  12.049  63.063  1.00  0.00    -0.647 OA 
ATOM     24  H5*   A A   1      -8.235  12.101  62.894  1.00  0.00     0.000 HD 
ENDBRANCH  15  22
ENDBRANCH  12  13
TORSDOF 2
ENDMDL
MODEL       39
REMARK 921   NORMALIZED FREE ENERGY PREDICTED BY IDOCK:   -5.51 KCAL/MOL
REMARK 922        TOTAL FREE ENERGY PREDICTED BY IDOCK:   -6.23 KCAL/MOL
REMARK 923 INTER-LIGAND FREE ENERGY PREDICTED BY IDOCK:   -6.31 KCAL/MOL
REMARK 924 INTRA-LIGAND FREE ENERGY PREDICTED BY IDOCK:    0.08 KCAL/MOL
REMARK 927      BINDING AFFINITY PREDICTED BY RF-SCORE:    0.00 PKD
ROOT
ATOM      1  N6    A A   1     -12.419   8.935  71.134  1.00  0.00    -0.440 NA 
ATOM      2  C6    A A   1     -12.449  10.320  71.031  1.00  0.00    -0.384 A  
ATOM      3  H62   A A   1     -13.370   8.575  71.054  1.00  0.00     0.000 HD 
ATOM      4  H61   A A   1     -11.812   8.414  70.500  1.00  0.00     0.000 HD 
ATOM      5  N1    A A   1     -13.251  11.010  71.870  1.00  0.00    -0.463 NA 
ATOM      6  C2    A A   1     -13.278  12.356  71.767  1.00  0.00    -0.334 A  
ATOM      7  N3    A A   1     -12.579  13.152  70.924  1.00  0.00    -0.330 NA 
ATOM      8  C4    A A   1     -11.799  12.420  70.110  1.00  0.00    -0.262 A  
ATOM      9  C5    A A   1     -11.668  11.035  70.109  1.00  0.00    -0.356 A  
ATOM     10  N7    A A   1     -10.744  10.626  69.175  1.00  0.00    -0.212 NA 
ATOM     11  C8    A A   1     -10.333  11.736  68.607  1.00  0.00    -0.214 A  
ATOM     12  N9    A A   1     -10.955  12.852  69.125  1.00  0.00    -0.183 NA 
ENDROOT
BRANCH  12  13
ATOM     13  C1*   A A   1     -10.646  14.186  68.663  1.00  0.00    -0.249 C  
ATOM     14  O4*   A A   1     -11.750  14.596  67.822  1.00  0.00    -0.347 OA 
ATOM     15  C4*   A A   1     -11.362  14.383  66.439  1.00  0.00    -0.350 C  
ATOM     16  C3*   A A   1      -9.833  14.290  66.393  1.00  0.00    -0.296 C  
ATOM     17  H2*   A A   1      -7.416  14.098  67.696  1.00  0.00     0.000 HD 
ATOM     18  C2*   A A   1      -9.403  14.521  67.839  1.00  0.00    -0.201 C  
ATOM     19  O3*   A A   1      -9.289  15.292  65.526  1.00  0.00    -0.382 OA 
ATOM     20  H3*   A A   1      -8.341  15.235  65.497  1.00  0.00     0.000 HD 
ATOM     21  O2*   A A   1      -8.188  13.890  68.208  1.00  0.00    -0.144 OA 
BRANCH  15  22
ATOM     22  C5*   A A   1     -12.022  13.097  65.923  1.00  0.00    -0.427 C  
ATOM     23  O5*   A A   1     -13.114  13.414  65.064  1.00  0.00    -0.734 OA 
ATOM     24  H5*   A A   1     -13.523  12.619  64.744  1.00  0.00     0.000 HD 
ENDBRANCH  15  22
ENDBRANCH  12  13
TORSDOF 2
ENDMDL
MODEL       40
REMARK 921   NORMALIZED FREE ENERGY PREDICTED BY IDOCK:   -5.51 KCAL/MOL
REMARK 922        TOTAL FREE ENERGY PREDICTED BY IDOCK:   -6.22 KCAL/MOL
REMARK 923 INTER-LIGAND FREE ENERGY PREDICTED BY IDOCK:   -6.33 KCAL/MOL
REMARK 924 INTRA-LIGAND FREE ENERGY PREDICTED BY IDOCK:    0.11 KCAL/MOL
REMARK 927      BINDING AFFINITY PREDICTED BY RF-SCORE:    0.00 PKD
ROOT
ATOM      1  N6    A A   1     -10.948   9.200  67.636  1.00  0.00    -0.476 NA 
ATOM      2  C6    A A   1     -11.100  10.458  68.207  1.00  0.00    -0.281 A  
ATOM      3  H62   A A   1     -11.867   8.833  67.392  1.00  0.00     0.000 HD 
ATOM      4  H61   A A   1     -10.327   9.103  66.832  1.00  0.00     0.000 HD 
ATOM      5  N1    A A   1     -11.920  10.586  69.271  1.00  0.00    -0.187 NA 
ATOM      6  C2    A A   1     -12.066  11.810  69.824  1.00  0.00    -0.269 A  
ATOM      7  N3    A A   1     -11.473  12.973  69.464  1.00  0.00    -0.251 NA 
ATOM      8  C4    A A   1     -10.670  12.794  68.402  1.00  0.00    -0.250 A  
ATOM      9  C5    A A   1     -10.422  11.595  67.740  1.00  0.00    -0.187 A  
ATOM     10  N7    A A   1      -9.508  11.770  66.727  1.00  0.00    -0.188 NA 
ATOM     11  C8    A A   1      -9.217  13.049  66.759  1.00  0.00    -0.228 A  
ATOM     12  N9    A A   1      -9.908  13.720  67.745  1.00  0.00    -0.228 NA 
ENDROOT
BRANCH  12  13
ATOM     13  C1*   A A   1      -9.734  15.136  67.977  1.00  0.00    -0.209 C  
ATOM     14  O4*   A A   1     -10.872  15.796  67.374  1.00  0.00    -0.315 OA 
ATOM     15  C4*   A A   1     -10.463  16.293  66.072  1.00  0.00    -0.331 C  
ATOM     16  C3*   A A   1      -8.933  16.367  66.062  1.00  0.00    -0.272 C  
ATOM     17  H2*   A A   1      -6.509  15.797  67.238  1.00  0.00     0.000 HD 
ATOM     18  C2*   A A   1      -8.529  15.926  67.466  1.00  0.00    -0.165 C  
ATOM     19  O3*   A A   1      -8.490  17.702  65.792  1.00  0.00    -0.525 OA 
ATOM     20  H3*   A A   1      -7.541  17.748  65.786  1.00  0.00     0.000 HD 
ATOM     21  O2*   A A   1      -7.258  15.305  67.555  1.00  0.00    -0.164 OA 
BRANCH  15  22
ATOM     22  C5*   A A   1     -10.991  15.349  64.983  1.00  0.00    -0.436 C  
ATOM     23  O5*   A A   1     -11.608  16.097  63.939  1.00  0.00    -1.369 OA 
ATOM     24  H5*   A A   1     -11.935  15.514  63.265  1.00  0.00     0.000 HD 
ENDBRANCH  15  22
ENDBRANCH  12  13
TORSDOF 2
ENDMDL
MODEL       41
REMARK 921   NORMALIZED FREE ENERGY PREDICTED BY IDOCK:   -5.49 KCAL/MOL
REMARK 922        TOTAL FREE ENERGY PREDICTED BY IDOCK:   -6.20 KCAL/MOL
REMARK 923 INTER-LIGAND FREE ENERGY PREDICTED BY IDOCK:   -6.28 KCAL/MOL
REMARK 924 INTRA-LIGAND FREE ENERGY PREDICTED BY IDOCK:    0.08 KCAL/MOL
REMARK 927      BINDING AFFINITY PREDICTED BY RF-SCORE:    0.00 PKD
ROOT
ATOM      1  N6    A A   1     -12.157  13.597  67.257  1.00  0.00    -0.371 NA 
ATOM      2  C6    A A   1     -11.354  14.615  66.756  1.00  0.00    -0.356 A  
ATOM      3  H62   A A   1     -11.997  12.750  66.713  1.00  0.00     0.000 HD 
ATOM      4  H61   A A   1     -12.091  13.372  68.250  1.00  0.00     0.000 HD 
ATOM      5  N1    A A   1     -11.441  14.914  65.443  1.00  0.00    -0.341 NA 
ATOM      6  C2    A A   1     -10.659  15.903  64.958  1.00  0.00    -0.346 A  
ATOM      7  N3    A A   1      -9.776  16.684  65.625  1.00  0.00    -0.548 NA 
ATOM      8  C4    A A   1      -9.725  16.346  66.925  1.00  0.00    -0.251 A  
ATOM      9  C5    A A   1     -10.473  15.358  67.557  1.00  0.00    -0.275 A  
ATOM     10  N7    A A   1     -10.201  15.319  68.906  1.00  0.00    -0.223 NA 
ATOM     11  C8    A A   1      -9.295  16.250  69.089  1.00  0.00    -0.236 A  
ATOM     12  N9    A A   1      -8.957  16.892  67.917  1.00  0.00    -0.222 NA 
ENDROOT
BRANCH  12  13
ATOM     13  C1*   A A   1      -7.991  17.965  67.880  1.00  0.00    -0.235 C  
ATOM     14  O4*   A A   1      -8.645  19.128  68.441  1.00  0.00    -0.326 OA 
ATOM     15  C4*   A A   1      -9.113  19.952  67.341  1.00  0.00    -0.342 C  
ATOM     16  C3*   A A   1      -8.328  19.547  66.090  1.00  0.00    -0.321 C  
ATOM     17  H2*   A A   1      -6.590  17.835  64.814  1.00  0.00     0.000 HD 
ATOM     18  C2*   A A   1      -7.358  18.480  66.587  1.00  0.00    -0.224 C  
ATOM     19  O3*   A A   1      -7.626  20.671  65.544  1.00  0.00    -0.517 OA 
ATOM     20  H3*   A A   1      -7.139  20.419  64.768  1.00  0.00     0.000 HD 
ATOM     21  O2*   A A   1      -6.983  17.516  65.618  1.00  0.00    -0.317 OA 
BRANCH  15  22
ATOM     22  C5*   A A   1     -10.621  19.739  67.157  1.00  0.00    -0.449 C  
ATOM     23  O5*   A A   1     -10.947  19.683  65.771  1.00  0.00    -0.384 OA 
ATOM     24  H5*   A A   1     -11.880  19.550  65.657  1.00  0.00     0.000 HD 
ENDBRANCH  15  22
ENDBRANCH  12  13
TORSDOF 2
ENDMDL
MODEL       42
REMARK 921   NORMALIZED FREE ENERGY PREDICTED BY IDOCK:   -5.48 KCAL/MOL
REMARK 922        TOTAL FREE ENERGY PREDICTED BY IDOCK:   -6.19 KCAL/MOL
REMARK 923 INTER-LIGAND FREE ENERGY PREDICTED BY IDOCK:   -6.39 KCAL/MOL
REMARK 924 INTRA-LIGAND FREE ENERGY PREDICTED BY IDOCK:    0.20 KCAL/MOL
REMARK 927      BINDING AFFINITY PREDICTED BY RF-SCORE:    0.00 PKD
ROOT
ATOM      1  N6    A A   1      -7.691  20.993  66.935  1.00  0.00    -0.606 NA 
ATOM      2  C6    A A   1      -8.624  20.030  67.300  1.00  0.00    -0.335 A  
ATOM      3  H62   A A   1      -7.953  21.884  67.356  1.00  0.00     0.000 HD 
ATOM      4  H61   A A   1      -6.706  20.812  67.126  1.00  0.00     0.000 HD 
ATOM      5  N1    A A   1      -9.928  20.269  67.046  1.00  0.00    -0.455 NA 
ATOM      6  C2    A A   1     -10.832  19.331  67.402  1.00  0.00    -0.446 A  
ATOM      7  N3    A A   1     -10.614  18.128  67.985  1.00  0.00    -0.376 NA 
ATOM      8  C4    A A   1      -9.303  17.938  68.218  1.00  0.00    -0.286 A  
ATOM      9  C5    A A   1      -8.268  18.812  67.900  1.00  0.00    -0.269 A  
ATOM     10  N7    A A   1      -7.047  18.274  68.236  1.00  0.00    -0.240 NA 
ATOM     11  C8    A A   1      -7.332  17.106  68.762  1.00  0.00    -0.241 A  
ATOM     12  N9    A A   1      -8.688  16.860  68.792  1.00  0.00    -0.260 NA 
ENDROOT
BRANCH  12  13
ATOM     13  C1*   A A   1      -9.234  15.628  69.313  1.00  0.00    -0.269 C  
ATOM     14  O4*   A A   1      -9.092  14.639  68.266  1.00  0.00    -0.177 OA 
ATOM     15  C4*   A A   1     -10.366  14.529  67.579  1.00  0.00    -0.244 C  
ATOM     16  C3*   A A   1     -11.445  15.099  68.505  1.00  0.00    -0.320 C  
ATOM     17  H2*   A A   1     -12.149  16.467  70.788  1.00  0.00     0.000 HD 
ATOM     18  C2*   A A   1     -10.685  15.482  69.771  1.00  0.00    -0.295 C  
ATOM     19  O3*   A A   1     -12.449  14.115  68.782  1.00  0.00    -0.542 OA 
ATOM     20  H3*   A A   1     -13.118  14.468  69.356  1.00  0.00     0.000 HD 
ATOM     21  O2*   A A   1     -11.248  16.558  70.503  1.00  0.00    -0.330 OA 
BRANCH  15  22
ATOM     22  C5*   A A   1     -10.292  15.300  66.254  1.00  0.00    -0.294 C  
ATOM     23  O5*   A A   1      -8.940  15.399  65.815  1.00  0.00    -0.406 OA 
ATOM     24  H5*   A A   1      -8.895  15.876  64.994  1.00  0.00     0.000 HD 
ENDBRANCH  15  22
ENDBRANCH  12  13
TORSDOF 2
ENDMDL
MODEL       43
REMARK 921   NORMALIZED FREE ENERGY PREDICTED BY IDOCK:   -5.48 KCAL/MOL
REMARK 922        TOTAL FREE ENERGY PREDICTED BY IDOCK:   -6.19 KCAL/MOL
REMARK 923 INTER-LIGAND FREE ENERGY PREDICTED BY IDOCK:   -6.13 KCAL/MOL
REMARK 924 INTRA-LIGAND FREE ENERGY PREDICTED BY IDOCK:   -0.06 KCAL/MOL
REMARK 927      BINDING AFFINITY PREDICTED BY RF-SCORE:    0.00 PKD
ROOT
ATOM      1  N6    A A   1     -10.016   9.407  65.346  1.00  0.00    -0.407 NA 
ATOM      2  C6    A A   1      -9.805   9.059  66.675  1.00  0.00    -0.248 A  
ATOM      3  H62   A A   1     -10.219   8.564  64.810  1.00  0.00     0.000 HD 
ATOM      4  H61   A A   1     -10.723  10.112  65.136  1.00  0.00     0.000 HD 
ATOM      5  N1    A A   1      -8.870   8.126  66.954  1.00  0.00    -0.127 NA 
ATOM      6  C2    A A   1      -8.666   7.790  68.246  1.00  0.00    -0.127 A  
ATOM      7  N3    A A   1      -9.275   8.282  69.351  1.00  0.00    -0.154 NA 
ATOM      8  C4    A A   1     -10.197   9.203  69.021  1.00  0.00    -0.207 A  
ATOM      9  C5    A A   1     -10.504   9.648  67.740  1.00  0.00    -0.256 A  
ATOM     10  N7    A A   1     -11.463  10.634  67.776  1.00  0.00    -0.484 NA 
ATOM     11  C8    A A   1     -11.746  10.776  69.050  1.00  0.00    -0.286 A  
ATOM     12  N9    A A   1     -11.019   9.918  69.847  1.00  0.00    -0.264 NA 
ENDROOT
BRANCH  12  13
ATOM     13  C1*   A A   1     -11.152   9.909  71.286  1.00  0.00    -0.232 C  
ATOM     14  O4*   A A   1     -10.915   8.547  71.713  1.00  0.00    -0.261 OA 
ATOM     15  C4*   A A   1     -12.204   7.911  71.918  1.00  0.00    -0.314 C  
ATOM     16  C3*   A A   1     -13.248   9.020  72.085  1.00  0.00    -0.446 C  
ATOM     17  H2*   A A   1     -13.942  11.682  71.960  1.00  0.00     0.000 HD 
ATOM     18  C2*   A A   1     -12.437  10.310  72.011  1.00  0.00    -0.118 C  
ATOM     19  O3*   A A   1     -13.918   8.902  73.346  1.00  0.00    -1.236 OA 
ATOM     20  H3*   A A   1     -14.565   9.590  73.450  1.00  0.00     0.000 HD 
ATOM     21  O2*   A A   1     -13.144  11.432  71.510  1.00  0.00    -0.416 OA 
BRANCH  15  22
ATOM     22  C5*   A A   1     -12.521   7.013  70.715  1.00  0.00    -0.203 C  
ATOM     23  O5*   A A   1     -11.374   6.246  70.357  1.00  0.00    -0.345 OA 
ATOM     24  H5*   A A   1     -11.570   5.689  69.613  1.00  0.00     0.000 HD 
ENDBRANCH  15  22
ENDBRANCH  12  13
TORSDOF 2
ENDMDL
MODEL       44
REMARK 921   NORMALIZED FREE ENERGY PREDICTED BY IDOCK:   -5.47 KCAL/MOL
REMARK 922        TOTAL FREE ENERGY PREDICTED BY IDOCK:   -6.17 KCAL/MOL
REMARK 923 INTER-LIGAND FREE ENERGY PREDICTED BY IDOCK:   -6.87 KCAL/MOL
REMARK 924 INTRA-LIGAND FREE ENERGY PREDICTED BY IDOCK:    0.70 KCAL/MOL
REMARK 927      BINDING AFFINITY PREDICTED BY RF-SCORE:    0.00 PKD
ROOT
ATOM      1  N6    A A   1     -14.137  15.777  72.599  1.00  0.00    -0.531 NA 
ATOM      2  C6    A A   1     -13.579  14.632  72.044  1.00  0.00    -0.400 A  
ATOM      3  H62   A A   1     -13.956  15.781  73.603  1.00  0.00     0.000 HD 
ATOM      4  H61   A A   1     -13.875  16.683  72.211  1.00  0.00     0.000 HD 
ATOM      5  N1    A A   1     -13.927  13.433  72.557  1.00  0.00    -0.751 NA 
ATOM      6  C2    A A   1     -13.383  12.322  72.015  1.00  0.00    -0.386 A  
ATOM      7  N3    A A   1     -12.517  12.227  70.978  1.00  0.00    -0.336 NA 
ATOM      8  C4    A A   1     -12.201  13.445  70.504  1.00  0.00    -0.352 A  
ATOM      9  C5    A A   1     -12.688  14.666  70.960  1.00  0.00    -0.339 A  
ATOM     10  N7    A A   1     -12.190  15.707  70.211  1.00  0.00    -0.396 NA 
ATOM     11  C8    A A   1     -11.404  15.135  69.329  1.00  0.00    -0.300 A  
ATOM     12  N9    A A   1     -11.360  13.765  69.474  1.00  0.00    -0.249 NA 
ENDROOT
BRANCH  12  13
ATOM     13  C1*   A A   1     -10.572  12.926  68.602  1.00  0.00    -0.234 C  
ATOM     14  O4*   A A   1      -9.913  13.809  67.664  1.00  0.00    -0.230 OA 
ATOM     15  C4*   A A   1     -10.680  13.807  66.432  1.00  0.00    -0.281 C  
ATOM     16  C3*   A A   1     -11.554  12.549  66.430  1.00  0.00    -0.391 C  
ATOM     17  H2*   A A   1     -12.582  10.357  67.740  1.00  0.00     0.000 HD 
ATOM     18  C2*   A A   1     -11.177  11.831  67.722  1.00  0.00    -0.266 C  
ATOM     19  O3*   A A   1     -11.272  11.735  65.285  1.00  0.00    -0.307 OA 
ATOM     20  H3*   A A   1     -11.815  10.955  65.284  1.00  0.00     0.000 HD 
ATOM     21  O2*   A A   1     -12.207  11.037  68.287  1.00  0.00    -0.582 OA 
BRANCH  15  22
ATOM     22  C5*   A A   1     -11.526  15.085  66.362  1.00  0.00    -0.225 C  
ATOM     23  O5*   A A   1     -10.815  16.111  65.675  1.00  0.00    -0.314 OA 
ATOM     24  H5*   A A   1     -11.339  16.902  65.632  1.00  0.00     0.000 HD 
ENDBRANCH  15  22
ENDBRANCH  12  13
TORSDOF 2
ENDMDL
MODEL       45
REMARK 921   NORMALIZED FREE ENERGY PREDICTED BY IDOCK:   -5.46 KCAL/MOL
REMARK 922        TOTAL FREE ENERGY PREDICTED BY IDOCK:   -6.17 KCAL/MOL
REMARK 923 INTER-LIGAND FREE ENERGY PREDICTED BY IDOCK:   -6.29 KCAL/MOL
REMARK 924 INTRA-LIGAND FREE ENERGY PREDICTED BY IDOCK:    0.13 KCAL/MOL
REMARK 927      BINDING AFFINITY PREDICTED BY RF-SCORE:    0.00 PKD
ROOT
ATOM      1  N6    A A   1     -12.025  16.055  63.714  1.00  0.00    -1.339 NA 
ATOM      2  C6    A A   1     -11.338  15.301  64.658  1.00  0.00    -0.358 A  
ATOM      3  H62   A A   1     -11.390  16.744  63.313  1.00  0.00     0.000 HD 
ATOM      4  H61   A A   1     -12.506  15.566  62.959  1.00  0.00     0.000 HD 
ATOM      5  N1    A A   1     -10.703  15.948  65.658  1.00  0.00    -0.348 NA 
ATOM      6  C2    A A   1     -10.035  15.213  66.573  1.00  0.00    -0.266 A  
ATOM      7  N3    A A   1      -9.917  13.865  66.650  1.00  0.00    -0.271 NA 
ATOM      8  C4    A A   1     -10.563  13.269  65.633  1.00  0.00    -0.283 A  
ATOM      9  C5    A A   1     -11.292  13.899  64.629  1.00  0.00    -0.375 A  
ATOM     10  N7    A A   1     -11.862  12.978  63.781  1.00  0.00    -0.473 NA 
ATOM     11  C8    A A   1     -11.476  11.813  64.247  1.00  0.00    -0.307 A  
ATOM     12  N9    A A   1     -10.671  11.934  65.359  1.00  0.00    -0.275 NA 
ENDROOT
BRANCH  12  13
ATOM     13  C1*   A A   1     -10.142  10.782  66.053  1.00  0.00    -0.249 C  
ATOM     14  O4*   A A   1     -11.199  10.298  66.915  1.00  0.00    -0.116 OA 
ATOM     15  C4*   A A   1     -10.954  10.806  68.253  1.00  0.00    -0.255 C  
ATOM     16  C3*   A A   1      -9.478  11.211  68.333  1.00  0.00    -0.189 C  
ATOM     17  H2*   A A   1      -7.062  11.675  67.098  1.00  0.00     0.000 HD 
ATOM     18  C2*   A A   1      -8.915  10.843  66.963  1.00  0.00    -0.143 C  
ATOM     19  O3*   A A   1      -8.809  10.494  69.377  1.00  0.00    -0.280 OA 
ATOM     20  H3*   A A   1      -7.895  10.745  69.427  1.00  0.00     0.000 HD 
ATOM     21  O2*   A A   1      -7.824  11.637  66.532  1.00  0.00    -0.123 OA 
BRANCH  15  22
ATOM     22  C5*   A A   1     -11.883  11.997  68.519  1.00  0.00    -0.311 C  
ATOM     23  O5*   A A   1     -11.197  13.002  69.260  1.00  0.00    -0.332 OA 
ATOM     24  H5*   A A   1     -11.773  13.740  69.425  1.00  0.00     0.000 HD 
ENDBRANCH  15  22
ENDBRANCH  12  13
TORSDOF 2
ENDMDL
MODEL       46
REMARK 921   NORMALIZED FREE ENERGY PREDICTED BY IDOCK:   -5.43 KCAL/MOL
REMARK 922        TOTAL FREE ENERGY PREDICTED BY IDOCK:   -6.14 KCAL/MOL
REMARK 923 INTER-LIGAND FREE ENERGY PREDICTED BY IDOCK:   -5.87 KCAL/MOL
REMARK 924 INTRA-LIGAND FREE ENERGY PREDICTED BY IDOCK:   -0.27 KCAL/MOL
REMARK 927      BINDING AFFINITY PREDICTED BY RF-SCORE:    0.00 PKD
ROOT
ATOM      1  N6    A A   1     -10.107  10.487  65.557  1.00  0.00    -0.279 NA 
ATOM      2  C6    A A   1     -10.866  11.632  65.769  1.00  0.00    -0.281 A  
ATOM      3  H62   A A   1      -9.378  10.694  64.876  1.00  0.00     0.000 HD 
ATOM      4  H61   A A   1      -9.687  10.027  66.365  1.00  0.00     0.000 HD 
ATOM      5  N1    A A   1     -11.422  12.241  64.700  1.00  0.00    -0.325 NA 
ATOM      6  C2    A A   1     -12.159  13.353  64.909  1.00  0.00    -0.392 A  
ATOM      7  N3    A A   1     -12.448  13.966  66.082  1.00  0.00    -0.458 NA 
ATOM      8  C4    A A   1     -11.871  13.325  67.113  1.00  0.00    -0.374 A  
ATOM      9  C5    A A   1     -11.096  12.171  67.044  1.00  0.00    -0.294 A  
ATOM     10  N7    A A   1     -10.709  11.761  68.299  1.00  0.00    -0.204 NA 
ATOM     11  C8    A A   1     -11.222  12.654  69.113  1.00  0.00    -0.243 A  
ATOM     12  N9    A A   1     -11.921  13.635  68.444  1.00  0.00    -0.367 NA 
ENDROOT
BRANCH  12  13
ATOM     13  C1*   A A   1     -12.587  14.713  69.138  1.00  0.00     0.181 C  
ATOM     14  O4*   A A   1     -11.889  15.928  68.777  1.00  0.00    -0.393 OA 
ATOM     15  C4*   A A   1     -10.963  16.248  69.849  1.00  0.00    -0.365 C  
ATOM     16  C3*   A A   1     -11.427  15.498  71.102  1.00  0.00    -0.390 C  
ATOM     17  H2*   A A   1     -13.051  13.623  72.296  1.00  0.00     0.000 HD 
ATOM     18  C2*   A A   1     -12.701  14.785  70.661  1.00  0.00    -0.358 C  
ATOM     19  O3*   A A   1     -11.690  16.412  72.174  1.00  0.00    -0.506 OA 
ATOM     20  H3*   A A   1     -11.977  15.947  72.951  1.00  0.00     0.000 HD 
ATOM     21  O2*   A A   1     -12.980  13.578  71.350  1.00  0.00    -0.348 OA 
BRANCH  15  22
ATOM     22  C5*   A A   1      -9.546  15.833  69.433  1.00  0.00    -0.284 C  
ATOM     23  O5*   A A   1      -9.499  15.572  68.033  1.00  0.00    -0.193 OA 
ATOM     24  H5*   A A   1      -8.622  15.315  67.775  1.00  0.00     0.000 HD 
ENDBRANCH  15  22
ENDBRANCH  12  13
TORSDOF 2
ENDMDL
MODEL       47
REMARK 921   NORMALIZED FREE ENERGY PREDICTED BY IDOCK:   -5.43 KCAL/MOL
REMARK 922        TOTAL FREE ENERGY PREDICTED BY IDOCK:   -6.14 KCAL/MOL
REMARK 923 INTER-LIGAND FREE ENERGY PREDICTED BY IDOCK:   -5.87 KCAL/MOL
REMARK 924 INTRA-LIGAND FREE ENERGY PREDICTED BY IDOCK:   -0.26 KCAL/MOL
REMARK 927      BINDING AFFINITY PREDICTED BY RF-SCORE:    0.00 PKD
ROOT
ATOM      1  N6    A A   1      -7.181  19.793  68.895  1.00  0.00    -0.329 NA 
ATOM      2  C6    A A   1      -8.394  19.296  68.434  1.00  0.00    -0.348 A  
ATOM      3  H62   A A   1      -7.361  20.503  69.604  1.00  0.00     0.000 HD 
ATOM      4  H61   A A   1      -6.491  19.132  69.255  1.00  0.00     0.000 HD 
ATOM      5  N1    A A   1      -9.307  20.170  67.958  1.00  0.00    -0.285 NA 
ATOM      6  C2    A A   1     -10.485  19.685  67.510  1.00  0.00    -0.458 A  
ATOM      7  N3    A A   1     -10.898  18.396  67.449  1.00  0.00    -0.355 NA 
ATOM      8  C4    A A   1      -9.958  17.568  67.935  1.00  0.00    -0.312 A  
ATOM      9  C5    A A   1      -8.704  17.927  68.421  1.00  0.00    -0.293 A  
ATOM     10  N7    A A   1      -7.980  16.817  68.791  1.00  0.00    -0.243 NA 
ATOM     11  C8    A A   1      -8.781  15.805  68.552  1.00  0.00    -0.184 A  
ATOM     12  N9    A A   1     -10.000  16.206  68.049  1.00  0.00    -0.235 NA 
ENDROOT
BRANCH  12  13
ATOM     13  C1*   A A   1     -11.033  15.260  67.696  1.00  0.00    -0.311 C  
ATOM     14  O4*   A A   1     -12.132  15.490  68.609  1.00  0.00    -0.271 OA 
ATOM     15  C4*   A A   1     -12.047  14.501  69.669  1.00  0.00    -0.323 C  
ATOM     16  C3*   A A   1     -11.176  13.348  69.161  1.00  0.00    -0.248 C  
ATOM     17  H2*   A A   1      -9.466  12.303  67.273  1.00  0.00     0.000 HD 
ATOM     18  C2*   A A   1     -10.829  13.745  67.729  1.00  0.00    -0.250 C  
ATOM     19  O3*   A A   1     -11.898  12.111  69.194  1.00  0.00    -0.300 OA 
ATOM     20  H3*   A A   1     -11.358  11.396  68.879  1.00  0.00     0.000 HD 
ATOM     21  O2*   A A   1      -9.592  13.244  67.253  1.00  0.00    -0.221 OA 
BRANCH  15  22
ATOM     22  C5*   A A   1     -11.448  15.155  70.921  1.00  0.00    -0.323 C  
ATOM     23  O5*   A A   1     -11.644  16.565  70.883  1.00  0.00    -0.585 OA 
ATOM     24  H5*   A A   1     -11.273  16.970  71.659  1.00  0.00     0.000 HD 
ENDBRANCH  15  22
ENDBRANCH  12  13
TORSDOF 2
ENDMDL
MODEL       48
REMARK 921   NORMALIZED FREE ENERGY PREDICTED BY IDOCK:   -5.40 KCAL/MOL
REMARK 922        TOTAL FREE ENERGY PREDICTED BY IDOCK:   -6.10 KCAL/MOL
REMARK 923 INTER-LIGAND FREE ENERGY PREDICTED BY IDOCK:   -6.40 KCAL/MOL
REMARK 924 INTRA-LIGAND FREE ENERGY PREDICTED BY IDOCK:    0.30 KCAL/MOL
REMARK 927      BINDING AFFINITY PREDICTED BY RF-SCORE:    0.00 PKD
ROOT
ATOM      1  N6    A A   1     -12.609  11.736  70.588  1.00  0.00    -0.247 NA 
ATOM      2  C6    A A   1     -12.364  13.104  70.587  1.00  0.00    -0.326 A  
ATOM      3  H62   A A   1     -13.615  11.580  70.526  1.00  0.00     0.000 HD 
ATOM      4  H61   A A   1     -12.140  11.157  69.891  1.00  0.00     0.000 HD 
ATOM      5  N1    A A   1     -12.984  13.869  71.509  1.00  0.00    -0.342 NA 
ATOM      6  C2    A A   1     -12.743  15.198  71.505  1.00  0.00    -0.358 A  
ATOM      7  N3    A A   1     -11.924  15.904  70.690  1.00  0.00    -0.372 NA 
ATOM      8  C4    A A   1     -11.333  15.099  69.790  1.00  0.00    -0.285 A  
ATOM      9  C5    A A   1     -11.483  13.721  69.684  1.00  0.00    -0.237 A  
ATOM     10  N7    A A   1     -10.689  13.212  68.681  1.00  0.00    -0.252 NA 
ATOM     11  C8    A A   1     -10.081  14.260  68.177  1.00  0.00    -0.232 A  
ATOM     12  N9    A A   1     -10.449  15.433  68.801  1.00  0.00    -0.225 NA 
ENDROOT
BRANCH  12  13
ATOM     13  C1*   A A   1      -9.893  16.711  68.423  1.00  0.00    -0.252 C  
ATOM     14  O4*   A A   1     -10.767  17.257  67.408  1.00  0.00    -0.329 OA 
ATOM     15  C4*   A A   1     -10.172  16.985  66.111  1.00  0.00    -0.337 C  
ATOM     16  C3*   A A   1      -8.685  16.693  66.334  1.00  0.00    -0.310 C  
ATOM     17  H2*   A A   1      -6.581  16.194  68.039  1.00  0.00     0.000 HD 
ATOM     18  C2*   A A   1      -8.490  16.874  67.836  1.00  0.00    -0.203 C  
ATOM     19  O3*   A A   1      -7.870  17.608  65.592  1.00  0.00    -0.533 OA 
ATOM     20  H3*   A A   1      -6.948  17.427  65.731  1.00  0.00     0.000 HD 
ATOM     21  O2*   A A   1      -7.453  16.092  68.403  1.00  0.00    -0.143 OA 
BRANCH  15  22
ATOM     22  C5*   A A   1     -10.893  15.794  65.466  1.00  0.00    -0.332 C  
ATOM     23  O5*   A A   1     -11.396  16.158  64.183  1.00  0.00    -1.085 OA 
ATOM     24  H5*   A A   1     -11.842  15.420  63.783  1.00  0.00     0.000 HD 
ENDBRANCH  15  22
ENDBRANCH  12  13
TORSDOF 2
ENDMDL
MODEL       49
REMARK 921   NORMALIZED FREE ENERGY PREDICTED BY IDOCK:   -5.40 KCAL/MOL
REMARK 922        TOTAL FREE ENERGY PREDICTED BY IDOCK:   -6.10 KCAL/MOL
REMARK 923 INTER-LIGAND FREE ENERGY PREDICTED BY IDOCK:   -6.26 KCAL/MOL
REMARK 924 INTRA-LIGAND FREE ENERGY PREDICTED BY IDOCK:    0.16 KCAL/MOL
REMARK 927      BINDING AFFINITY PREDICTED BY RF-SCORE:    0.00 PKD
ROOT
ATOM      1  N6    A A   1     -13.052  15.858  70.811  1.00  0.00    -0.664 NA 
ATOM      2  C6    A A   1     -12.426  14.834  70.111  1.00  0.00    -0.309 A  
ATOM      3  H62   A A   1     -12.753  15.825  71.785  1.00  0.00     0.000 HD 
ATOM      4  H61   A A   1     -12.954  16.813  70.466  1.00  0.00     0.000 HD 
ATOM      5  N1    A A   1     -12.556  13.570  70.567  1.00  0.00    -0.279 NA 
ATOM      6  C2    A A   1     -11.946  12.577  69.885  1.00  0.00    -0.301 A  
ATOM      7  N3    A A   1     -11.206  12.662  68.753  1.00  0.00    -0.263 NA 
ATOM      8  C4    A A   1     -11.105  13.937  68.341  1.00  0.00    -0.255 A  
ATOM      9  C5    A A   1     -11.683  15.052  68.940  1.00  0.00    -0.328 A  
ATOM     10  N7    A A   1     -11.414  16.194  68.221  1.00  0.00    -0.317 NA 
ATOM     11  C8    A A   1     -10.674  15.787  67.216  1.00  0.00    -0.313 A  
ATOM     12  N9    A A   1     -10.442  14.429  67.251  1.00  0.00    -0.268 NA 
ENDROOT
BRANCH  12  13
ATOM     13  C1*   A A   1      -9.666  13.757  66.235  1.00  0.00    -0.284 C  
ATOM     14  O4*   A A   1     -10.443  13.816  65.016  1.00  0.00    -0.356 OA 
ATOM     15  C4*   A A   1     -11.134  12.548  64.863  1.00  0.00    -0.299 C  
ATOM     16  C3*   A A   1     -10.410  11.517  65.735  1.00  0.00    -0.248 C  
ATOM     17  H2*   A A   1      -8.543  10.916  67.667  1.00  0.00     0.000 HD 
ATOM     18  C2*   A A   1      -9.242  12.291  66.337  1.00  0.00    -0.203 C  
ATOM     19  O3*   A A   1      -9.947  10.416  64.942  1.00  0.00    -0.306 OA 
ATOM     20  H3*   A A   1      -9.498   9.777  65.483  1.00  0.00     0.000 HD 
ATOM     21  O2*   A A   1      -8.807  11.827  67.604  1.00  0.00    -0.152 OA 
BRANCH  15  22
ATOM     22  C5*   A A   1     -12.599  12.717  65.285  1.00  0.00    -0.393 C  
ATOM     23  O5*   A A   1     -12.951  14.098  65.303  1.00  0.00    -0.725 OA 
ATOM     24  H5*   A A   1     -13.859  14.203  65.564  1.00  0.00     0.000 HD 
ENDBRANCH  15  22
ENDBRANCH  12  13
TORSDOF 2
ENDMDL
MODEL       50
REMARK 921   NORMALIZED FREE ENERGY PREDICTED BY IDOCK:   -5.38 KCAL/MOL
REMARK 922        TOTAL FREE ENERGY PREDICTED BY IDOCK:   -6.07 KCAL/MOL
REMARK 923 INTER-LIGAND FREE ENERGY PREDICTED BY IDOCK:   -6.19 KCAL/MOL
REMARK 924 INTRA-LIGAND FREE ENERGY PREDICTED BY IDOCK:    0.11 KCAL/MOL
REMARK 927      BINDING AFFINITY PREDICTED BY RF-SCORE:    0.00 PKD
ROOT
ATOM      1  N6    A A   1     -10.691  10.557  66.869  1.00  0.00    -0.243 NA 
ATOM      2  C6    A A   1     -10.904  11.916  66.669  1.00  0.00    -0.276 A  
ATOM      3  H62   A A   1     -10.980  10.049  66.034  1.00  0.00     0.000 HD 
ATOM      4  H61   A A   1      -9.757  10.247  67.141  1.00  0.00     0.000 HD 
ATOM      5  N1    A A   1     -12.138  12.327  66.311  1.00  0.00    -0.620 NA 
ATOM      6  C2    A A   1     -12.343  13.648  66.117  1.00  0.00    -0.426 A  
ATOM      7  N3    A A   1     -11.459  14.666  66.250  1.00  0.00    -0.359 NA 
ATOM      8  C4    A A   1     -10.247  14.206  66.604  1.00  0.00    -0.270 A  
ATOM      9  C5    A A   1      -9.899  12.881  66.843  1.00  0.00    -0.235 A  
ATOM     10  N7    A A   1      -8.584  12.778  67.236  1.00  0.00    -0.190 NA 
ATOM     11  C8    A A   1      -8.137  14.012  67.222  1.00  0.00    -0.156 A  
ATOM     12  N9    A A   1      -9.100  14.916  66.828  1.00  0.00    -0.254 NA 
ENDROOT
BRANCH  12  13
ATOM     13  C1*   A A   1      -8.837  16.334  66.756  1.00  0.00    -0.232 C  
ATOM     14  O4*   A A   1      -8.619  16.784  68.114  1.00  0.00    -0.205 OA 
ATOM     15  C4*   A A   1      -9.856  17.371  68.596  1.00  0.00    -0.322 C  
ATOM     16  C3*   A A   1     -10.709  17.726  67.374  1.00  0.00    -0.279 C  
ATOM     17  H2*   A A   1     -11.165  17.592  64.662  1.00  0.00     0.000 HD 
ATOM     18  C2*   A A   1      -9.835  17.343  66.184  1.00  0.00    -0.245 C  
ATOM     19  O3*   A A   1     -11.019  19.125  67.360  1.00  0.00    -0.475 OA 
ATOM     20  H3*   A A   1     -11.548  19.345  66.602  1.00  0.00     0.000 HD 
ATOM     21  O2*   A A   1     -10.545  16.966  65.018  1.00  0.00    -0.700 OA 
BRANCH  15  22
ATOM     22  C5*   A A   1     -10.568  16.365  69.511  1.00  0.00    -0.320 C  
ATOM     23  O5*   A A   1     -11.827  15.998  68.954  1.00  0.00    -0.379 OA 
ATOM     24  H5*   A A   1     -12.268  15.375  69.521  1.00  0.00     0.000 HD 
ENDBRANCH  15  22
ENDBRANCH  12  13
TORSDOF 2
ENDMDL
MODEL       51
REMARK 921   NORMALIZED FREE ENERGY PREDICTED BY IDOCK:   -5.33 KCAL/MOL
REMARK 922        TOTAL FREE ENERGY PREDICTED BY IDOCK:   -6.02 KCAL/MOL
REMARK 923 INTER-LIGAND FREE ENERGY PREDICTED BY IDOCK:   -6.26 KCAL/MOL
REMARK 924 INTRA-LIGAND FREE ENERGY PREDICTED BY IDOCK:    0.24 KCAL/MOL
REMARK 927      BINDING AFFINITY PREDICTED BY RF-SCORE:    0.00 PKD
ROOT
ATOM      1  N6    A A   1      -7.776  17.887  66.057  1.00  0.00    -0.497 NA 
ATOM      2  C6    A A   1      -8.160  16.575  66.307  1.00  0.00    -0.306 A  
ATOM      3  H62   A A   1      -6.819  17.891  65.704  1.00  0.00     0.000 HD 
ATOM      4  H61   A A   1      -8.359  18.455  65.442  1.00  0.00     0.000 HD 
ATOM      5  N1    A A   1      -7.389  15.824  67.122  1.00  0.00    -0.220 NA 
ATOM      6  C2    A A   1      -7.764  14.550  67.363  1.00  0.00    -0.192 A  
ATOM      7  N3    A A   1      -8.854  13.890  66.904  1.00  0.00    -0.221 NA 
ATOM      8  C4    A A   1      -9.587  14.678  66.098  1.00  0.00    -0.307 A  
ATOM      9  C5    A A   1      -9.323  16.003  65.769  1.00  0.00    -0.215 A  
ATOM     10  N7    A A   1     -10.311  16.518  64.960  1.00  0.00    -0.594 NA 
ATOM     11  C8    A A   1     -11.148  15.522  64.785  1.00  0.00    -0.407 A  
ATOM     12  N9    A A   1     -10.747  14.377  65.440  1.00  0.00    -0.326 NA 
ENDROOT
BRANCH  12  13
ATOM     13  C1*   A A   1     -11.524  13.160  65.403  1.00  0.00    -0.304 C  
ATOM     14  O4*   A A   1     -12.565  13.305  66.398  1.00  0.00    -0.308 OA 
ATOM     15  C4*   A A   1     -12.138  12.608  67.598  1.00  0.00    -0.103 C  
ATOM     16  C3*   A A   1     -11.042  11.617  67.194  1.00  0.00    -0.299 C  
ATOM     17  H2*   A A   1      -9.282  10.642  65.315  1.00  0.00     0.000 HD 
ATOM     18  C2*   A A   1     -10.931  11.779  65.681  1.00  0.00    -0.295 C  
ATOM     19  O3*   A A   1     -11.411  10.278  67.546  1.00  0.00    -0.527 OA 
ATOM     20  H3*   A A   1     -10.732   9.664  67.295  1.00  0.00     0.000 HD 
ATOM     21  O2*   A A   1      -9.650  11.500  65.142  1.00  0.00    -0.233 OA 
BRANCH  15  22
ATOM     22  C5*   A A   1     -11.627  13.631  68.621  1.00  0.00    -0.329 C  
ATOM     23  O5*   A A   1     -12.200  14.911  68.368  1.00  0.00    -0.576 OA 
ATOM     24  H5*   A A   1     -11.884  15.544  69.001  1.00  0.00     0.000 HD 
ENDBRANCH  15  22
ENDBRANCH  12  13
TORSDOF 2
ENDMDL
MODEL       52
REMARK 921   NORMALIZED FREE ENERGY PREDICTED BY IDOCK:   -5.33 KCAL/MOL
REMARK 922        TOTAL FREE ENERGY PREDICTED BY IDOCK:   -6.02 KCAL/MOL
REMARK 923 INTER-LIGAND FREE ENERGY PREDICTED BY IDOCK:   -6.17 KCAL/MOL
REMARK 924 INTRA-LIGAND FREE ENERGY PREDICTED BY IDOCK:    0.15 KCAL/MOL
REMARK 927      BINDING AFFINITY PREDICTED BY RF-SCORE:    0.00 PKD
ROOT
ATOM      1  N6    A A   1     -12.482  13.638  63.212  1.00  0.00    -1.048 NA 
ATOM      2  C6    A A   1     -11.579  13.267  64.200  1.00  0.00    -0.405 A  
ATOM      3  H62   A A   1     -13.390  13.223  63.420  1.00  0.00     0.000 HD 
ATOM      4  H61   A A   1     -12.608  14.632  63.018  1.00  0.00     0.000 HD 
ATOM      5  N1    A A   1     -11.412  11.952  64.457  1.00  0.00    -0.317 NA 
ATOM      6  C2    A A   1     -10.533  11.594  65.418  1.00  0.00    -0.275 A  
ATOM      7  N3    A A   1      -9.748  12.391  66.183  1.00  0.00    -0.245 NA 
ATOM      8  C4    A A   1      -9.953  13.687  65.891  1.00  0.00    -0.291 A  
ATOM      9  C5    A A   1     -10.817  14.195  64.927  1.00  0.00    -0.411 A  
ATOM     10  N7    A A   1     -10.735  15.567  64.864  1.00  0.00    -0.430 NA 
ATOM     11  C8    A A   1      -9.853  15.890  65.781  1.00  0.00    -0.345 A  
ATOM     12  N9    A A   1      -9.360  14.788  66.446  1.00  0.00    -0.289 NA 
ENDROOT
BRANCH  12  13
ATOM     13  C1*   A A   1      -8.364  14.901  67.486  1.00  0.00    -0.180 C  
ATOM     14  O4*   A A   1      -9.082  14.971  68.740  1.00  0.00    -0.182 OA 
ATOM     15  C4*   A A   1      -9.171  16.367  69.128  1.00  0.00    -0.216 C  
ATOM     16  C3*   A A   1      -8.087  17.132  68.361  1.00  0.00    -0.255 C  
ATOM     17  H2*   A A   1      -6.159  17.211  66.397  1.00  0.00     0.000 HD 
ATOM     18  C2*   A A   1      -7.361  16.053  67.564  1.00  0.00    -0.163 C  
ATOM     19  O3*   A A   1      -7.195  17.795  69.266  1.00  0.00    -0.195 OA 
ATOM     20  H3*   A A   1      -6.524  18.269  68.791  1.00  0.00     0.000 HD 
ATOM     21  O2*   A A   1      -6.782  16.495  66.348  1.00  0.00    -0.202 OA 
BRANCH  15  22
ATOM     22  C5*   A A   1     -10.574  16.894  68.801  1.00  0.00    -0.355 C  
ATOM     23  O5*   A A   1     -11.553  15.895  69.076  1.00  0.00    -0.370 OA 
ATOM     24  H5*   A A   1     -12.422  16.221  68.874  1.00  0.00     0.000 HD 
ENDBRANCH  15  22
ENDBRANCH  12  13
TORSDOF 2
ENDMDL
MODEL       53
REMARK 921   NORMALIZED FREE ENERGY PREDICTED BY IDOCK:   -5.33 KCAL/MOL
REMARK 922        TOTAL FREE ENERGY PREDICTED BY IDOCK:   -6.02 KCAL/MOL
REMARK 923 INTER-LIGAND FREE ENERGY PREDICTED BY IDOCK:   -6.31 KCAL/MOL
REMARK 924 INTRA-LIGAND FREE ENERGY PREDICTED BY IDOCK:    0.29 KCAL/MOL
REMARK 927      BINDING AFFINITY PREDICTED BY RF-SCORE:    0.00 PKD
ROOT
ATOM      1  N6    A A   1      -7.507  11.079  69.181  1.00  0.00    -0.147 NA 
ATOM      2  C6    A A   1      -7.951  12.203  68.493  1.00  0.00    -0.119 A  
ATOM      3  H62   A A   1      -6.895  11.376  69.940  1.00  0.00     0.000 HD 
ATOM      4  H61   A A   1      -8.202  10.429  69.549  1.00  0.00     0.000 HD 
ATOM      5  N1    A A   1      -7.032  13.062  68.006  1.00  0.00    -0.096 NA 
ATOM      6  C2    A A   1      -7.466  14.153  67.338  1.00  0.00    -0.134 A  
ATOM      7  N3    A A   1      -8.739  14.519  67.058  1.00  0.00    -0.231 NA 
ATOM      8  C4    A A   1      -9.615  13.634  67.565  1.00  0.00    -0.220 A  
ATOM      9  C5    A A   1      -9.309  12.471  68.265  1.00  0.00    -0.193 A  
ATOM     10  N7    A A   1     -10.452  11.777  68.592  1.00  0.00    -0.221 NA 
ATOM     11  C8    A A   1     -11.432  12.508  68.117  1.00  0.00    -0.319 A  
ATOM     12  N9    A A   1     -10.981  13.655  67.500  1.00  0.00    -0.264 NA 
ENDROOT
BRANCH  12  13
ATOM     13  C1*   A A   1     -11.882  14.604  66.888  1.00  0.00    -0.326 C  
ATOM     14  O4*   A A   1     -12.631  13.874  65.888  1.00  0.00    -0.478 OA 
ATOM     15  C4*   A A   1     -12.016  14.125  64.597  1.00  0.00    -0.445 C  
ATOM     16  C3*   A A   1     -11.172  15.398  64.723  1.00  0.00    -0.395 C  
ATOM     17  H2*   A A   1     -10.039  17.363  66.283  1.00  0.00     0.000 HD 
ATOM     18  C2*   A A   1     -11.408  15.860  66.158  1.00  0.00     0.225 C  
ATOM     19  O3*   A A   1     -11.603  16.389  63.783  1.00  0.00    -1.605 OA 
ATOM     20  H3*   A A   1     -11.080  17.178  63.861  1.00  0.00     0.000 HD 
ATOM     21  O2*   A A   1     -10.334  16.583  66.736  1.00  0.00    -0.292 OA 
BRANCH  15  22
ATOM     22  C5*   A A   1     -11.159  12.915  64.203  1.00  0.00    -0.399 C  
ATOM     23  O5*   A A   1      -9.781  13.277  64.163  1.00  0.00    -0.650 OA 
ATOM     24  H5*   A A   1      -9.251  12.528  63.920  1.00  0.00     0.000 HD 
ENDBRANCH  15  22
ENDBRANCH  12  13
TORSDOF 2
ENDMDL
MODEL       54
REMARK 921   NORMALIZED FREE ENERGY PREDICTED BY IDOCK:   -5.32 KCAL/MOL
REMARK 922        TOTAL FREE ENERGY PREDICTED BY IDOCK:   -6.01 KCAL/MOL
REMARK 923 INTER-LIGAND FREE ENERGY PREDICTED BY IDOCK:   -6.40 KCAL/MOL
REMARK 924 INTRA-LIGAND FREE ENERGY PREDICTED BY IDOCK:    0.39 KCAL/MOL
REMARK 927      BINDING AFFINITY PREDICTED BY RF-SCORE:    0.00 PKD
ROOT
ATOM      1  N6    A A   1      -7.220  19.106  68.817  1.00  0.00    -0.320 NA 
ATOM      2  C6    A A   1      -8.342  18.334  68.540  1.00  0.00    -0.310 A  
ATOM      3  H62   A A   1      -7.301  19.482  69.761  1.00  0.00     0.000 HD 
ATOM      4  H61   A A   1      -6.299  18.682  68.706  1.00  0.00     0.000 HD 
ATOM      5  N1    A A   1      -9.561  18.895  68.687  1.00  0.00    -0.373 NA 
ATOM      6  C2    A A   1     -10.649  18.143  68.417  1.00  0.00    -0.197 A  
ATOM      7  N3    A A   1     -10.702  16.859  67.987  1.00  0.00    -0.364 NA 
ATOM      8  C4    A A   1      -9.466  16.346  67.860  1.00  0.00    -0.223 A  
ATOM      9  C5    A A   1      -8.264  17.005  68.096  1.00  0.00    -0.217 A  
ATOM     10  N7    A A   1      -7.190  16.191  67.816  1.00  0.00    -0.129 NA 
ATOM     11  C8    A A   1      -7.726  15.055  67.434  1.00  0.00    -0.200 A  
ATOM     12  N9    A A   1      -9.104  15.089  67.459  1.00  0.00    -0.181 NA 
ENDROOT
BRANCH  12  13
ATOM     13  C1*   A A   1      -9.907  13.956  67.063  1.00  0.00    -0.257 C  
ATOM     14  O4*   A A   1      -9.875  13.914  65.617  1.00  0.00    -0.276 OA 
ATOM     15  C4*   A A   1     -11.093  14.533  65.124  1.00  0.00    -0.370 C  
ATOM     16  C3*   A A   1     -12.112  14.529  66.268  1.00  0.00    -0.294 C  
ATOM     17  H2*   A A   1     -12.716  14.126  68.923  1.00  0.00     0.000 HD 
ATOM     18  C2*   A A   1     -11.390  13.818  67.408  1.00  0.00    -0.324 C  
ATOM     19  O3*   A A   1     -13.300  13.824  65.888  1.00  0.00    -0.455 OA 
ATOM     20  H3*   A A   1     -13.932  13.821  66.597  1.00  0.00     0.000 HD 
ATOM     21  O2*   A A   1     -11.794  14.212  68.708  1.00  0.00    -0.317 OA 
BRANCH  15  22
ATOM     22  C5*   A A   1     -10.779  15.958  64.650  1.00  0.00    -0.078 C  
ATOM     23  O5*   A A   1     -11.747  16.386  63.697  1.00  0.00    -1.520 OA 
ATOM     24  H5*   A A   1     -11.553  17.268  63.403  1.00  0.00     0.000 HD 
ENDBRANCH  15  22
ENDBRANCH  12  13
TORSDOF 2
ENDMDL
MODEL       55
REMARK 921   NORMALIZED FREE ENERGY PREDICTED BY IDOCK:   -5.31 KCAL/MOL
REMARK 922        TOTAL FREE ENERGY PREDICTED BY IDOCK:   -6.00 KCAL/MOL
REMARK 923 INTER-LIGAND FREE ENERGY PREDICTED BY IDOCK:   -5.81 KCAL/MOL
REMARK 924 INTRA-LIGAND FREE ENERGY PREDICTED BY IDOCK:   -0.19 KCAL/MOL
REMARK 927      BINDING AFFINITY PREDICTED BY RF-SCORE:    0.00 PKD
ROOT
ATOM      1  N6    A A   1      -7.751  19.540  68.761  1.00  0.00    -0.352 NA 
ATOM      2  C6    A A   1      -8.658  18.919  67.911  1.00  0.00    -0.294 A  
ATOM      3  H62   A A   1      -8.232  20.275  69.280  1.00  0.00     0.000 HD 
ATOM      4  H61   A A   1      -7.224  18.961  69.416  1.00  0.00     0.000 HD 
ATOM      5  N1    A A   1      -9.354  19.684  67.044  1.00  0.00    -0.329 NA 
ATOM      6  C2    A A   1     -10.235  19.078  66.219  1.00  0.00    -0.446 A  
ATOM      7  N3    A A   1     -10.523  17.759  66.116  1.00  0.00    -0.364 NA 
ATOM      8  C4    A A   1      -9.807  17.041  66.999  1.00  0.00    -0.270 A  
ATOM      9  C5    A A   1      -8.866  17.531  67.898  1.00  0.00    -0.247 A  
ATOM     10  N7    A A   1      -8.288  16.508  68.615  1.00  0.00    -0.224 NA 
ATOM     11  C8    A A   1      -8.877  15.421  68.175  1.00  0.00    -0.170 A  
ATOM     12  N9    A A   1      -9.819  15.690  67.206  1.00  0.00    -0.224 NA 
ENDROOT
BRANCH  12  13
ATOM     13  C1*   A A   1     -10.580  14.643  66.564  1.00  0.00    -0.300 C  
ATOM     14  O4*   A A   1     -11.941  14.769  67.042  1.00  0.00    -0.350 OA 
ATOM     15  C4*   A A   1     -12.132  13.803  68.108  1.00  0.00    -0.281 C  
ATOM     16  C3*   A A   1     -11.039  12.738  67.973  1.00  0.00    -0.250 C  
ATOM     17  H2*   A A   1      -8.701  11.853  66.820  1.00  0.00     0.000 HD 
ATOM     18  C2*   A A   1     -10.264  13.156  66.727  1.00  0.00    -0.252 C  
ATOM     19  O3*   A A   1     -11.614  11.436  67.812  1.00  0.00    -0.445 OA 
ATOM     20  H3*   A A   1     -10.936  10.776  67.729  1.00  0.00     0.000 HD 
ATOM     21  O2*   A A   1      -8.898  12.777  66.719  1.00  0.00    -0.212 OA 
BRANCH  15  22
ATOM     22  C5*   A A   1     -12.057  14.523  69.461  1.00  0.00    -0.306 C  
ATOM     23  O5*   A A   1     -12.449  15.886  69.317  1.00  0.00    -0.491 OA 
ATOM     24  H5*   A A   1     -12.403  16.332  70.154  1.00  0.00     0.000 HD 
ENDBRANCH  15  22
ENDBRANCH  12  13
TORSDOF 2
ENDMDL
MODEL       56
REMARK 921   NORMALIZED FREE ENERGY PREDICTED BY IDOCK:   -5.31 KCAL/MOL
REMARK 922        TOTAL FREE ENERGY PREDICTED BY IDOCK:   -6.00 KCAL/MOL
REMARK 923 INTER-LIGAND FREE ENERGY PREDICTED BY IDOCK:   -5.79 KCAL/MOL
REMARK 924 INTRA-LIGAND FREE ENERGY PREDICTED BY IDOCK:   -0.21 KCAL/MOL
REMARK 927      BINDING AFFINITY PREDICTED BY RF-SCORE:    0.00 PKD
ROOT
ATOM      1  N6    A A   1      -6.347  15.563  68.960  1.00  0.00    -0.109 NA 
ATOM      2  C6    A A   1      -7.240  15.987  67.983  1.00  0.00    -0.130 A  
ATOM      3  H62   A A   1      -6.517  16.090  69.816  1.00  0.00     0.000 HD 
ATOM      4  H61   A A   1      -6.309  14.569  69.184  1.00  0.00     0.000 HD 
ATOM      5  N1    A A   1      -7.291  17.303  67.686  1.00  0.00    -0.164 NA 
ATOM      6  C2    A A   1      -8.160  17.712  66.737  1.00  0.00    -0.236 A  
ATOM      7  N3    A A   1      -9.012  16.965  65.995  1.00  0.00    -0.510 NA 
ATOM      8  C4    A A   1      -8.926  15.666  66.330  1.00  0.00    -0.342 A  
ATOM      9  C5    A A   1      -8.076  15.107  67.278  1.00  0.00    -0.201 A  
ATOM     10  N7    A A   1      -8.219  13.739  67.325  1.00  0.00    -0.179 NA 
ATOM     11  C8    A A   1      -9.147  13.472  66.436  1.00  0.00    -0.044 A  
ATOM     12  N9    A A   1      -9.623  14.607  65.816  1.00  0.00    -0.281 NA 
ENDROOT
BRANCH  12  13
ATOM     13  C1*   A A   1     -10.637  14.552  64.789  1.00  0.00    -0.377 C  
ATOM     14  O4*   A A   1     -11.855  15.057  65.386  1.00  0.00    -0.246 OA 
ATOM     15  C4*   A A   1     -12.664  13.918  65.784  1.00  0.00    -0.461 C  
ATOM     16  C3*   A A   1     -12.168  12.699  64.999  1.00  0.00    -0.476 C  
ATOM     17  H2*   A A   1     -10.313  11.524  63.338  1.00  0.00     0.000 HD 
ATOM     18  C2*   A A   1     -11.066  13.255  64.103  1.00  0.00    -0.365 C  
ATOM     19  O3*   A A   1     -13.228  12.129  64.223  1.00  0.00    -0.768 OA 
ATOM     20  H3*   A A   1     -12.921  11.373  63.736  1.00  0.00     0.000 HD 
ATOM     21  O2*   A A   1     -10.047  12.330  63.765  1.00  0.00    -0.385 OA 
BRANCH  15  22
ATOM     22  C5*   A A   1     -12.530  13.710  67.298  1.00  0.00     0.032 C  
ATOM     23  O5*   A A   1     -12.146  14.927  67.932  1.00  0.00    -0.546 OA 
ATOM     24  H5*   A A   1     -12.063  14.798  68.870  1.00  0.00     0.000 HD 
ENDBRANCH  15  22
ENDBRANCH  12  13
TORSDOF 2
ENDMDL
MODEL       57
REMARK 921   NORMALIZED FREE ENERGY PREDICTED BY IDOCK:   -5.29 KCAL/MOL
REMARK 922        TOTAL FREE ENERGY PREDICTED BY IDOCK:   -5.97 KCAL/MOL
REMARK 923 INTER-LIGAND FREE ENERGY PREDICTED BY IDOCK:   -6.37 KCAL/MOL
REMARK 924 INTRA-LIGAND FREE ENERGY PREDICTED BY IDOCK:    0.40 KCAL/MOL
REMARK 927      BINDING AFFINITY PREDICTED BY RF-SCORE:    0.00 PKD
ROOT
ATOM      1  N6    A A   1     -10.404  20.023  65.865  1.00  0.00    -0.474 NA 
ATOM      2  C6    A A   1     -10.101  18.791  66.431  1.00  0.00    -0.404 A  
ATOM      3  H62   A A   1      -9.551  20.579  65.805  1.00  0.00     0.000 HD 
ATOM      4  H61   A A   1     -10.876  20.040  64.961  1.00  0.00     0.000 HD 
ATOM      5  N1    A A   1      -9.477  18.768  67.627  1.00  0.00    -0.297 NA 
ATOM      6  C2    A A   1      -9.183  17.569  68.174  1.00  0.00    -0.277 A  
ATOM      7  N3    A A   1      -9.449  16.333  67.688  1.00  0.00    -0.220 NA 
ATOM      8  C4    A A   1     -10.067  16.408  66.497  1.00  0.00    -0.295 A  
ATOM      9  C5    A A   1     -10.434  17.569  65.824  1.00  0.00    -0.207 A  
ATOM     10  N7    A A   1     -11.095  17.274  64.654  1.00  0.00    -0.959 NA 
ATOM     11  C8    A A   1     -11.116  15.963  64.607  1.00  0.00    -0.354 A  
ATOM     12  N9    A A   1     -10.491  15.388  65.692  1.00  0.00    -0.344 NA 
ENDROOT
BRANCH  12  13
ATOM     13  C1*   A A   1     -10.408  13.955  65.860  1.00  0.00    -0.311 C  
ATOM     14  O4*   A A   1     -11.704  13.521  66.336  1.00  0.00    -0.335 OA 
ATOM     15  C4*   A A   1     -11.622  13.365  67.777  1.00  0.00    -0.340 C  
ATOM     16  C3*   A A   1     -10.141  13.236  68.148  1.00  0.00    -0.241 C  
ATOM     17  H2*   A A   1      -7.484  13.384  67.442  1.00  0.00     0.000 HD 
ATOM     18  C2*   A A   1      -9.416  13.279  66.806  1.00  0.00    -0.257 C  
ATOM     19  O3*   A A   1      -9.893  12.001  68.831  1.00  0.00    -0.400 OA 
ATOM     20  H3*   A A   1      -8.975  11.921  69.061  1.00  0.00     0.000 HD 
ATOM     21  O2*   A A   1      -8.101  13.805  66.855  1.00  0.00    -0.058 OA 
BRANCH  15  22
ATOM     22  C5*   A A   1     -12.271  14.579  68.454  1.00  0.00    -0.119 C  
ATOM     23  O5*   A A   1     -12.579  14.281  69.813  1.00  0.00    -0.479 OA 
ATOM     24  H5*   A A   1     -12.981  15.033  70.232  1.00  0.00     0.000 HD 
ENDBRANCH  15  22
ENDBRANCH  12  13
TORSDOF 2
ENDMDL
MODEL       58
REMARK 921   NORMALIZED FREE ENERGY PREDICTED BY IDOCK:   -5.27 KCAL/MOL
REMARK 922        TOTAL FREE ENERGY PREDICTED BY IDOCK:   -5.95 KCAL/MOL
REMARK 923 INTER-LIGAND FREE ENERGY PREDICTED BY IDOCK:   -5.96 KCAL/MOL
REMARK 924 INTRA-LIGAND FREE ENERGY PREDICTED BY IDOCK:    0.01 KCAL/MOL
REMARK 927      BINDING AFFINITY PREDICTED BY RF-SCORE:    0.00 PKD
ROOT
ATOM      1  N6    A A   1      -6.857  20.974  65.559  1.00  0.00    -0.499 NA 
ATOM      2  C6    A A   1      -6.759  19.609  65.801  1.00  0.00    -0.261 A  
ATOM      3  H62   A A   1      -6.623  21.156  64.583  1.00  0.00     0.000 HD 
ATOM      4  H61   A A   1      -7.733  21.446  65.785  1.00  0.00     0.000 HD 
ATOM      5  N1    A A   1      -5.600  18.985  65.503  1.00  0.00    -0.161 NA 
ATOM      6  C2    A A   1      -5.508  17.659  65.740  1.00  0.00    -0.092 A  
ATOM      7  N3    A A   1      -6.439  16.829  66.268  1.00  0.00    -0.156 NA 
ATOM      8  C4    A A   1      -7.573  17.496  66.545  1.00  0.00    -0.276 A  
ATOM      9  C5    A A   1      -7.803  18.856  66.360  1.00  0.00    -0.280 A  
ATOM     10  N7    A A   1      -9.059  19.209  66.799  1.00  0.00    -0.305 NA 
ATOM     11  C8    A A   1      -9.588  18.087  67.227  1.00  0.00    -0.269 A  
ATOM     12  N9    A A   1      -8.736  17.014  67.079  1.00  0.00    -0.213 NA 
ENDROOT
BRANCH  12  13
ATOM     13  C1*   A A   1      -9.100  15.680  67.498  1.00  0.00    -0.193 C  
ATOM     14  O4*   A A   1      -9.260  14.898  66.291  1.00  0.00    -0.287 OA 
ATOM     15  C4*   A A   1     -10.678  14.834  65.983  1.00  0.00    -0.312 C  
ATOM     16  C3*   A A   1     -11.447  15.170  67.264  1.00  0.00    -0.279 C  
ATOM     17  H2*   A A   1     -11.472  16.077  69.863  1.00  0.00     0.000 HD 
ATOM     18  C2*   A A   1     -10.357  15.372  68.312  1.00  0.00    -0.238 C  
ATOM     19  O3*   A A   1     -12.323  14.096  67.628  1.00  0.00    -0.567 OA 
ATOM     20  H3*   A A   1     -12.800  14.304  68.423  1.00  0.00     0.000 HD 
ATOM     21  O2*   A A   1     -10.691  16.269  69.357  1.00  0.00    -0.273 OA 
BRANCH  15  22
ATOM     22  C5*   A A   1     -10.994  15.826  64.856  1.00  0.00    -0.427 C  
ATOM     23  O5*   A A   1     -11.859  15.224  63.897  1.00  0.00    -0.876 OA 
ATOM     24  H5*   A A   1     -12.055  15.838  63.199  1.00  0.00     0.000 HD 
ENDBRANCH  15  22
ENDBRANCH  12  13
TORSDOF 2
ENDMDL
MODEL       59
REMARK 921   NORMALIZED FREE ENERGY PREDICTED BY IDOCK:   -5.26 KCAL/MOL
REMARK 922        TOTAL FREE ENERGY PREDICTED BY IDOCK:   -5.95 KCAL/MOL
REMARK 923 INTER-LIGAND FREE ENERGY PREDICTED BY IDOCK:   -6.42 KCAL/MOL
REMARK 924 INTRA-LIGAND FREE ENERGY PREDICTED BY IDOCK:    0.47 KCAL/MOL
REMARK 927      BINDING AFFINITY PREDICTED BY RF-SCORE:    0.00 PKD
ROOT
ATOM      1  N6    A A   1     -11.859  11.323  62.726  1.00  0.00    -0.442 NA 
ATOM      2  C6    A A   1     -11.403  11.611  64.006  1.00  0.00    -0.345 A  
ATOM      3  H62   A A   1     -12.173  10.353  62.696  1.00  0.00     0.000 HD 
ATOM      4  H61   A A   1     -12.581  11.919  62.321  1.00  0.00     0.000 HD 
ATOM      5  N1    A A   1     -10.447  10.823  64.542  1.00  0.00    -0.339 NA 
ATOM      6  C2    A A   1     -10.006  11.107  65.786  1.00  0.00    -0.245 A  
ATOM      7  N3    A A   1     -10.385  12.116  66.606  1.00  0.00    -0.206 NA 
ATOM      8  C4    A A   1     -11.338  12.869  66.030  1.00  0.00    -0.317 A  
ATOM      9  C5    A A   1     -11.877  12.698  64.759  1.00  0.00    -0.380 A  
ATOM     10  N7    A A   1     -12.796  13.682  64.474  1.00  0.00    -0.642 NA 
ATOM     11  C8    A A   1     -12.828  14.427  65.554  1.00  0.00    -0.225 A  
ATOM     12  N9    A A   1     -11.976  13.968  66.535  1.00  0.00    -0.424 NA 
ENDROOT
BRANCH  12  13
ATOM     13  C1*   A A   1     -11.833  14.642  67.805  1.00  0.00    -0.329 C  
ATOM     14  O4*   A A   1     -11.249  15.935  67.522  1.00  0.00    -0.279 OA 
ATOM     15  C4*   A A   1      -9.823  15.848  67.780  1.00  0.00    -0.222 C  
ATOM     16  C3*   A A   1      -9.587  14.637  68.687  1.00  0.00    -0.219 C  
ATOM     17  H2*   A A   1     -10.525  12.358  69.915  1.00  0.00     0.000 HD 
ATOM     18  C2*   A A   1     -10.988  14.093  68.955  1.00  0.00    -0.259 C  
ATOM     19  O3*   A A   1      -8.944  15.031  69.906  1.00  0.00    -0.451 OA 
ATOM     20  H3*   A A   1      -8.798  14.279  70.468  1.00  0.00     0.000 HD 
ATOM     21  O2*   A A   1     -11.050  12.699  69.200  1.00  0.00    -0.245 OA 
BRANCH  15  22
ATOM     22  C5*   A A   1      -9.076  15.710  66.446  1.00  0.00    -0.320 C  
ATOM     23  O5*   A A   1      -9.011  16.971  65.784  1.00  0.00    -0.526 OA 
ATOM     24  H5*   A A   1      -8.549  16.885  64.959  1.00  0.00     0.000 HD 
ENDBRANCH  15  22
ENDBRANCH  12  13
TORSDOF 2
ENDMDL
MODEL       60
REMARK 921   NORMALIZED FREE ENERGY PREDICTED BY IDOCK:   -5.25 KCAL/MOL
REMARK 922        TOTAL FREE ENERGY PREDICTED BY IDOCK:   -5.93 KCAL/MOL
REMARK 923 INTER-LIGAND FREE ENERGY PREDICTED BY IDOCK:   -5.67 KCAL/MOL
REMARK 924 INTRA-LIGAND FREE ENERGY PREDICTED BY IDOCK:   -0.26 KCAL/MOL
REMARK 927      BINDING AFFINITY PREDICTED BY RF-SCORE:    0.00 PKD
ROOT
ATOM      1  N6    A A   1     -14.202   8.953  73.211  1.00  0.00    -1.237 NA 
ATOM      2  C6    A A   1     -13.201   9.319  72.319  1.00  0.00    -0.460 A  
ATOM      3  H62   A A   1     -15.099   8.971  72.728  1.00  0.00     0.000 HD 
ATOM      4  H61   A A   1     -14.109   8.067  73.707  1.00  0.00     0.000 HD 
ATOM      5  N1    A A   1     -13.323  10.492  71.662  1.00  0.00    -0.359 NA 
ATOM      6  C2    A A   1     -12.349  10.845  70.796  1.00  0.00    -0.390 A  
ATOM      7  N3    A A   1     -11.211  10.177  70.487  1.00  0.00    -0.317 NA 
ATOM      8  C4    A A   1     -11.138   9.018  71.164  1.00  0.00    -0.301 A  
ATOM      9  C5    A A   1     -12.060   8.534  72.086  1.00  0.00    -0.383 A  
ATOM     10  N7    A A   1     -11.641   7.339  72.624  1.00  0.00    -0.256 NA 
ATOM     11  C8    A A   1     -10.498   7.091  72.031  1.00  0.00    -0.208 A  
ATOM     12  N9    A A   1     -10.154   8.068  71.122  1.00  0.00    -0.187 NA 
ENDROOT
BRANCH  12  13
ATOM     13  C1*   A A   1      -8.927   8.013  70.362  1.00  0.00    -0.146 C  
ATOM     14  O4*   A A   1      -9.305   7.786  68.984  1.00  0.00    -0.150 OA 
ATOM     15  C4*   A A   1      -9.155   6.369  68.706  1.00  0.00    -0.125 C  
ATOM     16  C3*   A A   1      -8.221   5.783  69.770  1.00  0.00    -0.108 C  
ATOM     17  H2*   A A   1      -6.837   6.047  72.135  1.00  0.00     0.000 HD 
ATOM     18  C2*   A A   1      -7.826   6.985  70.622  1.00  0.00    -0.097 C  
ATOM     19  O3*   A A   1      -7.073   5.179  69.163  1.00  0.00    -0.054 OA 
ATOM     20  H3*   A A   1      -6.495   4.815  69.823  1.00  0.00     0.000 HD 
ATOM     21  O2*   A A   1      -7.521   6.686  71.973  1.00  0.00    -0.092 OA 
BRANCH  15  22
ATOM     22  C5*   A A   1     -10.536   5.700  68.734  1.00  0.00    -0.219 C  
ATOM     23  O5*   A A   1     -11.563   6.688  68.707  1.00  0.00    -0.587 OA 
ATOM     24  H5*   A A   1     -12.418   6.274  68.724  1.00  0.00     0.000 HD 
ENDBRANCH  15  22
ENDBRANCH  12  13
TORSDOF 2
ENDMDL
MODEL       61
REMARK 921   NORMALIZED FREE ENERGY PREDICTED BY IDOCK:   -5.24 KCAL/MOL
REMARK 922        TOTAL FREE ENERGY PREDICTED BY IDOCK:   -5.92 KCAL/MOL
REMARK 923 INTER-LIGAND FREE ENERGY PREDICTED BY IDOCK:   -5.95 KCAL/MOL
REMARK 924 INTRA-LIGAND FREE ENERGY PREDICTED BY IDOCK:    0.03 KCAL/MOL
REMARK 927      BINDING AFFINITY PREDICTED BY RF-SCORE:    0.00 PKD
ROOT
ATOM      1  N6    A A   1     -12.389  13.971  63.338  1.00  0.00    -1.154 NA 
ATOM      2  C6    A A   1     -11.670  12.923  63.902  1.00  0.00    -0.460 A  
ATOM      3  H62   A A   1     -13.013  13.598  62.623  1.00  0.00     0.000 HD 
ATOM      4  H61   A A   1     -12.921  14.583  63.957  1.00  0.00     0.000 HD 
ATOM      5  N1    A A   1     -10.965  12.114  63.084  1.00  0.00    -0.297 NA 
ATOM      6  C2    A A   1     -10.268  11.097  63.635  1.00  0.00    -0.387 A  
ATOM      7  N3    A A   1     -10.152  10.765  64.944  1.00  0.00    -0.301 NA 
ATOM      8  C4    A A   1     -10.872  11.597  65.715  1.00  0.00    -0.281 A  
ATOM      9  C5    A A   1     -11.628  12.683  65.285  1.00  0.00    -0.351 A  
ATOM     10  N7    A A   1     -12.193  13.346  66.350  1.00  0.00    -0.399 NA 
ATOM     11  C8    A A   1     -11.804  12.669  67.406  1.00  0.00    -0.328 A  
ATOM     12  N9    A A   1     -11.016  11.588  67.075  1.00  0.00    -0.279 NA 
ENDROOT
BRANCH  12  13
ATOM     13  C1*   A A   1     -10.459  10.708  68.077  1.00  0.00    -0.196 C  
ATOM     14  O4*   A A   1      -9.375  11.432  68.704  1.00  0.00    -0.185 OA 
ATOM     15  C4*   A A   1      -8.132  10.991  68.098  1.00  0.00    -0.122 C  
ATOM     16  C3*   A A   1      -8.396   9.639  67.427  1.00  0.00    -0.114 C  
ATOM     17  H2*   A A   1     -10.157   7.696  66.589  1.00  0.00     0.000 HD 
ATOM     18  C2*   A A   1      -9.857   9.341  67.751  1.00  0.00    -0.171 C  
ATOM     19  O3*   A A   1      -7.532   8.628  67.960  1.00  0.00    -0.093 OA 
ATOM     20  H3*   A A   1      -7.696   7.790  67.544  1.00  0.00     0.000 HD 
ATOM     21  O2*   A A   1     -10.531   8.545  66.791  1.00  0.00    -0.303 OA 
BRANCH  15  22
ATOM     22  C5*   A A   1      -7.663  12.043  67.085  1.00  0.00    -0.161 C  
ATOM     23  O5*   A A   1      -7.351  11.425  65.839  1.00  0.00    -0.364 OA 
ATOM     24  H5*   A A   1      -7.060  12.077  65.212  1.00  0.00     0.000 HD 
ENDBRANCH  15  22
ENDBRANCH  12  13
TORSDOF 2
ENDMDL
MODEL       62
REMARK 921   NORMALIZED FREE ENERGY PREDICTED BY IDOCK:   -5.23 KCAL/MOL
REMARK 922        TOTAL FREE ENERGY PREDICTED BY IDOCK:   -5.90 KCAL/MOL
REMARK 923 INTER-LIGAND FREE ENERGY PREDICTED BY IDOCK:   -5.95 KCAL/MOL
REMARK 924 INTRA-LIGAND FREE ENERGY PREDICTED BY IDOCK:    0.04 KCAL/MOL
REMARK 927      BINDING AFFINITY PREDICTED BY RF-SCORE:    0.00 PKD
ROOT
ATOM      1  N6    A A   1     -12.587  13.405  62.735  1.00  0.00    -0.618 NA 
ATOM      2  C6    A A   1     -12.254  13.584  64.073  1.00  0.00    -0.402 A  
ATOM      3  H62   A A   1     -13.550  13.075  62.674  1.00  0.00     0.000 HD 
ATOM      4  H61   A A   1     -12.464  14.191  62.095  1.00  0.00     0.000 HD 
ATOM      5  N1    A A   1     -12.416  12.545  64.919  1.00  0.00    -0.549 NA 
ATOM      6  C2    A A   1     -12.092  12.721  66.218  1.00  0.00    -0.332 A  
ATOM      7  N3    A A   1     -11.592  13.827  66.820  1.00  0.00    -0.351 NA 
ATOM      8  C4    A A   1     -11.452  14.831  65.938  1.00  0.00    -0.319 A  
ATOM      9  C5    A A   1     -11.739  14.788  64.577  1.00  0.00    -0.391 A  
ATOM     10  N7    A A   1     -11.428  15.982  63.968  1.00  0.00    -0.679 NA 
ATOM     11  C8    A A   1     -10.977  16.742  64.939  1.00  0.00    -0.087 A  
ATOM     12  N9    A A   1     -10.988  16.099  66.158  1.00  0.00    -0.120 NA 
ENDROOT
BRANCH  12  13
ATOM     13  C1*   A A   1     -10.519  16.736  67.366  1.00  0.00    -0.310 C  
ATOM     14  O4*   A A   1      -9.074  16.736  67.299  1.00  0.00    -0.215 OA 
ATOM     15  C4*   A A   1      -8.589  15.620  68.091  1.00  0.00    -0.159 C  
ATOM     16  C3*   A A   1      -9.712  15.208  69.050  1.00  0.00    -0.234 C  
ATOM     17  H2*   A A   1     -12.332  15.393  69.875  1.00  0.00     0.000 HD 
ATOM     18  C2*   A A   1     -10.829  16.207  68.767  1.00  0.00    -0.310 C  
ATOM     19  O3*   A A   1      -9.275  15.292  70.411  1.00  0.00    -0.162 OA 
ATOM     20  H3*   A A   1      -9.970  15.036  71.005  1.00  0.00     0.000 HD 
ATOM     21  O2*   A A   1     -12.139  15.722  69.004  1.00  0.00    -0.349 OA 
BRANCH  15  22
ATOM     22  C5*   A A   1      -8.194  14.471  67.155  1.00  0.00    -0.188 C  
ATOM     23  O5*   A A   1      -8.694  13.233  67.654  1.00  0.00    -0.171 OA 
ATOM     24  H5*   A A   1      -8.449  12.521  67.075  1.00  0.00     0.000 HD 
ENDBRANCH  15  22
ENDBRANCH  12  13
TORSDOF 2
ENDMDL
MODEL       63
REMARK 921   NORMALIZED FREE ENERGY PREDICTED BY IDOCK:   -5.21 KCAL/MOL
REMARK 922        TOTAL FREE ENERGY PREDICTED BY IDOCK:   -5.89 KCAL/MOL
REMARK 923 INTER-LIGAND FREE ENERGY PREDICTED BY IDOCK:   -5.85 KCAL/MOL
REMARK 924 INTRA-LIGAND FREE ENERGY PREDICTED BY IDOCK:   -0.04 KCAL/MOL
REMARK 927      BINDING AFFINITY PREDICTED BY RF-SCORE:    0.00 PKD
ROOT
ATOM      1  N6    A A   1      -9.787  17.004  68.674  1.00  0.00    -0.277 NA 
ATOM      2  C6    A A   1     -10.446  15.786  68.552  1.00  0.00    -0.236 A  
ATOM      3  H62   A A   1      -9.153  16.959  69.472  1.00  0.00     0.000 HD 
ATOM      4  H61   A A   1      -9.279  17.364  67.866  1.00  0.00     0.000 HD 
ATOM      5  N1    A A   1     -11.119  15.310  69.621  1.00  0.00    -0.257 NA 
ATOM      6  C2    A A   1     -11.759  14.127  69.500  1.00  0.00    -0.312 A  
ATOM      7  N3    A A   1     -11.844  13.322  68.414  1.00  0.00    -0.354 NA 
ATOM      8  C4    A A   1     -11.158  13.837  67.380  1.00  0.00    -0.296 A  
ATOM      9  C5    A A   1     -10.462  15.042  67.362  1.00  0.00    -0.257 A  
ATOM     10  N7    A A   1      -9.919  15.282  66.121  1.00  0.00    -0.281 NA 
ATOM     11  C8    A A   1     -10.262  14.238  65.402  1.00  0.00    -0.371 A  
ATOM     12  N9    A A   1     -10.999  13.323  66.122  1.00  0.00    -0.279 NA 
ENDROOT
BRANCH  12  13
ATOM     13  C1*   A A   1     -11.501  12.105  65.530  1.00  0.00    -0.343 C  
ATOM     14  O4*   A A   1     -10.857  11.012  66.227  1.00  0.00    -0.247 OA 
ATOM     15  C4*   A A   1      -9.741  10.559  65.416  1.00  0.00    -0.257 C  
ATOM     16  C3*   A A   1      -9.979  11.050  63.984  1.00  0.00    -0.335 C  
ATOM     17  H2*   A A   1     -11.392  12.592  62.194  1.00  0.00     0.000 HD 
ATOM     18  C2*   A A   1     -11.328  11.759  64.051  1.00  0.00    -0.381 C  
ATOM     19  O3*   A A   1     -10.019   9.948  63.069  1.00  0.00    -0.468 OA 
ATOM     20  H3*   A A   1     -10.166  10.252  62.181  1.00  0.00     0.000 HD 
ATOM     21  O2*   A A   1     -11.499  12.808  63.113  1.00  0.00    -0.408 OA 
BRANCH  15  22
ATOM     22  C5*   A A   1      -8.436  11.118  65.996  1.00  0.00    -0.138 C  
ATOM     23  O5*   A A   1      -7.363  10.919  65.079  1.00  0.00    -0.354 OA 
ATOM     24  H5*   A A   1      -6.554  11.265  65.439  1.00  0.00     0.000 HD 
ENDBRANCH  15  22
ENDBRANCH  12  13
TORSDOF 2
ENDMDL
MODEL       64
REMARK 921   NORMALIZED FREE ENERGY PREDICTED BY IDOCK:   -5.21 KCAL/MOL
REMARK 922        TOTAL FREE ENERGY PREDICTED BY IDOCK:   -5.89 KCAL/MOL
REMARK 923 INTER-LIGAND FREE ENERGY PREDICTED BY IDOCK:   -5.99 KCAL/MOL
REMARK 924 INTRA-LIGAND FREE ENERGY PREDICTED BY IDOCK:    0.10 KCAL/MOL
REMARK 927      BINDING AFFINITY PREDICTED BY RF-SCORE:    0.00 PKD
ROOT
ATOM      1  N6    A A   1     -11.102  16.955  70.424  1.00  0.00    -0.299 NA 
ATOM      2  C6    A A   1     -11.448  15.647  70.105  1.00  0.00    -0.348 A  
ATOM      3  H62   A A   1     -10.396  16.941  71.159  1.00  0.00     0.000 HD 
ATOM      4  H61   A A   1     -10.788  17.570  69.673  1.00  0.00     0.000 HD 
ATOM      5  N1    A A   1     -11.864  14.832  71.098  1.00  0.00    -0.328 NA 
ATOM      6  C2    A A   1     -12.200  13.562  70.786  1.00  0.00    -0.338 A  
ATOM      7  N3    A A   1     -12.197  12.963  69.571  1.00  0.00    -0.185 NA 
ATOM      8  C4    A A   1     -11.774  13.813  68.619  1.00  0.00    -0.356 A  
ATOM      9  C5    A A   1     -11.405  15.142  68.796  1.00  0.00    -0.300 A  
ATOM     10  N7    A A   1     -11.074  15.728  67.596  1.00  0.00    -0.312 NA 
ATOM     11  C8    A A   1     -11.221  14.772  66.708  1.00  0.00    -0.344 A  
ATOM     12  N9    A A   1     -11.628  13.584  67.278  1.00  0.00    -0.341 NA 
ENDROOT
BRANCH  12  13
ATOM     13  C1*   A A   1     -11.871  12.398  66.490  1.00  0.00    -0.339 C  
ATOM     14  O4*   A A   1     -11.629  11.268  67.361  1.00  0.00    -0.519 OA 
ATOM     15  C4*   A A   1     -10.291  10.774  67.091  1.00  0.00    -0.224 C  
ATOM     16  C3*   A A   1      -9.873  11.293  65.712  1.00  0.00    -0.232 C  
ATOM     17  H2*   A A   1     -10.323  12.923  63.540  1.00  0.00     0.000 HD 
ATOM     18  C2*   A A   1     -11.093  12.064  65.217  1.00  0.00    -0.317 C  
ATOM     19  O3*   A A   1      -9.557  10.206  64.834  1.00  0.00    -0.261 OA 
ATOM     20  H3*   A A   1      -9.297  10.528  63.979  1.00  0.00     0.000 HD 
ATOM     21  O2*   A A   1     -10.806  13.131  64.330  1.00  0.00    -0.356 OA 
BRANCH  15  22
ATOM     22  C5*   A A   1      -9.341  11.263  68.193  1.00  0.00    -0.181 C  
ATOM     23  O5*   A A   1      -9.738  10.737  69.456  1.00  0.00    -0.414 OA 
ATOM     24  H5*   A A   1      -9.150  11.040  70.138  1.00  0.00     0.000 HD 
ENDBRANCH  15  22
ENDBRANCH  12  13
TORSDOF 2
ENDMDL
MODEL       65
REMARK 921   NORMALIZED FREE ENERGY PREDICTED BY IDOCK:   -5.21 KCAL/MOL
REMARK 922        TOTAL FREE ENERGY PREDICTED BY IDOCK:   -5.89 KCAL/MOL
REMARK 923 INTER-LIGAND FREE ENERGY PREDICTED BY IDOCK:   -6.08 KCAL/MOL
REMARK 924 INTRA-LIGAND FREE ENERGY PREDICTED BY IDOCK:    0.19 KCAL/MOL
REMARK 927      BINDING AFFINITY PREDICTED BY RF-SCORE:    0.00 PKD
ROOT
ATOM      1  N6    A A   1     -10.167  19.328  69.440  1.00  0.00    -0.487 NA 
ATOM      2  C6    A A   1     -10.243  18.435  68.378  1.00  0.00    -0.378 A  
ATOM      3  H62   A A   1     -10.592  20.212  69.161  1.00  0.00     0.000 HD 
ATOM      4  H61   A A   1     -10.552  19.044  70.341  1.00  0.00     0.000 HD 
ATOM      5  N1    A A   1      -9.734  18.810  67.185  1.00  0.00    -0.293 NA 
ATOM      6  C2    A A   1      -9.809  17.940  66.155  1.00  0.00    -0.249 A  
ATOM      7  N3    A A   1     -10.327  16.688  66.144  1.00  0.00    -0.333 NA 
ATOM      8  C4    A A   1     -10.822  16.364  67.350  1.00  0.00    -0.219 A  
ATOM      9  C5    A A   1     -10.807  17.155  68.495  1.00  0.00    -0.281 A  
ATOM     10  N7    A A   1     -11.355  16.486  69.565  1.00  0.00    -0.181 NA 
ATOM     11  C8    A A   1     -11.712  15.320  69.080  1.00  0.00    -0.335 A  
ATOM     12  N9    A A   1     -11.428  15.200  67.737  1.00  0.00    -0.331 NA 
ENDROOT
BRANCH  12  13
ATOM     13  C1*   A A   1     -11.718  13.995  66.995  1.00  0.00    -0.398 C  
ATOM     14  O4*   A A   1     -10.833  12.972  67.508  1.00  0.00    -0.240 OA 
ATOM     15  C4*   A A   1      -9.702  12.864  66.604  1.00  0.00    -0.254 C  
ATOM     16  C3*   A A   1     -10.116  13.481  65.265  1.00  0.00    -0.257 C  
ATOM     17  H2*   A A   1     -11.908  14.932  63.760  1.00  0.00     0.000 HD 
ATOM     18  C2*   A A   1     -11.571  13.890  65.477  1.00  0.00    -0.327 C  
ATOM     19  O3*   A A   1      -9.996  12.525  64.205  1.00  0.00    -0.536 OA 
ATOM     20  H3*   A A   1     -10.254  12.908  63.374  1.00  0.00     0.000 HD 
ATOM     21  O2*   A A   1     -11.999  14.997  64.703  1.00  0.00    -0.414 OA 
BRANCH  15  22
ATOM     22  C5*   A A   1      -8.497  13.592  67.214  1.00  0.00    -0.193 C  
ATOM     23  O5*   A A   1      -8.188  14.758  66.456  1.00  0.00    -0.368 OA 
ATOM     24  H5*   A A   1      -7.442  15.209  66.833  1.00  0.00     0.000 HD 
ENDBRANCH  15  22
ENDBRANCH  12  13
TORSDOF 2
ENDMDL
MODEL       66
REMARK 921   NORMALIZED FREE ENERGY PREDICTED BY IDOCK:   -5.21 KCAL/MOL
REMARK 922        TOTAL FREE ENERGY PREDICTED BY IDOCK:   -5.89 KCAL/MOL
REMARK 923 INTER-LIGAND FREE ENERGY PREDICTED BY IDOCK:   -5.75 KCAL/MOL
REMARK 924 INTRA-LIGAND FREE ENERGY PREDICTED BY IDOCK:   -0.13 KCAL/MOL
REMARK 927      BINDING AFFINITY PREDICTED BY RF-SCORE:    0.00 PKD
ROOT
ATOM      1  N6    A A   1     -12.273  13.699  68.161  1.00  0.00    -0.382 NA 
ATOM      2  C6    A A   1     -11.625  14.804  68.699  1.00  0.00    -0.319 A  
ATOM      3  H62   A A   1     -13.278  13.869  68.165  1.00  0.00     0.000 HD 
ATOM      4  H61   A A   1     -11.994  13.376  67.234  1.00  0.00     0.000 HD 
ATOM      5  N1    A A   1     -11.993  15.231  69.926  1.00  0.00    -0.323 NA 
ATOM      6  C2    A A   1     -11.361  16.305  70.446  1.00  0.00    -0.299 A  
ATOM      7  N3    A A   1     -10.359  17.038  69.905  1.00  0.00     0.031 NA 
ATOM      8  C4    A A   1     -10.031  16.576  68.686  1.00  0.00    -0.248 A  
ATOM      9  C5    A A   1     -10.591  15.482  68.034  1.00  0.00    -0.270 A  
ATOM     10  N7    A A   1      -9.979  15.262  66.822  1.00  0.00    -0.237 NA 
ATOM     11  C8    A A   1      -9.077  16.212  66.729  1.00  0.00    -0.230 A  
ATOM     12  N9    A A   1      -9.079  17.047  67.825  1.00  0.00    -0.226 NA 
ENDROOT
BRANCH  12  13
ATOM     13  C1*   A A   1      -8.159  18.153  67.948  1.00  0.00    -0.247 C  
ATOM     14  O4*   A A   1      -8.950  19.310  68.311  1.00  0.00    -0.312 OA 
ATOM     15  C4*   A A   1      -9.198  20.078  67.105  1.00  0.00    -0.368 C  
ATOM     16  C3*   A A   1      -8.155  19.660  66.064  1.00  0.00    -0.313 C  
ATOM     17  H2*   A A   1      -6.137  17.971  65.254  1.00  0.00     0.000 HD 
ATOM     18  C2*   A A   1      -7.282  18.647  66.797  1.00  0.00    -0.214 C  
ATOM     19  O3*   A A   1      -7.385  20.789  65.632  1.00  0.00    -0.502 OA 
ATOM     20  H3*   A A   1      -6.739  20.530  64.987  1.00  0.00     0.000 HD 
ATOM     21  O2*   A A   1      -6.682  17.665  65.969  1.00  0.00    -0.260 OA 
BRANCH  15  22
ATOM     22  C5*   A A   1     -10.627  19.803  66.617  1.00  0.00    -0.462 C  
ATOM     23  O5*   A A   1     -10.602  18.953  65.473  1.00  0.00    -0.572 OA 
ATOM     24  H5*   A A   1     -11.487  18.783  65.171  1.00  0.00     0.000 HD 
ENDBRANCH  15  22
ENDBRANCH  12  13
TORSDOF 2
ENDMDL
MODEL       67
REMARK 921   NORMALIZED FREE ENERGY PREDICTED BY IDOCK:   -5.20 KCAL/MOL
REMARK 922        TOTAL FREE ENERGY PREDICTED BY IDOCK:   -5.87 KCAL/MOL
REMARK 923 INTER-LIGAND FREE ENERGY PREDICTED BY IDOCK:   -5.83 KCAL/MOL
REMARK 924 INTRA-LIGAND FREE ENERGY PREDICTED BY IDOCK:   -0.05 KCAL/MOL
REMARK 927      BINDING AFFINITY PREDICTED BY RF-SCORE:    0.00 PKD
ROOT
ATOM      1  N6    A A   1      -8.615  20.349  66.061  1.00  0.00    -0.563 NA 
ATOM      2  C6    A A   1      -8.213  19.274  66.846  1.00  0.00    -0.277 A  
ATOM      3  H62   A A   1      -8.209  20.250  65.130  1.00  0.00     0.000 HD 
ATOM      4  H61   A A   1      -9.613  20.537  65.969  1.00  0.00     0.000 HD 
ATOM      5  N1    A A   1      -6.892  19.025  66.967  1.00  0.00    -0.198 NA 
ATOM      6  C2    A A   1      -6.505  17.981  67.731  1.00  0.00    -0.183 A  
ATOM      7  N3    A A   1      -7.277  17.120  68.436  1.00  0.00    -0.200 NA 
ATOM      8  C4    A A   1      -8.581  17.408  68.281  1.00  0.00    -0.260 A  
ATOM      9  C5    A A   1      -9.118  18.451  67.534  1.00  0.00    -0.271 A  
ATOM     10  N7    A A   1     -10.490  18.479  67.639  1.00  0.00    -0.405 NA 
ATOM     11  C8    A A   1     -10.784  17.465  68.419  1.00  0.00    -0.301 A  
ATOM     12  N9    A A   1      -9.663  16.771  68.822  1.00  0.00    -0.252 NA 
ENDROOT
BRANCH  12  13
ATOM     13  C1*   A A   1      -9.744  15.626  69.700  1.00  0.00    -0.276 C  
ATOM     14  O4*   A A   1      -9.440  14.465  68.892  1.00  0.00    -0.188 OA 
ATOM     15  C4*   A A   1     -10.695  13.846  68.508  1.00  0.00    -0.257 C  
ATOM     16  C3*   A A   1     -11.774  14.341  69.476  1.00  0.00    -0.316 C  
ATOM     17  H2*   A A   1     -12.573  16.040  71.490  1.00  0.00     0.000 HD 
ATOM     18  C2*   A A   1     -11.016  15.235  70.452  1.00  0.00    -0.290 C  
ATOM     19  O3*   A A   1     -12.393  13.242  70.155  1.00  0.00    -0.301 OA 
ATOM     20  H3*   A A   1     -13.062  13.549  70.755  1.00  0.00     0.000 HD 
ATOM     21  O2*   A A   1     -11.783  16.283  71.022  1.00  0.00    -0.403 OA 
BRANCH  15  22
ATOM     22  C5*   A A   1     -11.020  14.223  67.056  1.00  0.00    -0.303 C  
ATOM     23  O5*   A A   1     -12.431  14.296  66.869  1.00  0.00    -0.581 OA 
ATOM     24  H5*   A A   1     -12.633  14.530  65.971  1.00  0.00     0.000 HD 
ENDBRANCH  15  22
ENDBRANCH  12  13
TORSDOF 2
ENDMDL
MODEL       68
REMARK 921   NORMALIZED FREE ENERGY PREDICTED BY IDOCK:   -5.19 KCAL/MOL
REMARK 922        TOTAL FREE ENERGY PREDICTED BY IDOCK:   -5.87 KCAL/MOL
REMARK 923 INTER-LIGAND FREE ENERGY PREDICTED BY IDOCK:   -5.96 KCAL/MOL
REMARK 924 INTRA-LIGAND FREE ENERGY PREDICTED BY IDOCK:    0.09 KCAL/MOL
REMARK 927      BINDING AFFINITY PREDICTED BY RF-SCORE:    0.00 PKD
ROOT
ATOM      1  N6    A A   1      -8.075  15.124  70.135  1.00  0.00    -0.161 NA 
ATOM      2  C6    A A   1      -8.591  15.046  68.847  1.00  0.00    -0.189 A  
ATOM      3  H62   A A   1      -7.714  16.064  70.292  1.00  0.00     0.000 HD 
ATOM      4  H61   A A   1      -8.678  14.865  70.916  1.00  0.00     0.000 HD 
ATOM      5  N1    A A   1      -7.793  15.387  67.814  1.00  0.00    -0.133 NA 
ATOM      6  C2    A A   1      -8.297  15.310  66.563  1.00  0.00    -0.089 A  
ATOM      7  N3    A A   1      -9.530  14.908  66.174  1.00  0.00    -0.298 NA 
ATOM      8  C4    A A   1     -10.285  14.582  67.237  1.00  0.00    -0.255 A  
ATOM      9  C5    A A   1      -9.896  14.608  68.572  1.00  0.00    -0.228 A  
ATOM     10  N7    A A   1     -10.907  14.161  69.391  1.00  0.00    -0.186 NA 
ATOM     11  C8    A A   1     -11.897  13.885  68.575  1.00  0.00    -0.366 A  
ATOM     12  N9    A A   1     -11.579  14.140  67.259  1.00  0.00    -0.353 NA 
ENDROOT
BRANCH  12  13
ATOM     13  C1*   A A   1     -12.511  13.894  66.182  1.00  0.00    -0.436 C  
ATOM     14  O4*   A A   1     -12.644  12.457  66.072  1.00  0.00    -0.414 OA 
ATOM     15  C4*   A A   1     -11.785  12.009  64.991  1.00  0.00    -0.255 C  
ATOM     16  C3*   A A   1     -11.480  13.222  64.107  1.00  0.00    -0.396 C  
ATOM     17  H2*   A A   1     -11.572  15.939  63.669  1.00  0.00     0.000 HD 
ATOM     18  C2*   A A   1     -12.273  14.358  64.745  1.00  0.00    -0.446 C  
ATOM     19  O3*   A A   1     -11.904  12.989  62.758  1.00  0.00    -0.698 OA 
ATOM     20  H3*   A A   1     -11.715  13.741  62.210  1.00  0.00     0.000 HD 
ATOM     21  O2*   A A   1     -11.719  15.650  64.562  1.00  0.00    -0.363 OA 
BRANCH  15  22
ATOM     22  C5*   A A   1     -10.505  11.403  65.582  1.00  0.00    -0.262 C  
ATOM     23  O5*   A A   1      -9.358  11.931  64.921  1.00  0.00    -0.428 OA 
ATOM     24  H5*   A A   1      -8.566  11.556  65.287  1.00  0.00     0.000 HD 
ENDBRANCH  15  22
ENDBRANCH  12  13
TORSDOF 2
ENDMDL
MODEL       69
REMARK 921   NORMALIZED FREE ENERGY PREDICTED BY IDOCK:   -5.19 KCAL/MOL
REMARK 922        TOTAL FREE ENERGY PREDICTED BY IDOCK:   -5.87 KCAL/MOL
REMARK 923 INTER-LIGAND FREE ENERGY PREDICTED BY IDOCK:   -5.93 KCAL/MOL
REMARK 924 INTRA-LIGAND FREE ENERGY PREDICTED BY IDOCK:    0.07 KCAL/MOL
REMARK 927      BINDING AFFINITY PREDICTED BY RF-SCORE:    0.00 PKD
ROOT
ATOM      1  N6    A A   1     -11.061  11.290  63.377  1.00  0.00    -0.776 NA 
ATOM      2  C6    A A   1     -11.436  12.248  64.311  1.00  0.00    -0.362 A  
ATOM      3  H62   A A   1     -11.095  11.704  62.445  1.00  0.00     0.000 HD 
ATOM      4  H61   A A   1     -10.164  10.819  63.498  1.00  0.00     0.000 HD 
ATOM      5  N1    A A   1     -12.622  12.872  64.151  1.00  0.00    -0.665 NA 
ATOM      6  C2    A A   1     -12.985  13.802  65.061  1.00  0.00    -0.162 A  
ATOM      7  N3    A A   1     -12.313  14.208  66.165  1.00  0.00    -0.459 NA 
ATOM      8  C4    A A   1     -11.140  13.561  66.278  1.00  0.00    -0.300 A  
ATOM      9  C5    A A   1     -10.647  12.581  65.423  1.00  0.00    -0.281 A  
ATOM     10  N7    A A   1      -9.438  12.099  65.870  1.00  0.00    -0.216 NA 
ATOM     11  C8    A A   1      -9.192  12.783  66.963  1.00  0.00    -0.221 A  
ATOM     12  N9    A A   1     -10.184  13.696  67.246  1.00  0.00    -0.244 NA 
ENDROOT
BRANCH  12  13
ATOM     13  C1*   A A   1     -10.134  14.547  68.412  1.00  0.00    -0.241 C  
ATOM     14  O4*   A A   1     -10.945  15.707  68.111  1.00  0.00    -0.288 OA 
ATOM     15  C4*   A A   1     -10.057  16.779  67.696  1.00  0.00    -0.275 C  
ATOM     16  C3*   A A   1      -8.651  16.439  68.201  1.00  0.00    -0.193 C  
ATOM     17  H2*   A A   1      -6.891  14.651  69.335  1.00  0.00     0.000 HD 
ATOM     18  C2*   A A   1      -8.835  15.133  68.967  1.00  0.00    -0.219 C  
ATOM     19  O3*   A A   1      -8.153  17.475  69.056  1.00  0.00    -0.204 OA 
ATOM     20  H3*   A A   1      -7.281  17.264  69.369  1.00  0.00     0.000 HD 
ATOM     21  O2*   A A   1      -7.698  14.287  68.990  1.00  0.00    -0.125 OA 
BRANCH  15  22
ATOM     22  C5*   A A   1     -10.095  16.902  66.167  1.00  0.00    -0.333 C  
ATOM     23  O5*   A A   1      -9.011  16.182  65.586  1.00  0.00    -0.370 OA 
ATOM     24  H5*   A A   1      -9.035  16.258  64.640  1.00  0.00     0.000 HD 
ENDBRANCH  15  22
ENDBRANCH  12  13
TORSDOF 2
ENDMDL
MODEL       70
REMARK 921   NORMALIZED FREE ENERGY PREDICTED BY IDOCK:   -5.18 KCAL/MOL
REMARK 922        TOTAL FREE ENERGY PREDICTED BY IDOCK:   -5.86 KCAL/MOL
REMARK 923 INTER-LIGAND FREE ENERGY PREDICTED BY IDOCK:   -5.58 KCAL/MOL
REMARK 924 INTRA-LIGAND FREE ENERGY PREDICTED BY IDOCK:   -0.27 KCAL/MOL
REMARK 927      BINDING AFFINITY PREDICTED BY RF-SCORE:    0.00 PKD
ROOT
ATOM      1  N6    A A   1      -8.835  20.472  66.112  1.00  0.00    -0.545 NA 
ATOM      2  C6    A A   1      -8.479  19.485  67.024  1.00  0.00    -0.296 A  
ATOM      3  H62   A A   1      -8.165  20.470  65.343  1.00  0.00     0.000 HD 
ATOM      4  H61   A A   1      -9.780  20.460  65.728  1.00  0.00     0.000 HD 
ATOM      5  N1    A A   1      -7.228  19.500  67.532  1.00  0.00    -0.221 NA 
ATOM      6  C2    A A   1      -6.885  18.541  68.418  1.00  0.00    -0.252 A  
ATOM      7  N3    A A   1      -7.647  17.532  68.906  1.00  0.00    -0.255 NA 
ATOM      8  C4    A A   1      -8.879  17.559  68.369  1.00  0.00    -0.276 A  
ATOM      9  C5    A A   1      -9.367  18.488  67.456  1.00  0.00    -0.279 A  
ATOM     10  N7    A A   1     -10.688  18.242  67.159  1.00  0.00    -0.356 NA 
ATOM     11  C8    A A   1     -10.994  17.177  67.863  1.00  0.00    -0.208 A  
ATOM     12  N9    A A   1      -9.927  16.712  68.601  1.00  0.00    -0.248 NA 
ENDROOT
BRANCH  12  13
ATOM     13  C1*   A A   1     -10.036  15.559  69.465  1.00  0.00    -0.280 C  
ATOM     14  O4*   A A   1      -9.164  14.545  68.913  1.00  0.00    -0.186 OA 
ATOM     15  C4*   A A   1      -9.978  13.629  68.136  1.00  0.00    -0.246 C  
ATOM     16  C3*   A A   1     -11.430  13.792  68.597  1.00  0.00    -0.301 C  
ATOM     17  H2*   A A   1     -13.335  15.155  70.044  1.00  0.00     0.000 HD 
ATOM     18  C2*   A A   1     -11.352  14.823  69.718  1.00  0.00    -0.283 C  
ATOM     19  O3*   A A   1     -11.955  12.547  69.074  1.00  0.00    -0.289 OA 
ATOM     20  H3*   A A   1     -12.855  12.648  69.360  1.00  0.00     0.000 HD 
ATOM     21  O2*   A A   1     -12.517  15.612  69.887  1.00  0.00    -0.330 OA 
BRANCH  15  22
ATOM     22  C5*   A A   1      -9.818  13.953  66.644  1.00  0.00    -0.284 C  
ATOM     23  O5*   A A   1      -8.664  14.763  66.436  1.00  0.00    -0.448 OA 
ATOM     24  H5*   A A   1      -8.565  14.963  65.513  1.00  0.00     0.000 HD 
ENDBRANCH  15  22
ENDBRANCH  12  13
TORSDOF 2
ENDMDL
MODEL       71
REMARK 921   NORMALIZED FREE ENERGY PREDICTED BY IDOCK:   -5.18 KCAL/MOL
REMARK 922        TOTAL FREE ENERGY PREDICTED BY IDOCK:   -5.85 KCAL/MOL
REMARK 923 INTER-LIGAND FREE ENERGY PREDICTED BY IDOCK:   -5.73 KCAL/MOL
REMARK 924 INTRA-LIGAND FREE ENERGY PREDICTED BY IDOCK:   -0.12 KCAL/MOL
REMARK 927      BINDING AFFINITY PREDICTED BY RF-SCORE:    0.00 PKD
ROOT
ATOM      1  N6    A A   1     -12.055  10.939  68.729  1.00  0.00    -0.763 NA 
ATOM      2  C6    A A   1     -11.025  11.591  68.062  1.00  0.00    -0.231 A  
ATOM      3  H62   A A   1     -11.744  10.706  69.672  1.00  0.00     0.000 HD 
ATOM      4  H61   A A   1     -12.965  11.397  68.783  1.00  0.00     0.000 HD 
ATOM      5  N1    A A   1      -9.821  10.985  67.991  1.00  0.00    -0.167 NA 
ATOM      6  C2    A A   1      -8.821  11.621  67.342  1.00  0.00    -0.160 A  
ATOM      7  N3    A A   1      -8.854  12.820  66.711  1.00  0.00    -0.195 NA 
ATOM      8  C4    A A   1     -10.070  13.382  66.813  1.00  0.00    -0.260 A  
ATOM      9  C5    A A   1     -11.186  12.840  67.443  1.00  0.00    -0.294 A  
ATOM     10  N7    A A   1     -12.279  13.666  67.310  1.00  0.00    -0.337 NA 
ATOM     11  C8    A A   1     -11.835  14.697  66.629  1.00  0.00    -0.310 A  
ATOM     12  N9    A A   1     -10.497  14.583  66.318  1.00  0.00    -0.293 NA 
ENDROOT
BRANCH  12  13
ATOM     13  C1*   A A   1      -9.798  15.593  65.557  1.00  0.00    -0.291 C  
ATOM     14  O4*   A A   1      -8.778  16.134  66.429  1.00  0.00    -0.265 OA 
ATOM     15  C4*   A A   1      -9.282  17.375  66.990  1.00  0.00    -0.246 C  
ATOM     16  C3*   A A   1     -10.427  17.859  66.095  1.00  0.00    -0.321 C  
ATOM     17  H2*   A A   1     -12.192  17.414  64.030  1.00  0.00     0.000 HD 
ATOM     18  C2*   A A   1     -10.485  16.828  64.973  1.00  0.00     0.077 C  
ATOM     19  O3*   A A   1     -10.153  19.168  65.582  1.00  0.00    -0.448 OA 
ATOM     20  H3*   A A   1     -10.863  19.468  65.027  1.00  0.00     0.000 HD 
ATOM     21  O2*   A A   1     -11.766  16.647  64.393  1.00  0.00    -0.695 OA 
BRANCH  15  22
ATOM     22  C5*   A A   1      -9.755  17.123  68.428  1.00  0.00    -0.284 C  
ATOM     23  O5*   A A   1     -11.035  17.711  68.637  1.00  0.00    -0.248 OA 
ATOM     24  H5*   A A   1     -11.329  17.555  69.527  1.00  0.00     0.000 HD 
ENDBRANCH  15  22
ENDBRANCH  12  13
TORSDOF 2
ENDMDL
MODEL       72
REMARK 921   NORMALIZED FREE ENERGY PREDICTED BY IDOCK:   -5.17 KCAL/MOL
REMARK 922        TOTAL FREE ENERGY PREDICTED BY IDOCK:   -5.85 KCAL/MOL
REMARK 923 INTER-LIGAND FREE ENERGY PREDICTED BY IDOCK:   -5.85 KCAL/MOL
REMARK 924 INTRA-LIGAND FREE ENERGY PREDICTED BY IDOCK:    0.00 KCAL/MOL
REMARK 927      BINDING AFFINITY PREDICTED BY RF-SCORE:    0.00 PKD
ROOT
ATOM      1  N6    A A   1     -11.279  13.532  69.458  1.00  0.00    -0.439 NA 
ATOM      2  C6    A A   1     -11.869  12.598  70.301  1.00  0.00    -0.214 A  
ATOM      3  H62   A A   1     -10.861  14.271  70.022  1.00  0.00     0.000 HD 
ATOM      4  H61   A A   1     -10.594  13.207  68.776  1.00  0.00     0.000 HD 
ATOM      5  N1    A A   1     -12.775  13.029  71.204  1.00  0.00    -0.336 NA 
ATOM      6  C2    A A   1     -13.347  12.119  72.022  1.00  0.00    -0.365 A  
ATOM      7  N3    A A   1     -13.149  10.779  72.062  1.00  0.00    -0.464 NA 
ATOM      8  C4    A A   1     -12.238  10.402  71.149  1.00  0.00    -0.394 A  
ATOM      9  C5    A A   1     -11.579  11.226  70.243  1.00  0.00    -0.275 A  
ATOM     10  N7    A A   1     -10.752  10.495  69.421  1.00  0.00    -0.226 NA 
ATOM     11  C8    A A   1     -10.890   9.255  69.828  1.00  0.00    -0.224 A  
ATOM     12  N9    A A   1     -11.767   9.145  70.886  1.00  0.00    -0.284 NA 
ENDROOT
BRANCH  12  13
ATOM     13  C1*   A A   1     -12.087   7.871  71.488  1.00  0.00    -0.306 C  
ATOM     14  O4*   A A   1     -11.576   7.914  72.840  1.00  0.00    -0.383 OA 
ATOM     15  C4*   A A   1     -10.296   7.228  72.857  1.00  0.00    -0.262 C  
ATOM     16  C3*   A A   1     -10.231   6.335  71.614  1.00  0.00    -0.194 C  
ATOM     17  H2*   A A   1     -11.270   5.540  69.191  1.00  0.00     0.000 HD 
ATOM     18  C2*   A A   1     -11.585   6.535  70.939  1.00  0.00    -0.359 C  
ATOM     19  O3*   A A   1     -10.035   4.964  71.982  1.00  0.00    -0.173 OA 
ATOM     20  H3*   A A   1      -9.995   4.410  71.211  1.00  0.00     0.000 HD 
ATOM     21  O2*   A A   1     -11.582   6.370  69.532  1.00  0.00    -0.404 OA 
BRANCH  15  22
ATOM     22  C5*   A A   1      -9.167   8.267  72.866  1.00  0.00    -0.259 C  
ATOM     23  O5*   A A   1      -8.738   8.517  74.202  1.00  0.00    -0.291 OA 
ATOM     24  H5*   A A   1      -8.039   9.160  74.208  1.00  0.00     0.000 HD 
ENDBRANCH  15  22
ENDBRANCH  12  13
TORSDOF 2
ENDMDL
MODEL       73
REMARK 921   NORMALIZED FREE ENERGY PREDICTED BY IDOCK:   -5.13 KCAL/MOL
REMARK 922        TOTAL FREE ENERGY PREDICTED BY IDOCK:   -5.79 KCAL/MOL
REMARK 923 INTER-LIGAND FREE ENERGY PREDICTED BY IDOCK:   -6.53 KCAL/MOL
REMARK 924 INTRA-LIGAND FREE ENERGY PREDICTED BY IDOCK:    0.74 KCAL/MOL
REMARK 927      BINDING AFFINITY PREDICTED BY RF-SCORE:    0.00 PKD
ROOT
ATOM      1  N6    A A   1     -14.221   9.064  73.046  1.00  0.00    -1.154 NA 
ATOM      2  C6    A A   1     -13.205   8.786  72.139  1.00  0.00    -0.414 A  
ATOM      3  H62   A A   1     -13.961   8.693  73.959  1.00  0.00     0.000 HD 
ATOM      4  H61   A A   1     -14.524  10.032  73.154  1.00  0.00     0.000 HD 
ATOM      5  N1    A A   1     -12.805   7.505  71.995  1.00  0.00    -0.242 NA 
ATOM      6  C2    A A   1     -11.818   7.238  71.113  1.00  0.00    -0.312 A  
ATOM      7  N3    A A   1     -11.153   8.098  70.305  1.00  0.00    -0.248 NA 
ATOM      8  C4    A A   1     -11.586   9.358  70.487  1.00  0.00    -0.235 A  
ATOM      9  C5    A A   1     -12.593   9.773  71.352  1.00  0.00    -0.386 A  
ATOM     10  N7    A A   1     -12.809  11.128  71.244  1.00  0.00    -0.415 NA 
ATOM     11  C8    A A   1     -11.941  11.532  70.346  1.00  0.00    -0.368 A  
ATOM     12  N9    A A   1     -11.162  10.501  69.867  1.00  0.00    -0.286 NA 
ENDROOT
BRANCH  12  13
ATOM     13  C1*   A A   1     -10.150  10.708  68.857  1.00  0.00    -0.202 C  
ATOM     14  O4*   A A   1      -9.965  12.139  68.746  1.00  0.00    -0.165 OA 
ATOM     15  C4*   A A   1     -10.732  12.602  67.604  1.00  0.00    -0.218 C  
ATOM     16  C3*   A A   1     -11.012  11.390  66.709  1.00  0.00    -0.291 C  
ATOM     17  H2*   A A   1     -10.973   8.668  66.300  1.00  0.00     0.000 HD 
ATOM     18  C2*   A A   1     -10.301  10.237  67.411  1.00  0.00    -0.233 C  
ATOM     19  O3*   A A   1     -10.486  11.597  65.393  1.00  0.00    -0.256 OA 
ATOM     20  H3*   A A   1     -10.660  10.846  64.838  1.00  0.00     0.000 HD 
ATOM     21  O2*   A A   1     -10.880   8.961  67.199  1.00  0.00    -0.209 OA 
BRANCH  15  22
ATOM     22  C5*   A A   1     -12.031  13.252  68.099  1.00  0.00    -0.304 C  
ATOM     23  O5*   A A   1     -12.433  14.290  67.209  1.00  0.00    -0.589 OA 
ATOM     24  H5*   A A   1     -13.237  14.693  67.515  1.00  0.00     0.000 HD 
ENDBRANCH  15  22
ENDBRANCH  12  13
TORSDOF 2
ENDMDL
MODEL       74
REMARK 921   NORMALIZED FREE ENERGY PREDICTED BY IDOCK:   -5.08 KCAL/MOL
REMARK 922        TOTAL FREE ENERGY PREDICTED BY IDOCK:   -5.74 KCAL/MOL
REMARK 923 INTER-LIGAND FREE ENERGY PREDICTED BY IDOCK:   -6.42 KCAL/MOL
REMARK 924 INTRA-LIGAND FREE ENERGY PREDICTED BY IDOCK:    0.68 KCAL/MOL
REMARK 927      BINDING AFFINITY PREDICTED BY RF-SCORE:    0.00 PKD
ROOT
ATOM      1  N6    A A   1     -12.636  14.703  63.680  1.00  0.00    -0.980 NA 
ATOM      2  C6    A A   1     -11.897  15.331  64.675  1.00  0.00    -0.267 A  
ATOM      3  H62   A A   1     -12.058  14.613  62.844  1.00  0.00     0.000 HD 
ATOM      4  H61   A A   1     -13.061  13.799  63.888  1.00  0.00     0.000 HD 
ATOM      5  N1    A A   1     -11.335  16.526  64.401  1.00  0.00    -0.976 NA 
ATOM      6  C2    A A   1     -10.617  17.135  65.370  1.00  0.00    -0.104 A  
ATOM      7  N3    A A   1     -10.382  16.713  66.635  1.00  0.00    -0.301 NA 
ATOM      8  C4    A A   1     -10.959  15.520  66.858  1.00  0.00    -0.268 A  
ATOM      9  C5    A A   1     -11.727  14.788  65.959  1.00  0.00    -0.248 A  
ATOM     10  N7    A A   1     -12.203  13.634  66.539  1.00  0.00    -0.419 NA 
ATOM     11  C8    A A   1     -11.722  13.655  67.760  1.00  0.00    -0.362 A  
ATOM     12  N9    A A   1     -10.946  14.768  68.000  1.00  0.00    -0.263 NA 
ENDROOT
BRANCH  12  13
ATOM     13  C1*   A A   1     -10.327  15.010  69.283  1.00  0.00    -0.246 C  
ATOM     14  O4*   A A   1     -10.824  13.989  70.180  1.00  0.00     0.143 OA 
ATOM     15  C4*   A A   1     -11.904  14.567  70.961  1.00  0.00    -0.290 C  
ATOM     16  C3*   A A   1     -11.762  16.091  70.893  1.00  0.00    -0.402 C  
ATOM     17  H2*   A A   1     -10.582  18.332  69.813  1.00  0.00     0.000 HD 
ATOM     18  C2*   A A   1     -10.500  16.312  70.065  1.00  0.00    -0.164 C  
ATOM     19  O3*   A A   1     -11.624  16.648  72.206  1.00  0.00    -0.464 OA 
ATOM     20  H3*   A A   1     -11.537  17.593  72.164  1.00  0.00     0.000 HD 
ATOM     21  O2*   A A   1     -10.474  17.522  69.328  1.00  0.00    -0.321 OA 
BRANCH  15  22
ATOM     22  C5*   A A   1     -13.248  14.097  70.389  1.00  0.00     0.155 C  
ATOM     23  O5*   A A   1     -14.274  15.032  70.708  1.00  0.00    -0.641 OA 
ATOM     24  H5*   A A   1     -15.106  14.741  70.354  1.00  0.00     0.000 HD 
ENDBRANCH  15  22
ENDBRANCH  12  13
TORSDOF 2
ENDMDL
MODEL       75
REMARK 921   NORMALIZED FREE ENERGY PREDICTED BY IDOCK:   -5.06 KCAL/MOL
REMARK 922        TOTAL FREE ENERGY PREDICTED BY IDOCK:   -5.72 KCAL/MOL
REMARK 923 INTER-LIGAND FREE ENERGY PREDICTED BY IDOCK:   -6.48 KCAL/MOL
REMARK 924 INTRA-LIGAND FREE ENERGY PREDICTED BY IDOCK:    0.77 KCAL/MOL
REMARK 927      BINDING AFFINITY PREDICTED BY RF-SCORE:    0.00 PKD
ROOT
ATOM      1  N6    A A   1     -11.561  16.262  63.654  1.00  0.00    -1.280 NA 
ATOM      2  C6    A A   1     -11.708  15.109  64.416  1.00  0.00    -0.295 A  
ATOM      3  H62   A A   1     -12.464  16.730  63.582  1.00  0.00     0.000 HD 
ATOM      4  H61   A A   1     -10.855  16.943  63.935  1.00  0.00     0.000 HD 
ATOM      5  N1    A A   1     -12.641  14.208  64.044  1.00  0.00    -0.728 NA 
ATOM      6  C2    A A   1     -12.782  13.089  64.787  1.00  0.00    -0.342 A  
ATOM      7  N3    A A   1     -12.086  12.713  65.886  1.00  0.00    -0.563 NA 
ATOM      8  C4    A A   1     -11.173  13.642  66.216  1.00  0.00    -0.305 A  
ATOM      9  C5    A A   1     -10.917  14.831  65.541  1.00  0.00    -0.346 A  
ATOM     10  N7    A A   1      -9.879  15.519  66.128  1.00  0.00    -0.291 NA 
ATOM     11  C8    A A   1      -9.522  14.774  67.148  1.00  0.00    -0.227 A  
ATOM     12  N9    A A   1     -10.287  13.633  67.258  1.00  0.00    -0.248 NA 
ENDROOT
BRANCH  12  13
ATOM     13  C1*   A A   1     -10.061  12.655  68.297  1.00  0.00    -0.233 C  
ATOM     14  O4*   A A   1      -8.627  12.543  68.454  1.00  0.00    -0.172 OA 
ATOM     15  C4*   A A   1      -8.185  11.375  67.713  1.00  0.00    -0.125 C  
ATOM     16  C3*   A A   1      -9.406  10.477  67.489  1.00  0.00    -0.149 C  
ATOM     17  H2*   A A   1     -12.128  10.082  67.600  1.00  0.00     0.000 HD 
ATOM     18  C2*   A A   1     -10.541  11.206  68.202  1.00  0.00    -0.193 C  
ATOM     19  O3*   A A   1      -9.192   9.177  68.051  1.00  0.00    -0.134 OA 
ATOM     20  H3*   A A   1      -9.949   8.621  67.912  1.00  0.00     0.000 HD 
ATOM     21  O2*   A A   1     -11.830  10.982  67.658  1.00  0.00    -0.599 OA 
BRANCH  15  22
ATOM     22  C5*   A A   1      -7.562  11.825  66.386  1.00  0.00     0.158 C  
ATOM     23  O5*   A A   1      -6.421  12.644  66.629  1.00  0.00    -0.411 OA 
ATOM     24  H5*   A A   1      -6.035  12.923  65.807  1.00  0.00     0.000 HD 
ENDBRANCH  15  22
ENDBRANCH  12  13
TORSDOF 2
ENDMDL
MODEL       76
REMARK 921   NORMALIZED FREE ENERGY PREDICTED BY IDOCK:   -5.05 KCAL/MOL
REMARK 922        TOTAL FREE ENERGY PREDICTED BY IDOCK:   -5.71 KCAL/MOL
REMARK 923 INTER-LIGAND FREE ENERGY PREDICTED BY IDOCK:   -6.41 KCAL/MOL
REMARK 924 INTRA-LIGAND FREE ENERGY PREDICTED BY IDOCK:    0.71 KCAL/MOL
REMARK 927      BINDING AFFINITY PREDICTED BY RF-SCORE:    0.00 PKD
ROOT
ATOM      1  N6    A A   1      -7.170  19.228  69.030  1.00  0.00    -0.352 NA 
ATOM      2  C6    A A   1      -8.258  19.009  68.194  1.00  0.00    -0.314 A  
ATOM      3  H62   A A   1      -7.378  20.014  69.646  1.00  0.00     0.000 HD 
ATOM      4  H61   A A   1      -6.823  18.449  69.590  1.00  0.00     0.000 HD 
ATOM      5  N1    A A   1      -8.716  20.039  67.452  1.00  0.00    -0.335 NA 
ATOM      6  C2    A A   1      -9.773  19.824  66.640  1.00  0.00    -0.407 A  
ATOM      7  N3    A A   1     -10.461  18.674  66.438  1.00  0.00    -0.422 NA 
ATOM      8  C4    A A   1      -9.969  17.681  67.199  1.00  0.00    -0.316 A  
ATOM      9  C5    A A   1      -8.887  17.761  68.070  1.00  0.00    -0.259 A  
ATOM     10  N7    A A   1      -8.627  16.539  68.649  1.00  0.00    -0.233 NA 
ATOM     11  C8    A A   1      -9.541  15.737  68.154  1.00  0.00    -0.199 A  
ATOM     12  N9    A A   1     -10.392  16.384  67.283  1.00  0.00    -0.284 NA 
ENDROOT
BRANCH  12  13
ATOM     13  C1*   A A   1     -11.465  15.695  66.605  1.00  0.00     0.144 C  
ATOM     14  O4*   A A   1     -11.421  14.320  67.054  1.00  0.00    -0.328 OA 
ATOM     15  C4*   A A   1     -10.725  13.541  66.046  1.00  0.00    -0.279 C  
ATOM     16  C3*   A A   1     -10.755  14.339  64.739  1.00  0.00    -0.416 C  
ATOM     17  H2*   A A   1     -11.292  16.674  63.381  1.00  0.00     0.000 HD 
ATOM     18  C2*   A A   1     -11.562  15.588  65.083  1.00  0.00    -0.060 C  
ATOM     19  O3*   A A   1     -11.387  13.586  63.697  1.00  0.00    -0.588 OA 
ATOM     20  H3*   A A   1     -11.406  14.081  62.886  1.00  0.00     0.000 HD 
ATOM     21  O2*   A A   1     -11.231  16.740  64.327  1.00  0.00    -1.163 OA 
BRANCH  15  22
ATOM     22  C5*   A A   1      -9.288  13.278  66.515  1.00  0.00    -0.213 C  
ATOM     23  O5*   A A   1      -8.853  11.993  66.079  1.00  0.00    -0.387 OA 
ATOM     24  H5*   A A   1      -7.964  11.830  66.370  1.00  0.00     0.000 HD 
ENDBRANCH  15  22
ENDBRANCH  12  13
TORSDOF 2
ENDMDL
MODEL       77
REMARK 921   NORMALIZED FREE ENERGY PREDICTED BY IDOCK:   -5.03 KCAL/MOL
REMARK 922        TOTAL FREE ENERGY PREDICTED BY IDOCK:   -5.69 KCAL/MOL
REMARK 923 INTER-LIGAND FREE ENERGY PREDICTED BY IDOCK:   -6.21 KCAL/MOL
REMARK 924 INTRA-LIGAND FREE ENERGY PREDICTED BY IDOCK:    0.53 KCAL/MOL
REMARK 927      BINDING AFFINITY PREDICTED BY RF-SCORE:    0.00 PKD
ROOT
ATOM      1  N6    A A   1     -10.198  18.587  65.684  1.00  0.00    -0.522 NA 
ATOM      2  C6    A A   1     -10.722  17.306  65.563  1.00  0.00    -0.100 A  
ATOM      3  H62   A A   1     -10.898  19.262  65.378  1.00  0.00     0.000 HD 
ATOM      4  H61   A A   1      -9.830  18.877  66.590  1.00  0.00     0.000 HD 
ATOM      5  N1    A A   1     -11.209  16.921  64.364  1.00  0.00    -1.120 NA 
ATOM      6  C2    A A   1     -11.718  15.675  64.250  1.00  0.00    -0.169 A  
ATOM      7  N3    A A   1     -11.801  14.708  65.195  1.00  0.00    -0.365 NA 
ATOM      8  C4    A A   1     -11.307  15.140  66.368  1.00  0.00    -0.225 A  
ATOM      9  C5    A A   1     -10.749  16.388  66.625  1.00  0.00    -0.173 A  
ATOM     10  N7    A A   1     -10.299  16.470  67.923  1.00  0.00    -0.284 NA 
ATOM     11  C8    A A   1     -10.591  15.304  68.450  1.00  0.00    -0.246 A  
ATOM     12  N9    A A   1     -11.220  14.466  67.554  1.00  0.00    -0.302 NA 
ENDROOT
BRANCH  12  13
ATOM     13  C1*   A A   1     -11.619  13.124  67.909  1.00  0.00    -0.336 C  
ATOM     14  O4*   A A   1     -10.696  12.675  68.929  1.00  0.00    -0.230 OA 
ATOM     15  C4*   A A   1      -9.686  11.853  68.288  1.00  0.00    -0.200 C  
ATOM     16  C3*   A A   1     -10.250  11.389  66.941  1.00  0.00    -0.219 C  
ATOM     17  H2*   A A   1     -12.187  11.532  64.990  1.00  0.00     0.000 HD 
ATOM     18  C2*   A A   1     -11.661  11.969  66.908  1.00  0.00    -0.318 C  
ATOM     19  O3*   A A   1     -10.277   9.958  66.866  1.00  0.00    -0.218 OA 
ATOM     20  H3*   A A   1     -10.627   9.671  66.031  1.00  0.00     0.000 HD 
ATOM     21  O2*   A A   1     -12.161  12.250  65.612  1.00  0.00    -0.605 OA 
BRANCH  15  22
ATOM     22  C5*   A A   1      -8.403  12.675  68.111  1.00  0.00    -0.175 C  
ATOM     23  O5*   A A   1      -8.363  13.254  66.809  1.00  0.00    -0.408 OA 
ATOM     24  H5*   A A   1      -7.569  13.764  66.699  1.00  0.00     0.000 HD 
ENDBRANCH  15  22
ENDBRANCH  12  13
TORSDOF 2
ENDMDL
MODEL       78
REMARK 921   NORMALIZED FREE ENERGY PREDICTED BY IDOCK:   -5.02 KCAL/MOL
REMARK 922        TOTAL FREE ENERGY PREDICTED BY IDOCK:   -5.68 KCAL/MOL
REMARK 923 INTER-LIGAND FREE ENERGY PREDICTED BY IDOCK:   -5.73 KCAL/MOL
REMARK 924 INTRA-LIGAND FREE ENERGY PREDICTED BY IDOCK:    0.05 KCAL/MOL
REMARK 927      BINDING AFFINITY PREDICTED BY RF-SCORE:    0.00 PKD
ROOT
ATOM      1  N6    A A   1     -12.021  12.487  68.634  1.00  0.00    -0.284 NA 
ATOM      2  C6    A A   1     -11.608  13.812  68.690  1.00  0.00    -0.334 A  
ATOM      3  H62   A A   1     -12.945  12.409  69.057  1.00  0.00     0.000 HD 
ATOM      4  H61   A A   1     -12.030  12.018  67.728  1.00  0.00     0.000 HD 
ATOM      5  N1    A A   1     -11.596  14.432  69.889  1.00  0.00    -0.274 NA 
ATOM      6  C2    A A   1     -11.194  15.720  69.940  1.00  0.00    -0.334 A  
ATOM      7  N3    A A   1     -10.768  16.512  68.927  1.00  0.00    -0.316 NA 
ATOM      8  C4    A A   1     -10.801  15.851  67.756  1.00  0.00    -0.324 A  
ATOM      9  C5    A A   1     -11.184  14.528  67.560  1.00  0.00    -0.321 A  
ATOM     10  N7    A A   1     -11.046  14.165  66.239  1.00  0.00    -0.314 NA 
ATOM     11  C8    A A   1     -10.605  15.247  65.642  1.00  0.00    -0.362 A  
ATOM     12  N9    A A   1     -10.456  16.305  66.513  1.00  0.00    -0.303 NA 
ENDROOT
BRANCH  12  13
ATOM     13  C1*   A A   1      -9.966  17.593  66.080  1.00  0.00    -0.272 C  
ATOM     14  O4*   A A   1      -8.551  17.431  65.823  1.00  0.00    -0.526 OA 
ATOM     15  C4*   A A   1      -7.826  17.913  66.985  1.00  0.00    -0.214 C  
ATOM     16  C3*   A A   1      -8.770  18.824  67.776  1.00  0.00    -0.287 C  
ATOM     17  H2*   A A   1     -11.289  19.843  68.217  1.00  0.00     0.000 HD 
ATOM     18  C2*   A A   1     -10.047  18.853  66.942  1.00  0.00    -0.364 C  
ATOM     19  O3*   A A   1      -8.212  20.137  67.914  1.00  0.00    -0.288 OA 
ATOM     20  H3*   A A   1      -8.797  20.702  68.405  1.00  0.00     0.000 HD 
ATOM     21  O2*   A A   1     -11.239  19.060  67.681  1.00  0.00    -0.237 OA 
BRANCH  15  22
ATOM     22  C5*   A A   1      -7.362  16.714  67.822  1.00  0.00    -0.148 C  
ATOM     23  O5*   A A   1      -7.635  16.941  69.202  1.00  0.00    -0.233 OA 
ATOM     24  H5*   A A   1      -7.348  16.199  69.722  1.00  0.00     0.000 HD 
ENDBRANCH  15  22
ENDBRANCH  12  13
TORSDOF 2
ENDMDL
MODEL       79
REMARK 921   NORMALIZED FREE ENERGY PREDICTED BY IDOCK:   -5.02 KCAL/MOL
REMARK 922        TOTAL FREE ENERGY PREDICTED BY IDOCK:   -5.67 KCAL/MOL
REMARK 923 INTER-LIGAND FREE ENERGY PREDICTED BY IDOCK:   -5.54 KCAL/MOL
REMARK 924 INTRA-LIGAND FREE ENERGY PREDICTED BY IDOCK:   -0.13 KCAL/MOL
REMARK 927      BINDING AFFINITY PREDICTED BY RF-SCORE:    0.00 PKD
ROOT
ATOM      1  N6    A A   1     -10.671   8.552  68.140  1.00  0.00    -0.439 NA 
ATOM      2  C6    A A   1     -10.720   9.747  67.431  1.00  0.00    -0.249 A  
ATOM      3  H62   A A   1      -9.732   8.163  68.070  1.00  0.00     0.000 HD 
ATOM      4  H61   A A   1     -10.958   8.557  69.119  1.00  0.00     0.000 HD 
ATOM      5  N1    A A   1     -10.342   9.741  66.135  1.00  0.00    -0.196 NA 
ATOM      6  C2    A A   1     -10.390  10.903  65.449  1.00  0.00    -0.261 A  
ATOM      7  N3    A A   1     -10.794  12.122  65.881  1.00  0.00    -0.268 NA 
ATOM      8  C4    A A   1     -11.157  12.076  67.174  1.00  0.00    -0.290 A  
ATOM      9  C5    A A   1     -11.164  10.953  67.996  1.00  0.00    -0.314 A  
ATOM     10  N7    A A   1     -11.644  11.260  69.248  1.00  0.00    -0.290 NA 
ATOM     11  C8    A A   1     -11.908  12.544  69.197  1.00  0.00    -0.296 A  
ATOM     12  N9    A A   1     -11.614  13.092  67.967  1.00  0.00    -0.312 NA 
ENDROOT
BRANCH  12  13
ATOM     13  C1*   A A   1     -11.840  14.489  67.675  1.00  0.00    -0.364 C  
ATOM     14  O4*   A A   1     -10.764  14.907  66.802  1.00  0.00    -0.299 OA 
ATOM     15  C4*   A A   1      -9.764  15.577  67.614  1.00  0.00    -0.212 C  
ATOM     16  C3*   A A   1     -10.438  16.006  68.921  1.00  0.00    -0.245 C  
ATOM     17  H2*   A A   1     -12.598  15.933  70.627  1.00  0.00     0.000 HD 
ATOM     18  C2*   A A   1     -11.891  15.573  68.752  1.00  0.00    -0.317 C  
ATOM     19  O3*   A A   1     -10.340  17.424  69.104  1.00  0.00    -0.342 OA 
ATOM     20  H3*   A A   1     -10.757  17.690  69.914  1.00  0.00     0.000 HD 
ATOM     21  O2*   A A   1     -12.566  15.260  69.958  1.00  0.00    -0.318 OA 
BRANCH  15  22
ATOM     22  C5*   A A   1      -8.595  14.618  67.868  1.00  0.00    -0.165 C  
ATOM     23  O5*   A A   1      -8.733  13.998  69.144  1.00  0.00    -0.369 OA 
ATOM     24  H5*   A A   1      -8.009  13.404  69.302  1.00  0.00     0.000 HD 
ENDBRANCH  15  22
ENDBRANCH  12  13
TORSDOF 2
ENDMDL
MODEL       80
REMARK 921   NORMALIZED FREE ENERGY PREDICTED BY IDOCK:   -5.00 KCAL/MOL
REMARK 922        TOTAL FREE ENERGY PREDICTED BY IDOCK:   -5.65 KCAL/MOL
REMARK 923 INTER-LIGAND FREE ENERGY PREDICTED BY IDOCK:   -5.55 KCAL/MOL
REMARK 924 INTRA-LIGAND FREE ENERGY PREDICTED BY IDOCK:   -0.10 KCAL/MOL
REMARK 927      BINDING AFFINITY PREDICTED BY RF-SCORE:    0.00 PKD
ROOT
ATOM      1  N6    A A   1     -12.438  10.660  69.941  1.00  0.00    -0.500 NA 
ATOM      2  C6    A A   1     -11.930  11.389  68.872  1.00  0.00    -0.304 A  
ATOM      3  H62   A A   1     -11.820   9.870  70.126  1.00  0.00     0.000 HD 
ATOM      4  H61   A A   1     -12.625  11.148  70.817  1.00  0.00     0.000 HD 
ATOM      5  N1    A A   1     -11.683  10.744  67.713  1.00  0.00    -0.507 NA 
ATOM      6  C2    A A   1     -11.191  11.456  66.676  1.00  0.00    -0.231 A  
ATOM      7  N3    A A   1     -10.911  12.780  66.619  1.00  0.00    -0.264 NA 
ATOM      8  C4    A A   1     -11.171  13.376  67.796  1.00  0.00    -0.279 A  
ATOM      9  C5    A A   1     -11.684  12.770  68.938  1.00  0.00    -0.326 A  
ATOM     10  N7    A A   1     -11.872  13.690  69.944  1.00  0.00    -0.315 NA 
ATOM     11  C8    A A   1     -11.468  14.829  69.431  1.00  0.00    -0.301 A  
ATOM     12  N9    A A   1     -11.016  14.691  68.137  1.00  0.00    -0.254 NA 
ENDROOT
BRANCH  12  13
ATOM     13  C1*   A A   1     -10.538  15.816  67.366  1.00  0.00    -0.313 C  
ATOM     14  O4*   A A   1      -9.504  15.307  66.491  1.00  0.00    -0.245 OA 
ATOM     15  C4*   A A   1      -8.218  15.597  67.099  1.00  0.00    -0.213 C  
ATOM     16  C3*   A A   1      -8.431  16.717  68.123  1.00  0.00    -0.198 C  
ATOM     17  H2*   A A   1     -10.123  18.331  69.576  1.00  0.00     0.000 HD 
ATOM     18  C2*   A A   1      -9.912  17.059  67.999  1.00  0.00    -0.283 C  
ATOM     19  O3*   A A   1      -7.610  17.850  67.815  1.00  0.00    -0.208 OA 
ATOM     20  H3*   A A   1      -7.742  18.544  68.450  1.00  0.00     0.000 HD 
ATOM     21  O2*   A A   1     -10.511  17.558  69.183  1.00  0.00    -0.347 OA 
BRANCH  15  22
ATOM     22  C5*   A A   1      -7.673  14.323  67.758  1.00  0.00    -0.163 C  
ATOM     23  O5*   A A   1      -8.009  14.301  69.143  1.00  0.00    -0.299 OA 
ATOM     24  H5*   A A   1      -7.672  13.512  69.551  1.00  0.00     0.000 HD 
ENDBRANCH  15  22
ENDBRANCH  12  13
TORSDOF 2
ENDMDL
MODEL       81
REMARK 921   NORMALIZED FREE ENERGY PREDICTED BY IDOCK:   -4.97 KCAL/MOL
REMARK 922        TOTAL FREE ENERGY PREDICTED BY IDOCK:   -5.62 KCAL/MOL
REMARK 923 INTER-LIGAND FREE ENERGY PREDICTED BY IDOCK:   -5.73 KCAL/MOL
REMARK 924 INTRA-LIGAND FREE ENERGY PREDICTED BY IDOCK:    0.11 KCAL/MOL
REMARK 927      BINDING AFFINITY PREDICTED BY RF-SCORE:    0.00 PKD
ROOT
ATOM      1  N6    A A   1     -10.288  10.555  62.517  1.00  0.00    -0.653 NA 
ATOM      2  C6    A A   1     -10.769  11.370  63.536  1.00  0.00    -0.381 A  
ATOM      3  H62   A A   1     -10.306  11.075  61.640  1.00  0.00     0.000 HD 
ATOM      4  H61   A A   1      -9.370  10.126  62.631  1.00  0.00     0.000 HD 
ATOM      5  N1    A A   1     -11.984  11.936  63.387  1.00  0.00    -0.476 NA 
ATOM      6  C2    A A   1     -12.449  12.727  64.378  1.00  0.00    -0.399 A  
ATOM      7  N3    A A   1     -11.858  13.036  65.557  1.00  0.00    -0.371 NA 
ATOM      8  C4    A A   1     -10.652  12.451  65.656  1.00  0.00    -0.265 A  
ATOM      9  C5    A A   1     -10.056  11.612  64.721  1.00  0.00    -0.260 A  
ATOM     10  N7    A A   1      -8.840  11.152  65.172  1.00  0.00    -0.109 NA 
ATOM     11  C8    A A   1      -8.690  11.712  66.350  1.00  0.00    -0.170 A  
ATOM     12  N9    A A   1      -9.752  12.524  66.684  1.00  0.00    -0.236 NA 
ENDROOT
BRANCH  12  13
ATOM     13  C1*   A A   1      -9.812  13.230  67.943  1.00  0.00    -0.234 C  
ATOM     14  O4*   A A   1     -10.124  12.244  68.955  1.00  0.00    -0.123 OA 
ATOM     15  C4*   A A   1     -11.549  12.313  69.223  1.00  0.00    -0.324 C  
ATOM     16  C3*   A A   1     -12.050  13.674  68.729  1.00  0.00    -0.297 C  
ATOM     17  H2*   A A   1     -11.619  16.016  67.348  1.00  0.00     0.000 HD 
ATOM     18  C2*   A A   1     -10.793  14.371  68.218  1.00  0.00    -0.242 C  
ATOM     19  O3*   A A   1     -12.653  14.414  69.799  1.00  0.00    -0.506 OA 
ATOM     20  H3*   A A   1     -12.963  15.257  69.492  1.00  0.00     0.000 HD 
ATOM     21  O2*   A A   1     -11.010  15.307  67.177  1.00  0.00    -0.324 OA 
BRANCH  15  22
ATOM     22  C5*   A A   1     -12.255  11.156  68.505  1.00  0.00     0.134 C  
ATOM     23  O5*   A A   1     -11.317  10.135  68.173  1.00  0.00    -0.489 OA 
ATOM     24  H5*   A A   1     -11.754   9.418  67.728  1.00  0.00     0.000 HD 
ENDBRANCH  15  22
ENDBRANCH  12  13
TORSDOF 2
ENDMDL
MODEL       82
REMARK 921   NORMALIZED FREE ENERGY PREDICTED BY IDOCK:   -4.93 KCAL/MOL
REMARK 922        TOTAL FREE ENERGY PREDICTED BY IDOCK:   -5.57 KCAL/MOL
REMARK 923 INTER-LIGAND FREE ENERGY PREDICTED BY IDOCK:   -6.29 KCAL/MOL
REMARK 924 INTRA-LIGAND FREE ENERGY PREDICTED BY IDOCK:    0.72 KCAL/MOL
REMARK 927      BINDING AFFINITY PREDICTED BY RF-SCORE:    0.00 PKD
ROOT
ATOM      1  N6    A A   1     -12.476  13.102  62.846  1.00  0.00    -0.681 NA 
ATOM      2  C6    A A   1     -12.183  13.133  64.204  1.00  0.00    -0.398 A  
ATOM      3  H62   A A   1     -12.317  14.028  62.451  1.00  0.00     0.000 HD 
ATOM      4  H61   A A   1     -12.008  12.407  62.264  1.00  0.00     0.000 HD 
ATOM      5  N1    A A   1     -12.803  14.051  64.975  1.00  0.00    -0.732 NA 
ATOM      6  C2    A A   1     -12.515  14.078  66.294  1.00  0.00    -0.400 A  
ATOM      7  N3    A A   1     -11.674  13.277  66.991  1.00  0.00    -0.368 NA 
ATOM      8  C4    A A   1     -11.082  12.384  66.181  1.00  0.00    -0.302 A  
ATOM      9  C5    A A   1     -11.287  12.239  64.812  1.00  0.00    -0.323 A  
ATOM     10  N7    A A   1     -10.552  11.190  64.310  1.00  0.00    -0.357 NA 
ATOM     11  C8    A A   1      -9.900  10.716  65.346  1.00  0.00    -0.267 A  
ATOM     12  N9    A A   1     -10.171  11.415  66.502  1.00  0.00    -0.214 NA 
ENDROOT
BRANCH  12  13
ATOM     13  C1*   A A   1      -9.579  11.060  67.771  1.00  0.00    -0.170 C  
ATOM     14  O4*   A A   1      -8.878   9.811  67.564  1.00  0.00    -0.125 OA 
ATOM     15  C4*   A A   1      -9.732   8.735  68.035  1.00  0.00    -0.157 C  
ATOM     16  C3*   A A   1     -10.771   9.346  68.981  1.00  0.00    -0.187 C  
ATOM     17  H2*   A A   1     -11.987  11.558  70.080  1.00  0.00     0.000 HD 
ATOM     18  C2*   A A   1     -10.397  10.824  69.041  1.00  0.00    -0.215 C  
ATOM     19  O3*   A A   1     -10.696   8.741  70.278  1.00  0.00    -0.217 OA 
ATOM     20  H3*   A A   1     -11.339   9.119  70.865  1.00  0.00     0.000 HD 
ATOM     21  O2*   A A   1     -11.479  11.704  69.291  1.00  0.00    -0.251 OA 
BRANCH  15  22
ATOM     22  C5*   A A   1     -10.396   8.055  66.830  1.00  0.00    -0.338 C  
ATOM     23  O5*   A A   1     -11.210   6.969  67.264  1.00  0.00    -0.590 OA 
ATOM     24  H5*   A A   1     -11.621   6.547  66.518  1.00  0.00     0.000 HD 
ENDBRANCH  15  22
ENDBRANCH  12  13
TORSDOF 2
ENDMDL
MODEL       83
REMARK 921   NORMALIZED FREE ENERGY PREDICTED BY IDOCK:   -4.91 KCAL/MOL
REMARK 922        TOTAL FREE ENERGY PREDICTED BY IDOCK:   -5.55 KCAL/MOL
REMARK 923 INTER-LIGAND FREE ENERGY PREDICTED BY IDOCK:   -5.56 KCAL/MOL
REMARK 924 INTRA-LIGAND FREE ENERGY PREDICTED BY IDOCK:    0.01 KCAL/MOL
REMARK 927      BINDING AFFINITY PREDICTED BY RF-SCORE:    0.00 PKD
ROOT
ATOM      1  N6    A A   1     -12.339  11.703  62.917  1.00  0.00    -0.861 NA 
ATOM      2  C6    A A   1     -12.133  12.324  64.143  1.00  0.00    -0.436 A  
ATOM      3  H62   A A   1     -12.374  12.414  62.187  1.00  0.00     0.000 HD 
ATOM      4  H61   A A   1     -11.694  10.966  62.632  1.00  0.00     0.000 HD 
ATOM      5  N1    A A   1     -12.986  13.299  64.521  1.00  0.00    -0.614 NA 
ATOM      6  C2    A A   1     -12.784  13.901  65.713  1.00  0.00    -0.461 A  
ATOM      7  N3    A A   1     -11.821  13.648  66.632  1.00  0.00    -0.385 NA 
ATOM      8  C4    A A   1     -10.998  12.673  66.209  1.00  0.00    -0.283 A  
ATOM      9  C5    A A   1     -11.092  11.967  65.014  1.00  0.00    -0.316 A  
ATOM     10  N7    A A   1     -10.112  11.005  64.930  1.00  0.00    -0.278 NA 
ATOM     11  C8    A A   1      -9.426  11.133  66.042  1.00  0.00    -0.208 A  
ATOM     12  N9    A A   1      -9.910  12.143  66.845  1.00  0.00    -0.200 NA 
ENDROOT
BRANCH  12  13
ATOM     13  C1*   A A   1      -9.322  12.453  68.128  1.00  0.00    -0.209 C  
ATOM     14  O4*   A A   1      -9.587  13.854  68.375  1.00  0.00    -0.214 OA 
ATOM     15  C4*   A A   1      -8.397  14.605  68.016  1.00  0.00    -0.146 C  
ATOM     16  C3*   A A   1      -7.218  13.627  67.999  1.00  0.00    -0.130 C  
ATOM     17  H2*   A A   1      -6.254  11.050  68.093  1.00  0.00     0.000 HD 
ATOM     18  C2*   A A   1      -7.830  12.296  68.425  1.00  0.00    -0.151 C  
ATOM     19  O3*   A A   1      -6.198  14.044  68.915  1.00  0.00    -0.081 OA 
ATOM     20  H3*   A A   1      -5.467  13.439  68.905  1.00  0.00     0.000 HD 
ATOM     21  O2*   A A   1      -7.181  11.148  67.908  1.00  0.00    -0.085 OA 
BRANCH  15  22
ATOM     22  C5*   A A   1      -8.609  15.260  66.645  1.00  0.00    -0.270 C  
ATOM     23  O5*   A A   1      -9.871  15.922  66.604  1.00  0.00    -0.236 OA 
ATOM     24  H5*   A A   1     -10.002  16.328  65.755  1.00  0.00     0.000 HD 
ENDBRANCH  15  22
ENDBRANCH  12  13
TORSDOF 2
ENDMDL
MODEL       84
REMARK 921   NORMALIZED FREE ENERGY PREDICTED BY IDOCK:   -4.90 KCAL/MOL
REMARK 922        TOTAL FREE ENERGY PREDICTED BY IDOCK:   -5.54 KCAL/MOL
REMARK 923 INTER-LIGAND FREE ENERGY PREDICTED BY IDOCK:   -5.52 KCAL/MOL
REMARK 924 INTRA-LIGAND FREE ENERGY PREDICTED BY IDOCK:   -0.02 KCAL/MOL
REMARK 927      BINDING AFFINITY PREDICTED BY RF-SCORE:    0.00 PKD
ROOT
ATOM      1  N6    A A   1     -11.883  12.350  63.119  1.00  0.00    -0.722 NA 
ATOM      2  C6    A A   1     -10.915  11.725  63.895  1.00  0.00    -0.407 A  
ATOM      3  H62   A A   1     -12.218  11.694  62.415  1.00  0.00     0.000 HD 
ATOM      4  H61   A A   1     -12.684  12.772  63.588  1.00  0.00     0.000 HD 
ATOM      5  N1    A A   1      -9.854  11.167  63.275  1.00  0.00    -0.347 NA 
ATOM      6  C2    A A   1      -8.915  10.560  64.032  1.00  0.00    -0.217 A  
ATOM      7  N3    A A   1      -8.869  10.437  65.380  1.00  0.00    -0.171 NA 
ATOM      8  C4    A A   1      -9.945  11.005  65.950  1.00  0.00    -0.240 A  
ATOM      9  C5    A A   1     -10.980  11.666  65.296  1.00  0.00    -0.268 A  
ATOM     10  N7    A A   1     -11.892  12.168  66.196  1.00  0.00    -0.582 NA 
ATOM     11  C8    A A   1     -11.433  11.807  67.371  1.00  0.00    -0.305 A  
ATOM     12  N9    A A   1     -10.263  11.084  67.278  1.00  0.00    -0.192 NA 
ENDROOT
BRANCH  12  13
ATOM     13  C1*   A A   1      -9.567  10.596  68.446  1.00  0.00    -0.168 C  
ATOM     14  O4*   A A   1      -8.932   9.355  68.059  1.00  0.00    -0.128 OA 
ATOM     15  C4*   A A   1      -9.774   8.261  68.510  1.00  0.00    -0.156 C  
ATOM     16  C3*   A A   1     -10.698   8.806  69.604  1.00  0.00    -0.208 C  
ATOM     17  H2*   A A   1     -11.731  10.934  71.012  1.00  0.00     0.000 HD 
ATOM     18  C2*   A A   1     -10.270  10.262  69.762  1.00  0.00    -0.220 C  
ATOM     19  O3*   A A   1     -10.522   8.079  70.826  1.00  0.00    -0.203 OA 
ATOM     20  H3*   A A   1     -11.095   8.417  71.504  1.00  0.00     0.000 HD 
ATOM     21  O2*   A A   1     -11.294  11.141  70.194  1.00  0.00    -0.279 OA 
BRANCH  15  22
ATOM     22  C5*   A A   1     -10.570   7.713  67.317  1.00  0.00    -0.318 C  
ATOM     23  O5*   A A   1      -9.691   7.398  66.241  1.00  0.00    -0.387 OA 
ATOM     24  H5*   A A   1     -10.184   7.059  65.502  1.00  0.00     0.000 HD 
ENDBRANCH  15  22
ENDBRANCH  12  13
TORSDOF 2
ENDMDL
MODEL       85
REMARK 921   NORMALIZED FREE ENERGY PREDICTED BY IDOCK:   -4.89 KCAL/MOL
REMARK 922        TOTAL FREE ENERGY PREDICTED BY IDOCK:   -5.53 KCAL/MOL
REMARK 923 INTER-LIGAND FREE ENERGY PREDICTED BY IDOCK:   -6.22 KCAL/MOL
REMARK 924 INTRA-LIGAND FREE ENERGY PREDICTED BY IDOCK:    0.69 KCAL/MOL
REMARK 927      BINDING AFFINITY PREDICTED BY RF-SCORE:    0.00 PKD
ROOT
ATOM      1  N6    A A   1     -10.665   8.953  69.271  1.00  0.00    -0.345 NA 
ATOM      2  C6    A A   1     -11.484   9.729  70.083  1.00  0.00    -0.216 A  
ATOM      3  H62   A A   1     -11.200   8.159  68.922  1.00  0.00     0.000 HD 
ATOM      4  H61   A A   1     -10.190   9.404  68.489  1.00  0.00     0.000 HD 
ATOM      5  N1    A A   1     -12.112   9.133  71.119  1.00  0.00    -0.299 NA 
ATOM      6  C2    A A   1     -12.908   9.889  71.906  1.00  0.00    -0.429 A  
ATOM      7  N3    A A   1     -13.167  11.216  71.816  1.00  0.00    -0.430 NA 
ATOM      8  C4    A A   1     -12.522  11.761  70.770  1.00  0.00    -0.312 A  
ATOM      9  C5    A A   1     -11.671  11.106  69.886  1.00  0.00    -0.355 A  
ATOM     10  N7    A A   1     -11.145  11.983  68.965  1.00  0.00    -0.238 NA 
ATOM     11  C8    A A   1     -11.676  13.143  69.271  1.00  0.00    -0.321 A  
ATOM     12  N9    A A   1     -12.534  13.061  70.347  1.00  0.00    -0.244 NA 
ENDROOT
BRANCH  12  13
ATOM     13  C1*   A A   1     -13.220  14.219  70.872  1.00  0.00    -0.259 C  
ATOM     14  O4*   A A   1     -12.785  15.350  70.081  1.00  0.00    -0.335 OA 
ATOM     15  C4*   A A   1     -11.744  16.040  70.822  1.00  0.00    -0.378 C  
ATOM     16  C3*   A A   1     -11.864  15.622  72.291  1.00  0.00    -0.481 C  
ATOM     17  H2*   A A   1     -12.957  13.999  74.228  1.00  0.00     0.000 HD 
ATOM     18  C2*   A A   1     -13.075  14.695  72.318  1.00  0.00    -0.364 C  
ATOM     19  O3*   A A   1     -12.068  16.765  73.130  1.00  0.00    -0.406 OA 
ATOM     20  H3*   A A   1     -12.142  16.506  74.041  1.00  0.00     0.000 HD 
ATOM     21  O2*   A A   1     -13.046  13.704  73.330  1.00  0.00    -0.366 OA 
BRANCH  15  22
ATOM     22  C5*   A A   1     -10.376  15.666  70.237  1.00  0.00    -0.188 C  
ATOM     23  O5*   A A   1     -10.093  16.466  69.092  1.00  0.00    -0.250 OA 
ATOM     24  H5*   A A   1      -9.246  16.234  68.729  1.00  0.00     0.000 HD 
ENDBRANCH  15  22
ENDBRANCH  12  13
TORSDOF 2
ENDMDL
MODEL       86
REMARK 921   NORMALIZED FREE ENERGY PREDICTED BY IDOCK:   -4.88 KCAL/MOL
REMARK 922        TOTAL FREE ENERGY PREDICTED BY IDOCK:   -5.52 KCAL/MOL
REMARK 923 INTER-LIGAND FREE ENERGY PREDICTED BY IDOCK:   -5.54 KCAL/MOL
REMARK 924 INTRA-LIGAND FREE ENERGY PREDICTED BY IDOCK:    0.02 KCAL/MOL
REMARK 927      BINDING AFFINITY PREDICTED BY RF-SCORE:    0.00 PKD
ROOT
ATOM      1  N6    A A   1     -12.642   9.346  72.046  1.00  0.00    -0.383 NA 
ATOM      2  C6    A A   1     -11.472   9.550  71.325  1.00  0.00    -0.377 A  
ATOM      3  H62   A A   1     -12.490   9.629  73.013  1.00  0.00     0.000 HD 
ATOM      4  H61   A A   1     -13.503   9.774  71.706  1.00  0.00     0.000 HD 
ATOM      5  N1    A A   1     -10.333   8.984  71.774  1.00  0.00    -0.352 NA 
ATOM      6  C2    A A   1      -9.197   9.184  71.071  1.00  0.00    -0.252 A  
ATOM      7  N3    A A   1      -9.027   9.886  69.925  1.00  0.00    -0.217 NA 
ATOM      8  C4    A A   1     -10.187  10.432  69.521  1.00  0.00    -0.231 A  
ATOM      9  C5    A A   1     -11.426  10.302  70.140  1.00  0.00    -0.309 A  
ATOM     10  N7    A A   1     -12.407  10.952  69.425  1.00  0.00    -0.358 NA 
ATOM     11  C8    A A   1     -11.776  11.479  68.402  1.00  0.00    -0.303 A  
ATOM     12  N9    A A   1     -10.425  11.209  68.421  1.00  0.00    -0.180 NA 
ENDROOT
BRANCH  12  13
ATOM     13  C1*   A A   1      -9.534  11.675  67.384  1.00  0.00    -0.167 C  
ATOM     14  O4*   A A   1      -8.715  12.710  67.977  1.00  0.00    -0.175 OA 
ATOM     15  C4*   A A   1      -9.283  13.995  67.610  1.00  0.00    -0.194 C  
ATOM     16  C3*   A A   1     -10.179  13.776  66.387  1.00  0.00    -0.292 C  
ATOM     17  H2*   A A   1     -11.452  12.073  64.637  1.00  0.00     0.000 HD 
ATOM     18  C2*   A A   1     -10.024  12.291  66.073  1.00  0.00    -0.252 C  
ATOM     19  O3*   A A   1      -9.745  14.585  65.287  1.00  0.00    -0.520 OA 
ATOM     20  H3*   A A   1     -10.300  14.449  64.529  1.00  0.00     0.000 HD 
ATOM     21  O2*   A A   1     -11.148  11.691  65.452  1.00  0.00    -0.294 OA 
BRANCH  15  22
ATOM     22  C5*   A A   1     -10.076  14.554  68.799  1.00  0.00    -0.239 C  
ATOM     23  O5*   A A   1      -9.186  15.019  69.811  1.00  0.00    -0.447 OA 
ATOM     24  H5*   A A   1      -9.677  15.365  70.547  1.00  0.00     0.000 HD 
ENDBRANCH  15  22
ENDBRANCH  12  13
TORSDOF 2
ENDMDL
MODEL       87
REMARK 921   NORMALIZED FREE ENERGY PREDICTED BY IDOCK:   -4.88 KCAL/MOL
REMARK 922        TOTAL FREE ENERGY PREDICTED BY IDOCK:   -5.51 KCAL/MOL
REMARK 923 INTER-LIGAND FREE ENERGY PREDICTED BY IDOCK:   -5.73 KCAL/MOL
REMARK 924 INTRA-LIGAND FREE ENERGY PREDICTED BY IDOCK:    0.21 KCAL/MOL
REMARK 927      BINDING AFFINITY PREDICTED BY RF-SCORE:    0.00 PKD
ROOT
ATOM      1  N6    A A   1     -12.459  13.600  63.092  1.00  0.00    -1.045 NA 
ATOM      2  C6    A A   1     -12.046  13.314  64.387  1.00  0.00    -0.415 A  
ATOM      3  H62   A A   1     -12.175  14.550  62.855  1.00  0.00     0.000 HD 
ATOM      4  H61   A A   1     -12.173  12.971  62.341  1.00  0.00     0.000 HD 
ATOM      5  N1    A A   1     -12.424  14.146  65.381  1.00  0.00    -0.471 NA 
ATOM      6  C2    A A   1     -12.021  13.866  66.639  1.00  0.00    -0.442 A  
ATOM      7  N3    A A   1     -11.276  12.821  67.073  1.00  0.00    -0.278 NA 
ATOM      8  C4    A A   1     -10.923  12.026  66.049  1.00  0.00    -0.304 A  
ATOM      9  C5    A A   1     -11.271  12.189  64.712  1.00  0.00    -0.323 A  
ATOM     10  N7    A A   1     -10.779  11.159  63.943  1.00  0.00    -0.378 NA 
ATOM     11  C8    A A   1     -10.131  10.394  64.790  1.00  0.00    -0.317 A  
ATOM     12  N9    A A   1     -10.173  10.883  66.078  1.00  0.00    -0.247 NA 
ENDROOT
BRANCH  12  13
ATOM     13  C1*   A A   1      -9.542  10.195  67.181  1.00  0.00    -0.169 C  
ATOM     14  O4*   A A   1      -8.240  10.801  67.355  1.00  0.00    -0.114 OA 
ATOM     15  C4*   A A   1      -7.261   9.955  66.697  1.00  0.00    -0.091 C  
ATOM     16  C3*   A A   1      -7.887   8.568  66.524  1.00  0.00    -0.096 C  
ATOM     17  H2*   A A   1     -10.081   6.909  66.642  1.00  0.00     0.000 HD 
ATOM     18  C2*   A A   1      -9.259   8.693  67.180  1.00  0.00    -0.144 C  
ATOM     19  O3*   A A   1      -7.093   7.567  67.173  1.00  0.00    -0.080 OA 
ATOM     20  H3*   A A   1      -7.481   6.707  67.065  1.00  0.00     0.000 HD 
ATOM     21  O2*   A A   1     -10.257   7.842  66.643  1.00  0.00    -0.278 OA 
BRANCH  15  22
ATOM     22  C5*   A A   1      -6.883  10.578  65.347  1.00  0.00    -0.078 C  
ATOM     23  O5*   A A   1      -5.653  11.290  65.458  1.00  0.00    -0.456 OA 
ATOM     24  H5*   A A   1      -5.419  11.675  64.622  1.00  0.00     0.000 HD 
ENDBRANCH  15  22
ENDBRANCH  12  13
TORSDOF 2
ENDMDL
MODEL       88
REMARK 921   NORMALIZED FREE ENERGY PREDICTED BY IDOCK:   -4.88 KCAL/MOL
REMARK 922        TOTAL FREE ENERGY PREDICTED BY IDOCK:   -5.51 KCAL/MOL
REMARK 923 INTER-LIGAND FREE ENERGY PREDICTED BY IDOCK:   -6.31 KCAL/MOL
REMARK 924 INTRA-LIGAND FREE ENERGY PREDICTED BY IDOCK:    0.80 KCAL/MOL
REMARK 927      BINDING AFFINITY PREDICTED BY RF-SCORE:    0.00 PKD
ROOT
ATOM      1  N6    A A   1     -12.276  12.390  64.304  1.00  0.00    -0.436 NA 
ATOM      2  C6    A A   1     -11.844  13.695  64.511  1.00  0.00    -0.412 A  
ATOM      3  H62   A A   1     -12.324  12.212  63.301  1.00  0.00     0.000 HD 
ATOM      4  H61   A A   1     -11.761  11.631  64.751  1.00  0.00     0.000 HD 
ATOM      5  N1    A A   1     -12.525  14.699  63.920  1.00  0.00    -0.792 NA 
ATOM      6  C2    A A   1     -12.103  15.965  64.123  1.00  0.00     0.182 A  
ATOM      7  N3    A A   1     -11.064  16.397  64.878  1.00  0.00    -0.537 NA 
ATOM      8  C4    A A   1     -10.418  15.362  65.442  1.00  0.00    -0.402 A  
ATOM      9  C5    A A   1     -10.745  14.015  65.324  1.00  0.00    -0.358 A  
ATOM     10  N7    A A   1      -9.899  13.233  66.077  1.00  0.00    -0.283 NA 
ATOM     11  C8    A A   1      -9.065  14.083  66.628  1.00  0.00    -0.200 A  
ATOM     12  N9    A A   1      -9.324  15.387  66.262  1.00  0.00    -0.293 NA 
ENDROOT
BRANCH  12  13
ATOM     13  C1*   A A   1      -8.543  16.494  66.761  1.00  0.00    -0.230 C  
ATOM     14  O4*   A A   1      -8.219  16.184  68.137  1.00  0.00    -0.153 OA 
ATOM     15  C4*   A A   1      -9.160  16.890  68.988  1.00  0.00    -0.174 C  
ATOM     16  C3*   A A   1      -9.771  18.027  68.163  1.00  0.00    -0.322 C  
ATOM     17  H2*   A A   1     -10.146  19.282  65.742  1.00  0.00     0.000 HD 
ATOM     18  C2*   A A   1      -9.064  17.931  66.815  1.00  0.00    -0.268 C  
ATOM     19  O3*   A A   1      -9.529  19.294  68.785  1.00  0.00    -0.373 OA 
ATOM     20  H3*   A A   1      -9.908  19.999  68.274  1.00  0.00     0.000 HD 
ATOM     21  O2*   A A   1      -9.822  18.389  65.709  1.00  0.00    -0.503 OA 
BRANCH  15  22
ATOM     22  C5*   A A   1     -10.231  15.908  69.480  1.00  0.00    -0.279 C  
ATOM     23  O5*   A A   1     -11.222  16.597  70.238  1.00  0.00    -0.479 OA 
ATOM     24  H5*   A A   1     -11.885  15.989  70.543  1.00  0.00     0.000 HD 
ENDBRANCH  15  22
ENDBRANCH  12  13
TORSDOF 2
ENDMDL
MODEL       89
REMARK 921   NORMALIZED FREE ENERGY PREDICTED BY IDOCK:   -4.87 KCAL/MOL
REMARK 922        TOTAL FREE ENERGY PREDICTED BY IDOCK:   -5.51 KCAL/MOL
REMARK 923 INTER-LIGAND FREE ENERGY PREDICTED BY IDOCK:   -5.47 KCAL/MOL
REMARK 924 INTRA-LIGAND FREE ENERGY PREDICTED BY IDOCK:   -0.04 KCAL/MOL
REMARK 927      BINDING AFFINITY PREDICTED BY RF-SCORE:    0.00 PKD
ROOT
ATOM      1  N6    A A   1     -11.540   7.643  73.120  1.00  0.00    -0.636 NA 
ATOM      2  C6    A A   1     -11.289   7.446  71.767  1.00  0.00    -0.255 A  
ATOM      3  H62   A A   1     -10.836   7.145  73.664  1.00  0.00     0.000 HD 
ATOM      4  H61   A A   1     -11.612   8.600  73.466  1.00  0.00     0.000 HD 
ATOM      5  N1    A A   1     -11.195   6.180  71.308  1.00  0.00    -0.292 NA 
ATOM      6  C2    A A   1     -10.951   5.992  69.994  1.00  0.00    -0.380 A  
ATOM      7  N3    A A   1     -10.797   6.924  69.022  1.00  0.00    -0.226 NA 
ATOM      8  C4    A A   1     -10.897   8.165  69.529  1.00  0.00    -0.121 A  
ATOM      9  C5    A A   1     -11.151   8.503  70.854  1.00  0.00    -0.255 A  
ATOM     10  N7    A A   1     -11.238   9.868  71.008  1.00  0.00    -0.363 NA 
ATOM     11  C8    A A   1     -11.025  10.352  69.807  1.00  0.00    -0.293 A  
ATOM     12  N9    A A   1     -10.795   9.362  68.875  1.00  0.00    -0.171 NA 
ENDROOT
BRANCH  12  13
ATOM     13  C1*   A A   1     -10.554   9.659  67.483  1.00  0.00    -0.277 C  
ATOM     14  O4*   A A   1      -9.135   9.477  67.261  1.00  0.00    -0.130 OA 
ATOM     15  C4*   A A   1      -8.503  10.783  67.311  1.00  0.00    -0.124 C  
ATOM     16  C3*   A A   1      -9.592  11.836  67.082  1.00  0.00    -0.181 C  
ATOM     17  H2*   A A   1     -12.253  12.503  66.844  1.00  0.00     0.000 HD 
ATOM     18  C2*   A A   1     -10.859  11.018  66.851  1.00  0.00    -0.269 C  
ATOM     19  O3*   A A   1      -9.285  12.647  65.941  1.00  0.00    -0.441 OA 
ATOM     20  H3*   A A   1      -9.960  13.299  65.799  1.00  0.00     0.000 HD 
ATOM     21  O2*   A A   1     -12.063  11.659  67.236  1.00  0.00    -0.595 OA 
BRANCH  15  22
ATOM     22  C5*   A A   1      -7.820  10.962  68.673  1.00  0.00    -0.126 C  
ATOM     23  O5*   A A   1      -8.103  12.255  69.201  1.00  0.00    -0.336 OA 
ATOM     24  H5*   A A   1      -7.680  12.367  70.044  1.00  0.00     0.000 HD 
ENDBRANCH  15  22
ENDBRANCH  12  13
TORSDOF 2
ENDMDL
MODEL       90
REMARK 921   NORMALIZED FREE ENERGY PREDICTED BY IDOCK:   -4.87 KCAL/MOL
REMARK 922        TOTAL FREE ENERGY PREDICTED BY IDOCK:   -5.50 KCAL/MOL
REMARK 923 INTER-LIGAND FREE ENERGY PREDICTED BY IDOCK:   -5.76 KCAL/MOL
REMARK 924 INTRA-LIGAND FREE ENERGY PREDICTED BY IDOCK:    0.25 KCAL/MOL
REMARK 927      BINDING AFFINITY PREDICTED BY RF-SCORE:    0.00 PKD
ROOT
ATOM      1  N6    A A   1     -13.176  12.386  64.624  1.00  0.00    -0.731 NA 
ATOM      2  C6    A A   1     -12.383  13.514  64.798  1.00  0.00    -0.392 A  
ATOM      3  H62   A A   1     -13.028  12.019  63.684  1.00  0.00     0.000 HD 
ATOM      4  H61   A A   1     -13.091  11.624  65.296  1.00  0.00     0.000 HD 
ATOM      5  N1    A A   1     -12.495  14.523  63.909  1.00  0.00    -0.806 NA 
ATOM      6  C2    A A   1     -11.723  15.617  64.081  1.00  0.00    -0.075 A  
ATOM      7  N3    A A   1     -10.826  15.871  65.064  1.00  0.00    -0.495 NA 
ATOM      8  C4    A A   1     -10.749  14.838  65.920  1.00  0.00    -0.316 A  
ATOM      9  C5    A A   1     -11.486  13.659  65.868  1.00  0.00    -0.316 A  
ATOM     10  N7    A A   1     -11.187  12.842  66.934  1.00  0.00    -0.282 NA 
ATOM     11  C8    A A   1     -10.276  13.501  67.612  1.00  0.00    -0.239 A  
ATOM     12  N9    A A   1      -9.961  14.710  67.030  1.00  0.00    -0.243 NA 
ENDROOT
BRANCH  12  13
ATOM     13  C1*   A A   1      -8.995  15.613  67.612  1.00  0.00    -0.180 C  
ATOM     14  O4*   A A   1      -7.723  15.312  66.991  1.00  0.00    -0.208 OA 
ATOM     15  C4*   A A   1      -6.976  14.455  67.893  1.00  0.00    -0.163 C  
ATOM     16  C3*   A A   1      -7.581  14.611  69.292  1.00  0.00    -0.113 C  
ATOM     17  H2*   A A   1      -9.575  15.561  70.935  1.00  0.00     0.000 HD 
ATOM     18  C2*   A A   1      -8.680  15.653  69.108  1.00  0.00    -0.251 C  
ATOM     19  O3*   A A   1      -6.593  15.061  70.227  1.00  0.00    -0.153 OA 
ATOM     20  H3*   A A   1      -6.969  15.157  71.094  1.00  0.00     0.000 HD 
ATOM     21  O2*   A A   1      -9.771  15.536  70.006  1.00  0.00    -0.260 OA 
BRANCH  15  22
ATOM     22  C5*   A A   1      -7.060  13.005  67.398  1.00  0.00    -0.117 C  
ATOM     23  O5*   A A   1      -5.869  12.651  66.700  1.00  0.00    -0.416 OA 
ATOM     24  H5*   A A   1      -5.922  11.754  66.394  1.00  0.00     0.000 HD 
ENDBRANCH  15  22
ENDBRANCH  12  13
TORSDOF 2
ENDMDL
MODEL       91
REMARK 921   NORMALIZED FREE ENERGY PREDICTED BY IDOCK:   -4.80 KCAL/MOL
REMARK 922        TOTAL FREE ENERGY PREDICTED BY IDOCK:   -5.43 KCAL/MOL
REMARK 923 INTER-LIGAND FREE ENERGY PREDICTED BY IDOCK:   -6.12 KCAL/MOL
REMARK 924 INTRA-LIGAND FREE ENERGY PREDICTED BY IDOCK:    0.69 KCAL/MOL
REMARK 927      BINDING AFFINITY PREDICTED BY RF-SCORE:    0.00 PKD
ROOT
ATOM      1  N6    A A   1     -13.394  11.390  72.274  1.00  0.00    -0.540 NA 
ATOM      2  C6    A A   1     -12.503  10.894  71.329  1.00  0.00    -0.388 A  
ATOM      3  H62   A A   1     -13.019  11.217  73.206  1.00  0.00     0.000 HD 
ATOM      4  H61   A A   1     -13.680  12.367  72.206  1.00  0.00     0.000 HD 
ATOM      5  N1    A A   1     -12.125   9.602  71.418  1.00  0.00    -0.361 NA 
ATOM      6  C2    A A   1     -11.259   9.123  70.499  1.00  0.00    -0.264 A  
ATOM      7  N3    A A   1     -10.703   9.771  69.447  1.00  0.00    -0.220 NA 
ATOM      8  C4    A A   1     -11.108  11.052  69.403  1.00  0.00    -0.262 A  
ATOM      9  C5    A A   1     -11.996  11.672  70.276  1.00  0.00    -0.358 A  
ATOM     10  N7    A A   1     -12.224  12.977  69.905  1.00  0.00    -0.248 NA 
ATOM     11  C8    A A   1     -11.478  13.154  68.839  1.00  0.00    -0.298 A  
ATOM     12  N9    A A   1     -10.767  12.022  68.502  1.00  0.00    -0.226 NA 
ENDROOT
BRANCH  12  13
ATOM     13  C1*   A A   1      -9.892  11.979  67.353  1.00  0.00    -0.184 C  
ATOM     14  O4*   A A   1      -9.963  13.283  66.732  1.00  0.00    -0.250 OA 
ATOM     15  C4*   A A   1     -10.890  13.199  65.618  1.00  0.00    -0.278 C  
ATOM     16  C3*   A A   1     -11.034  11.721  65.243  1.00  0.00    -0.295 C  
ATOM     17  H2*   A A   1     -10.569   9.064  65.795  1.00  0.00     0.000 HD 
ATOM     18  C2*   A A   1     -10.081  11.001  66.193  1.00  0.00    -0.237 C  
ATOM     19  O3*   A A   1     -10.663  11.504  63.876  1.00  0.00    -0.336 OA 
ATOM     20  H3*   A A   1     -10.752  10.587  63.644  1.00  0.00     0.000 HD 
ATOM     21  O2*   A A   1     -10.451   9.671  66.516  1.00  0.00    -0.216 OA 
BRANCH  15  22
ATOM     22  C5*   A A   1     -12.234  13.811  66.033  1.00  0.00    -0.457 C  
ATOM     23  O5*   A A   1     -13.032  14.077  64.883  1.00  0.00    -0.707 OA 
ATOM     24  H5*   A A   1     -13.865  14.456  65.140  1.00  0.00     0.000 HD 
ENDBRANCH  15  22
ENDBRANCH  12  13
TORSDOF 2
ENDMDL
MODEL       92
REMARK 921   NORMALIZED FREE ENERGY PREDICTED BY IDOCK:   -4.78 KCAL/MOL
REMARK 922        TOTAL FREE ENERGY PREDICTED BY IDOCK:   -5.41 KCAL/MOL
REMARK 923 INTER-LIGAND FREE ENERGY PREDICTED BY IDOCK:   -5.16 KCAL/MOL
REMARK 924 INTRA-LIGAND FREE ENERGY PREDICTED BY IDOCK:   -0.25 KCAL/MOL
REMARK 927      BINDING AFFINITY PREDICTED BY RF-SCORE:    0.00 PKD
ROOT
ATOM      1  N6    A A   1     -12.649  14.336  66.538  1.00  0.00    -0.500 NA 
ATOM      2  C6    A A   1     -12.083  13.363  65.723  1.00  0.00    -0.436 A  
ATOM      3  H62   A A   1     -13.622  14.093  66.718  1.00  0.00     0.000 HD 
ATOM      4  H61   A A   1     -12.191  14.555  67.423  1.00  0.00     0.000 HD 
ATOM      5  N1    A A   1     -12.687  13.074  64.551  1.00  0.00    -0.701 NA 
ATOM      6  C2    A A   1     -12.135  12.128  63.762  1.00  0.00    -0.525 A  
ATOM      7  N3    A A   1     -11.008  11.407  63.972  1.00  0.00    -0.373 NA 
ATOM      8  C4    A A   1     -10.446  11.728  65.150  1.00  0.00    -0.283 A  
ATOM      9  C5    A A   1     -10.900  12.683  66.054  1.00  0.00    -0.277 A  
ATOM     10  N7    A A   1     -10.052  12.786  67.133  1.00  0.00    -0.232 NA 
ATOM     11  C8    A A   1      -9.110  11.902  66.899  1.00  0.00    -0.196 A  
ATOM     12  N9    A A   1      -9.310  11.220  65.718  1.00  0.00    -0.219 NA 
ENDROOT
BRANCH  12  13
ATOM     13  C1*   A A   1      -8.389  10.211  65.248  1.00  0.00    -0.159 C  
ATOM     14  O4*   A A   1      -9.057   8.938  65.406  1.00  0.00    -0.206 OA 
ATOM     15  C4*   A A   1      -8.581   8.331  66.636  1.00  0.00    -0.129 C  
ATOM     16  C3*   A A   1      -7.255   9.005  67.003  1.00  0.00    -0.086 C  
ATOM     17  H2*   A A   1      -5.399  10.998  66.598  1.00  0.00     0.000 HD 
ATOM     18  C2*   A A   1      -7.007   9.987  65.862  1.00  0.00    -0.113 C  
ATOM     19  O3*   A A   1      -6.200   8.038  67.091  1.00  0.00    -0.052 OA 
ATOM     20  H3*   A A   1      -5.378   8.456  67.319  1.00  0.00     0.000 HD 
ATOM     21  O2*   A A   1      -6.258  11.137  66.216  1.00  0.00    -0.133 OA 
BRANCH  15  22
ATOM     22  C5*   A A   1      -9.636   8.522  67.734  1.00  0.00    -0.156 C  
ATOM     23  O5*   A A   1     -10.904   8.815  67.155  1.00  0.00    -0.382 OA 
ATOM     24  H5*   A A   1     -11.557   8.934  67.834  1.00  0.00     0.000 HD 
ENDBRANCH  15  22
ENDBRANCH  12  13
TORSDOF 2
ENDMDL
MODEL       93
REMARK 921   NORMALIZED FREE ENERGY PREDICTED BY IDOCK:   -4.78 KCAL/MOL
REMARK 922        TOTAL FREE ENERGY PREDICTED BY IDOCK:   -5.40 KCAL/MOL
REMARK 923 INTER-LIGAND FREE ENERGY PREDICTED BY IDOCK:   -5.55 KCAL/MOL
REMARK 924 INTRA-LIGAND FREE ENERGY PREDICTED BY IDOCK:    0.15 KCAL/MOL
REMARK 927      BINDING AFFINITY PREDICTED BY RF-SCORE:    0.00 PKD
ROOT
ATOM      1  N6    A A   1     -12.923  11.546  62.709  1.00  0.00    -0.623 NA 
ATOM      2  C6    A A   1     -12.369  12.316  63.725  1.00  0.00    -0.538 A  
ATOM      3  H62   A A   1     -13.066  12.134  61.888  1.00  0.00     0.000 HD 
ATOM      4  H61   A A   1     -12.439  10.693  62.427  1.00  0.00     0.000 HD 
ATOM      5  N1    A A   1     -13.009  13.444  64.099  1.00  0.00    -0.356 NA 
ATOM      6  C2    A A   1     -12.468  14.189  65.087  1.00  0.00    -0.439 A  
ATOM      7  N3    A A   1     -11.340  13.956  65.799  1.00  0.00    -0.303 NA 
ATOM      8  C4    A A   1     -10.740  12.825  65.389  1.00  0.00    -0.284 A  
ATOM      9  C5    A A   1     -11.186  11.962  64.394  1.00  0.00    -0.336 A  
ATOM     10  N7    A A   1     -10.351  10.875  64.271  1.00  0.00    -0.363 NA 
ATOM     11  C8    A A   1      -9.407  11.080  65.160  1.00  0.00    -0.220 A  
ATOM     12  N9    A A   1      -9.586  12.258  65.853  1.00  0.00    -0.229 NA 
ENDROOT
BRANCH  12  13
ATOM     13  C1*   A A   1      -8.678  12.681  66.894  1.00  0.00    -0.175 C  
ATOM     14  O4*   A A   1      -9.015  11.912  68.073  1.00  0.00    -0.171 OA 
ATOM     15  C4*   A A   1      -9.853  12.739  68.922  1.00  0.00     0.156 C  
ATOM     16  C3*   A A   1      -9.644  14.198  68.502  1.00  0.00    -0.214 C  
ATOM     17  H2*   A A   1      -8.616  16.050  66.745  1.00  0.00     0.000 HD 
ATOM     18  C2*   A A   1      -8.594  14.122  67.399  1.00  0.00    -0.210 C  
ATOM     19  O3*   A A   1      -9.179  14.983  69.606  1.00  0.00    -0.429 OA 
ATOM     20  H3*   A A   1      -9.050  15.887  69.346  1.00  0.00     0.000 HD 
ATOM     21  O2*   A A   1      -8.668  15.155  66.431  1.00  0.00    -0.277 OA 
BRANCH  15  22
ATOM     22  C5*   A A   1     -11.316  12.307  68.761  1.00  0.00    -0.289 C  
ATOM     23  O5*   A A   1     -11.386  10.979  68.250  1.00  0.00    -0.254 OA 
ATOM     24  H5*   A A   1     -12.292  10.711  68.150  1.00  0.00     0.000 HD 
ENDBRANCH  15  22
ENDBRANCH  12  13
TORSDOF 2
ENDMDL
MODEL       94
REMARK 921   NORMALIZED FREE ENERGY PREDICTED BY IDOCK:   -4.77 KCAL/MOL
REMARK 922        TOTAL FREE ENERGY PREDICTED BY IDOCK:   -5.39 KCAL/MOL
REMARK 923 INTER-LIGAND FREE ENERGY PREDICTED BY IDOCK:   -5.27 KCAL/MOL
REMARK 924 INTRA-LIGAND FREE ENERGY PREDICTED BY IDOCK:   -0.13 KCAL/MOL
REMARK 927      BINDING AFFINITY PREDICTED BY RF-SCORE:    0.00 PKD
ROOT
ATOM      1  N6    A A   1      -6.090  13.339  70.391  1.00  0.00    -0.344 NA 
ATOM      2  C6    A A   1      -6.833  14.105  69.501  1.00  0.00    -0.084 A  
ATOM      3  H62   A A   1      -6.322  13.619  71.344  1.00  0.00     0.000 HD 
ATOM      4  H61   A A   1      -6.145  12.322  70.321  1.00  0.00     0.000 HD 
ATOM      5  N1    A A   1      -6.760  15.449  69.593  1.00  0.00    -0.174 NA 
ATOM      6  C2    A A   1      -7.483  16.191  68.727  1.00  0.00    -0.189 A  
ATOM      7  N3    A A   1      -8.292  15.768  67.726  1.00  0.00    -0.152 NA 
ATOM      8  C4    A A   1      -8.333  14.426  67.677  1.00  0.00    -0.179 A  
ATOM      9  C5    A A   1      -7.638  13.543  68.498  1.00  0.00    -0.129 A  
ATOM     10  N7    A A   1      -7.877  12.237  68.134  1.00  0.00    -0.139 NA 
ATOM     11  C8    A A   1      -8.711  12.322  67.124  1.00  0.00    -0.193 A  
ATOM     12  N9    A A   1      -9.034  13.626  66.817  1.00  0.00    -0.218 NA 
ENDROOT
BRANCH  12  13
ATOM     13  C1*   A A   1      -9.924  13.961  65.729  1.00  0.00    -0.284 C  
ATOM     14  O4*   A A   1     -10.902  14.884  66.265  1.00  0.00    -0.318 OA 
ATOM     15  C4*   A A   1     -12.102  14.130  66.580  1.00  0.00    -0.451 C  
ATOM     16  C3*   A A   1     -12.048  12.818  65.792  1.00  0.00    -0.448 C  
ATOM     17  H2*   A A   1     -10.661  11.039  64.213  1.00  0.00     0.000 HD 
ATOM     18  C2*   A A   1     -10.760  12.923  64.981  1.00  0.00    -0.305 C  
ATOM     19  O3*   A A   1     -13.190  12.690  64.936  1.00  0.00    -0.819 OA 
ATOM     20  H3*   A A   1     -13.156  11.877  64.448  1.00  0.00     0.000 HD 
ATOM     21  O2*   A A   1     -10.142  11.684  64.679  1.00  0.00    -0.242 OA 
BRANCH  15  22
ATOM     22  C5*   A A   1     -12.158  13.881  68.093  1.00  0.00    -0.282 C  
ATOM     23  O5*   A A   1     -11.848  12.520  68.381  1.00  0.00    -0.316 OA 
ATOM     24  H5*   A A   1     -11.883  12.365  69.317  1.00  0.00     0.000 HD 
ENDBRANCH  15  22
ENDBRANCH  12  13
TORSDOF 2
ENDMDL
MODEL       95
REMARK 921   NORMALIZED FREE ENERGY PREDICTED BY IDOCK:   -4.75 KCAL/MOL
REMARK 922        TOTAL FREE ENERGY PREDICTED BY IDOCK:   -5.37 KCAL/MOL
REMARK 923 INTER-LIGAND FREE ENERGY PREDICTED BY IDOCK:   -5.12 KCAL/MOL
REMARK 924 INTRA-LIGAND FREE ENERGY PREDICTED BY IDOCK:   -0.25 KCAL/MOL
REMARK 927      BINDING AFFINITY PREDICTED BY RF-SCORE:    0.00 PKD
ROOT
ATOM      1  N6    A A   1      -9.632   3.080  69.298  1.00  0.00    -0.090 NA 
ATOM      2  C6    A A   1      -9.619   3.940  70.389  1.00  0.00    -0.196 A  
ATOM      3  H62   A A   1     -10.122   2.224  69.556  1.00  0.00     0.000 HD 
ATOM      4  H61   A A   1     -10.006   3.423  68.413  1.00  0.00     0.000 HD 
ATOM      5  N1    A A   1      -9.123   3.487  71.560  1.00  0.00    -0.104 NA 
ATOM      6  C2    A A   1      -9.112   4.325  72.618  1.00  0.00    -0.110 A  
ATOM      7  N3    A A   1      -9.527   5.613  72.679  1.00  0.00    -0.147 NA 
ATOM      8  C4    A A   1     -10.013   6.016  71.492  1.00  0.00    -0.177 A  
ATOM      9  C5    A A   1     -10.079   5.265  70.323  1.00  0.00    -0.259 A  
ATOM     10  N7    A A   1     -10.588   6.011  69.284  1.00  0.00    -0.264 NA 
ATOM     11  C8    A A   1     -10.842   7.185  69.812  1.00  0.00    -0.240 A  
ATOM     12  N9    A A   1     -10.528   7.237  71.153  1.00  0.00    -0.210 NA 
ENDROOT
BRANCH  12  13
ATOM     13  C1*   A A   1     -10.709   8.436  71.938  1.00  0.00    -0.303 C  
ATOM     14  O4*   A A   1     -11.791   8.167  72.860  1.00  0.00    -0.352 OA 
ATOM     15  C4*   A A   1     -13.004   8.741  72.307  1.00  0.00    -0.408 C  
ATOM     16  C3*   A A   1     -12.591   9.790  71.269  1.00  0.00    -0.365 C  
ATOM     17  H2*   A A   1     -10.645  10.992  69.737  1.00  0.00     0.000 HD 
ATOM     18  C2*   A A   1     -11.066   9.792  71.327  1.00  0.00    -0.304 C  
ATOM     19  O3*   A A   1     -13.123  11.077  71.607  1.00  0.00    -0.446 OA 
ATOM     20  H3*   A A   1     -12.866  11.727  70.964  1.00  0.00     0.000 HD 
ATOM     21  O2*   A A   1     -10.423  10.150  70.116  1.00  0.00    -0.271 OA 
BRANCH  15  22
ATOM     22  C5*   A A   1     -13.849   7.625  71.678  1.00  0.00    -0.389 C  
ATOM     23  O5*   A A   1     -13.510   6.366  72.253  1.00  0.00    -0.486 OA 
ATOM     24  H5*   A A   1     -14.033   5.675  71.864  1.00  0.00     0.000 HD 
ENDBRANCH  15  22
ENDBRANCH  12  13
TORSDOF 2
ENDMDL
MODEL       96
REMARK 921   NORMALIZED FREE ENERGY PREDICTED BY IDOCK:   -4.74 KCAL/MOL
REMARK 922        TOTAL FREE ENERGY PREDICTED BY IDOCK:   -5.36 KCAL/MOL
REMARK 923 INTER-LIGAND FREE ENERGY PREDICTED BY IDOCK:   -5.77 KCAL/MOL
REMARK 924 INTRA-LIGAND FREE ENERGY PREDICTED BY IDOCK:    0.42 KCAL/MOL
REMARK 927      BINDING AFFINITY PREDICTED BY RF-SCORE:    0.00 PKD
ROOT
ATOM      1  N6    A A   1     -13.954   9.032  72.953  1.00  0.00    -1.067 NA 
ATOM      2  C6    A A   1     -12.692   8.892  72.386  1.00  0.00    -0.368 A  
ATOM      3  H62   A A   1     -13.856   9.110  73.965  1.00  0.00     0.000 HD 
ATOM      4  H61   A A   1     -14.556   9.785  72.618  1.00  0.00     0.000 HD 
ATOM      5  N1    A A   1     -11.896   7.896  72.828  1.00  0.00    -0.304 NA 
ATOM      6  C2    A A   1     -10.671   7.763  72.276  1.00  0.00    -0.269 A  
ATOM      7  N3    A A   1     -10.105   8.501  71.291  1.00  0.00    -0.205 NA 
ATOM      8  C4    A A   1     -10.934   9.478  70.888  1.00  0.00    -0.337 A  
ATOM      9  C5    A A   1     -12.219   9.727  71.362  1.00  0.00    -0.397 A  
ATOM     10  N7    A A   1     -12.800  10.776  70.688  1.00  0.00    -0.324 NA 
ATOM     11  C8    A A   1     -11.884  11.170  69.833  1.00  0.00    -0.363 A  
ATOM     12  N9    A A   1     -10.727  10.428  69.926  1.00  0.00    -0.281 NA 
ENDROOT
BRANCH  12  13
ATOM     13  C1*   A A   1      -9.588  10.672  69.070  1.00  0.00    -0.195 C  
ATOM     14  O4*   A A   1      -9.975  10.254  67.740  1.00  0.00    -0.165 OA 
ATOM     15  C4*   A A   1      -9.443   8.922  67.516  1.00  0.00    -0.141 C  
ATOM     16  C3*   A A   1      -8.312   8.698  68.524  1.00  0.00    -0.123 C  
ATOM     17  H2*   A A   1      -6.908   9.503  70.752  1.00  0.00     0.000 HD 
ATOM     18  C2*   A A   1      -8.223  10.018  69.285  1.00  0.00    -0.147 C  
ATOM     19  O3*   A A   1      -7.081   8.404  67.852  1.00  0.00    -0.079 OA 
ATOM     20  H3*   A A   1      -6.380   8.265  68.478  1.00  0.00     0.000 HD 
ATOM     21  O2*   A A   1      -7.757   9.909  70.619  1.00  0.00    -0.289 OA 
BRANCH  15  22
ATOM     22  C5*   A A   1     -10.568   7.893  67.688  1.00  0.00    -0.206 C  
ATOM     23  O5*   A A   1     -10.666   7.070  66.530  1.00  0.00    -0.515 OA 
ATOM     24  H5*   A A   1     -11.363   6.433  66.636  1.00  0.00     0.000 HD 
ENDBRANCH  15  22
ENDBRANCH  12  13
TORSDOF 2
ENDMDL
MODEL       97
REMARK 921   NORMALIZED FREE ENERGY PREDICTED BY IDOCK:   -4.72 KCAL/MOL
REMARK 922        TOTAL FREE ENERGY PREDICTED BY IDOCK:   -5.34 KCAL/MOL
REMARK 923 INTER-LIGAND FREE ENERGY PREDICTED BY IDOCK:   -5.22 KCAL/MOL
REMARK 924 INTRA-LIGAND FREE ENERGY PREDICTED BY IDOCK:   -0.12 KCAL/MOL
REMARK 927      BINDING AFFINITY PREDICTED BY RF-SCORE:    0.00 PKD
ROOT
ATOM      1  N6    A A   1     -11.342   5.289  73.754  1.00  0.00    -0.419 NA 
ATOM      2  C6    A A   1     -10.641   6.375  73.244  1.00  0.00    -0.268 A  
ATOM      3  H62   A A   1     -11.881   5.593  74.564  1.00  0.00     0.000 HD 
ATOM      4  H61   A A   1     -11.952   4.766  73.126  1.00  0.00     0.000 HD 
ATOM      5  N1    A A   1      -9.833   7.066  74.075  1.00  0.00    -0.304 NA 
ATOM      6  C2    A A   1      -9.153   8.121  73.576  1.00  0.00    -0.207 A  
ATOM      7  N3    A A   1      -9.148   8.598  72.308  1.00  0.00    -0.343 NA 
ATOM      8  C4    A A   1      -9.968   7.879  71.522  1.00  0.00    -0.173 A  
ATOM      9  C5    A A   1     -10.720   6.771  71.899  1.00  0.00    -0.223 A  
ATOM     10  N7    A A   1     -11.406   6.251  70.826  1.00  0.00    -0.333 NA 
ATOM     11  C8    A A   1     -11.094   7.035  69.821  1.00  0.00    -0.241 A  
ATOM     12  N9    A A   1     -10.238   8.050  70.192  1.00  0.00    -0.199 NA 
ENDROOT
BRANCH  12  13
ATOM     13  C1*   A A   1      -9.745   9.024  69.246  1.00  0.00    -0.168 C  
ATOM     14  O4*   A A   1      -9.822  10.311  69.902  1.00  0.00    -0.211 OA 
ATOM     15  C4*   A A   1     -11.034  10.972  69.452  1.00  0.00    -0.248 C  
ATOM     16  C3*   A A   1     -11.470  10.302  68.145  1.00  0.00    -0.041 C  
ATOM     17  H2*   A A   1     -11.215   8.270  66.305  1.00  0.00     0.000 HD 
ATOM     18  C2*   A A   1     -10.387   9.262  67.878  1.00  0.00    -0.227 C  
ATOM     19  O3*   A A   1     -11.541  11.259  67.081  1.00  0.00    -0.513 OA 
ATOM     20  H3*   A A   1     -11.812  10.844  66.271  1.00  0.00     0.000 HD 
ATOM     21  O2*   A A   1     -10.817   8.122  67.154  1.00  0.00    -0.261 OA 
BRANCH  15  22
ATOM     22  C5*   A A   1     -12.110  10.848  70.538  1.00  0.00    -0.371 C  
ATOM     23  O5*   A A   1     -13.094   9.894  70.151  1.00  0.00    -0.474 OA 
ATOM     24  H5*   A A   1     -13.761   9.817  70.824  1.00  0.00     0.000 HD 
ENDBRANCH  15  22
ENDBRANCH  12  13
TORSDOF 2
ENDMDL
MODEL       98
REMARK 921   NORMALIZED FREE ENERGY PREDICTED BY IDOCK:   -4.72 KCAL/MOL
REMARK 922        TOTAL FREE ENERGY PREDICTED BY IDOCK:   -5.34 KCAL/MOL
REMARK 923 INTER-LIGAND FREE ENERGY PREDICTED BY IDOCK:   -5.45 KCAL/MOL
REMARK 924 INTRA-LIGAND FREE ENERGY PREDICTED BY IDOCK:    0.12 KCAL/MOL
REMARK 927      BINDING AFFINITY PREDICTED BY RF-SCORE:    0.00 PKD
ROOT
ATOM      1  N6    A A   1     -12.956  13.906  72.338  1.00  0.00    -0.376 NA 
ATOM      2  C6    A A   1     -12.703  12.899  71.415  1.00  0.00    -0.270 A  
ATOM      3  H62   A A   1     -12.474  13.687  73.210  1.00  0.00     0.000 HD 
ATOM      4  H61   A A   1     -12.745  14.869  72.076  1.00  0.00     0.000 HD 
ATOM      5  N1    A A   1     -12.981  11.624  71.762  1.00  0.00    -0.424 NA 
ATOM      6  C2    A A   1     -12.734  10.648  70.862  1.00  0.00    -0.404 A  
ATOM      7  N3    A A   1     -12.243  10.763  69.605  1.00  0.00    -0.302 NA 
ATOM      8  C4    A A   1     -11.980  12.048  69.309  1.00  0.00    -0.270 A  
ATOM      9  C5    A A   1     -12.190  13.149  70.132  1.00  0.00    -0.290 A  
ATOM     10  N7    A A   1     -11.856  14.318  69.488  1.00  0.00    -0.308 NA 
ATOM     11  C8    A A   1     -11.436  13.937  68.305  1.00  0.00    -0.311 A  
ATOM     12  N9    A A   1     -11.473  12.568  68.151  1.00  0.00    -0.295 NA 
ENDROOT
BRANCH  12  13
ATOM     13  C1*   A A   1     -11.073  11.922  66.922  1.00  0.00    -0.305 C  
ATOM     14  O4*   A A   1     -10.686  10.573  67.272  1.00  0.00    -0.250 OA 
ATOM     15  C4*   A A   1      -9.238  10.535  67.378  1.00  0.00    -0.142 C  
ATOM     16  C3*   A A   1      -8.685  11.747  66.621  1.00  0.00    -0.186 C  
ATOM     17  H2*   A A   1      -9.097  14.139  65.322  1.00  0.00     0.000 HD 
ATOM     18  C2*   A A   1      -9.925  12.425  66.046  1.00  0.00    -0.255 C  
ATOM     19  O3*   A A   1      -7.792  11.333  65.581  1.00  0.00    -0.370 OA 
ATOM     20  H3*   A A   1      -7.449  12.084  65.111  1.00  0.00     0.000 HD 
ATOM     21  O2*   A A   1      -9.810  13.827  65.866  1.00  0.00    -0.298 OA 
BRANCH  15  22
ATOM     22  C5*   A A   1      -8.840  10.564  68.860  1.00  0.00    -0.165 C  
ATOM     23  O5*   A A   1      -8.673  11.908  69.301  1.00  0.00    -0.230 OA 
ATOM     24  H5*   A A   1      -8.426  11.926  70.218  1.00  0.00     0.000 HD 
ENDBRANCH  15  22
ENDBRANCH  12  13
TORSDOF 2
ENDMDL
MODEL       99
REMARK 921   NORMALIZED FREE ENERGY PREDICTED BY IDOCK:   -4.70 KCAL/MOL
REMARK 922        TOTAL FREE ENERGY PREDICTED BY IDOCK:   -5.32 KCAL/MOL
REMARK 923 INTER-LIGAND FREE ENERGY PREDICTED BY IDOCK:   -5.27 KCAL/MOL
REMARK 924 INTRA-LIGAND FREE ENERGY PREDICTED BY IDOCK:   -0.05 KCAL/MOL
REMARK 927      BINDING AFFINITY PREDICTED BY RF-SCORE:    0.00 PKD
ROOT
ATOM      1  N6    A A   1     -11.329   7.656  73.268  1.00  0.00    -0.619 NA 
ATOM      2  C6    A A   1     -11.630   8.584  72.279  1.00  0.00    -0.374 A  
ATOM      3  H62   A A   1     -11.967   6.866  73.186  1.00  0.00     0.000 HD 
ATOM      4  H61   A A   1     -10.373   7.306  73.332  1.00  0.00     0.000 HD 
ATOM      5  N1    A A   1     -12.894   9.048  72.195  1.00  0.00    -0.389 NA 
ATOM      6  C2    A A   1     -13.183   9.950  71.232  1.00  0.00    -0.383 A  
ATOM      7  N3    A A   1     -12.353  10.494  70.309  1.00  0.00    -0.308 NA 
ATOM      8  C4    A A   1     -11.110  10.000  70.433  1.00  0.00    -0.327 A  
ATOM      9  C5    A A   1     -10.672   9.076  71.377  1.00  0.00    -0.331 A  
ATOM     10  N7    A A   1      -9.325   8.833  71.244  1.00  0.00    -0.225 NA 
ATOM     11  C8    A A   1      -8.952   9.578  70.230  1.00  0.00    -0.248 A  
ATOM     12  N9    A A   1      -9.999  10.293  69.690  1.00  0.00    -0.227 NA 
ENDROOT
BRANCH  12  13
ATOM     13  C1*   A A   1      -9.820  11.194  68.575  1.00  0.00    -0.198 C  
ATOM     14  O4*   A A   1     -10.433  10.560  67.428  1.00  0.00    -0.213 OA 
ATOM     15  C4*   A A   1      -9.384   9.920  66.656  1.00  0.00    -0.157 C  
ATOM     16  C3*   A A   1      -8.053  10.563  67.059  1.00  0.00    -0.118 C  
ATOM     17  H2*   A A   1      -6.607  12.211  68.724  1.00  0.00     0.000 HD 
ATOM     18  C2*   A A   1      -8.447  11.637  68.068  1.00  0.00    -0.151 C  
ATOM     19  O3*   A A   1      -7.400  11.138  65.920  1.00  0.00    -0.347 OA 
ATOM     20  H3*   A A   1      -6.575  11.537  66.170  1.00  0.00     0.000 HD 
ATOM     21  O2*   A A   1      -7.460  11.936  69.040  1.00  0.00    -0.093 OA 
BRANCH  15  22
ATOM     22  C5*   A A   1      -9.393   8.413  66.942  1.00  0.00    -0.174 C  
ATOM     23  O5*   A A   1     -10.733   7.935  67.027  1.00  0.00    -0.392 OA 
ATOM     24  H5*   A A   1     -10.740   7.002  67.204  1.00  0.00     0.000 HD 
ENDBRANCH  15  22
ENDBRANCH  12  13
TORSDOF 2
ENDMDL
MODEL      100
REMARK 921   NORMALIZED FREE ENERGY PREDICTED BY IDOCK:   -4.70 KCAL/MOL
REMARK 922        TOTAL FREE ENERGY PREDICTED BY IDOCK:   -5.32 KCAL/MOL
REMARK 923 INTER-LIGAND FREE ENERGY PREDICTED BY IDOCK:   -5.69 KCAL/MOL
REMARK 924 INTRA-LIGAND FREE ENERGY PREDICTED BY IDOCK:    0.38 KCAL/MOL
REMARK 927      BINDING AFFINITY PREDICTED BY RF-SCORE:    0.00 PKD
ROOT
ATOM      1  N6    A A   1      -5.285  13.227  67.433  1.00  0.00    -0.338 NA 
ATOM      2  C6    A A   1      -6.607  13.653  67.501  1.00  0.00    -0.107 A  
ATOM      3  H62   A A   1      -4.795  13.532  68.273  1.00  0.00     0.000 HD 
ATOM      4  H61   A A   1      -5.102  12.235  67.283  1.00  0.00     0.000 HD 
ATOM      5  N1    A A   1      -6.850  14.965  67.699  1.00  0.00    -0.173 NA 
ATOM      6  C2    A A   1      -8.135  15.376  67.765  1.00  0.00    -0.140 A  
ATOM      7  N3    A A   1      -9.263  14.638  67.641  1.00  0.00    -0.189 NA 
ATOM      8  C4    A A   1      -8.969  13.340  67.448  1.00  0.00    -0.215 A  
ATOM      9  C5    A A   1      -7.698  12.782  67.353  1.00  0.00    -0.165 A  
ATOM     10  N7    A A   1      -7.769  11.431  67.103  1.00  0.00    -0.144 NA 
ATOM     11  C8    A A   1      -9.054  11.168  67.064  1.00  0.00    -0.153 A  
ATOM     12  N9    A A   1      -9.827  12.288  67.285  1.00  0.00    -0.203 NA 
ENDROOT
BRANCH  12  13
ATOM     13  C1*   A A   1     -11.270  12.240  67.270  1.00  0.00    -0.300 C  
ATOM     14  O4*   A A   1     -11.648  11.564  66.047  1.00  0.00    -0.311 OA 
ATOM     15  C4*   A A   1     -11.999  12.575  65.066  1.00  0.00    -0.427 C  
ATOM     16  C3*   A A   1     -12.306  13.871  65.823  1.00  0.00    -0.486 C  
ATOM     17  H2*   A A   1     -12.300  15.327  68.160  1.00  0.00     0.000 HD 
ATOM     18  C2*   A A   1     -12.151  13.490  67.293  1.00  0.00    -0.323 C  
ATOM     19  O3*   A A   1     -13.636  14.321  65.543  1.00  0.00    -0.650 OA 
ATOM     20  H3*   A A   1     -13.826  15.125  66.013  1.00  0.00     0.000 HD 
ATOM     21  O2*   A A   1     -11.753  14.550  68.146  1.00  0.00    -0.314 OA 
BRANCH  15  22
ATOM     22  C5*   A A   1     -10.831  12.754  64.087  1.00  0.00    -0.406 C  
ATOM     23  O5*   A A   1     -10.023  13.860  64.479  1.00  0.00    -0.648 OA 
ATOM     24  H5*   A A   1      -9.300  13.971  63.873  1.00  0.00     0.000 HD 
ENDBRANCH  15  22
ENDBRANCH  12  13
TORSDOF 2
ENDMDL
MODEL      101
REMARK 921   NORMALIZED FREE ENERGY PREDICTED BY IDOCK:   -4.69 KCAL/MOL
REMARK 922        TOTAL FREE ENERGY PREDICTED BY IDOCK:   -5.31 KCAL/MOL
REMARK 923 INTER-LIGAND FREE ENERGY PREDICTED BY IDOCK:   -5.07 KCAL/MOL
REMARK 924 INTRA-LIGAND FREE ENERGY PREDICTED BY IDOCK:   -0.24 KCAL/MOL
REMARK 927      BINDING AFFINITY PREDICTED BY RF-SCORE:    0.00 PKD
ROOT
ATOM      1  N6    A A   1     -13.498  14.209  65.604  1.00  0.00    -0.600 NA 
ATOM      2  C6    A A   1     -12.445  13.413  65.170  1.00  0.00    -0.459 A  
ATOM      3  H62   A A   1     -14.377  13.727  65.419  1.00  0.00     0.000 HD 
ATOM      4  H61   A A   1     -13.495  14.534  66.571  1.00  0.00     0.000 HD 
ATOM      5  N1    A A   1     -12.449  12.983  63.891  1.00  0.00    -0.664 NA 
ATOM      6  C2    A A   1     -11.425  12.209  63.472  1.00  0.00    -0.458 A  
ATOM      7  N3    A A   1     -10.340  11.796  64.169  1.00  0.00    -0.301 NA 
ATOM      8  C4    A A   1     -10.384  12.247  65.435  1.00  0.00    -0.269 A  
ATOM      9  C5    A A   1     -11.369  13.053  65.996  1.00  0.00    -0.310 A  
ATOM     10  N7    A A   1     -11.068  13.365  67.302  1.00  0.00    -0.276 NA 
ATOM     11  C8    A A   1      -9.933  12.749  67.537  1.00  0.00    -0.210 A  
ATOM     12  N9    A A   1      -9.483  12.042  66.443  1.00  0.00    -0.227 NA 
ENDROOT
BRANCH  12  13
ATOM     13  C1*   A A   1      -8.243  11.300  66.466  1.00  0.00    -0.165 C  
ATOM     14  O4*   A A   1      -8.601   9.898  66.440  1.00  0.00    -0.127 OA 
ATOM     15  C4*   A A   1      -8.545   9.396  67.801  1.00  0.00    -0.116 C  
ATOM     16  C3*   A A   1      -7.682  10.364  68.618  1.00  0.00    -0.101 C  
ATOM     17  H2*   A A   1      -6.342  12.759  68.839  1.00  0.00     0.000 HD 
ATOM     18  C2*   A A   1      -7.224  11.405  67.600  1.00  0.00    -0.097 C  
ATOM     19  O3*   A A   1      -6.564   9.683  69.200  1.00  0.00    -0.048 OA 
ATOM     20  H3*   A A   1      -6.029  10.283  69.706  1.00  0.00     0.000 HD 
ATOM     21  O2*   A A   1      -6.976  12.694  68.135  1.00  0.00    -0.078 OA 
BRANCH  15  22
ATOM     22  C5*   A A   1      -9.969   9.297  68.362  1.00  0.00    -0.176 C  
ATOM     23  O5*   A A   1     -10.913   9.203  67.299  1.00  0.00    -0.386 OA 
ATOM     24  H5*   A A   1     -11.795   9.142  67.646  1.00  0.00     0.000 HD 
ENDBRANCH  15  22
ENDBRANCH  12  13
TORSDOF 2
ENDMDL
MODEL      102
REMARK 921   NORMALIZED FREE ENERGY PREDICTED BY IDOCK:   -4.69 KCAL/MOL
REMARK 922        TOTAL FREE ENERGY PREDICTED BY IDOCK:   -5.31 KCAL/MOL
REMARK 923 INTER-LIGAND FREE ENERGY PREDICTED BY IDOCK:   -5.03 KCAL/MOL
REMARK 924 INTRA-LIGAND FREE ENERGY PREDICTED BY IDOCK:   -0.27 KCAL/MOL
REMARK 927      BINDING AFFINITY PREDICTED BY RF-SCORE:    0.00 PKD
ROOT
ATOM      1  N6    A A   1      -8.115  11.890  68.830  1.00  0.00    -0.350 NA 
ATOM      2  C6    A A   1      -8.883  10.770  68.536  1.00  0.00    -0.149 A  
ATOM      3  H62   A A   1      -8.661  12.728  68.631  1.00  0.00     0.000 HD 
ATOM      4  H61   A A   1      -7.712  11.971  69.764  1.00  0.00     0.000 HD 
ATOM      5  N1    A A   1      -9.416  10.663  67.301  1.00  0.00    -0.158 NA 
ATOM      6  C2    A A   1     -10.162   9.573  67.017  1.00  0.00    -0.255 A  
ATOM      7  N3    A A   1     -10.453   8.519  67.817  1.00  0.00    -0.239 NA 
ATOM      8  C4    A A   1      -9.902   8.674  69.033  1.00  0.00    -0.182 A  
ATOM      9  C5    A A   1      -9.110   9.736  69.458  1.00  0.00    -0.216 A  
ATOM     10  N7    A A   1      -8.675   9.543  70.749  1.00  0.00    -0.239 NA 
ATOM     11  C8    A A   1      -9.202   8.396  71.109  1.00  0.00    -0.174 A  
ATOM     12  N9    A A   1      -9.971   7.836  70.112  1.00  0.00    -0.185 NA 
ENDROOT
BRANCH  12  13
ATOM     13  C1*   A A   1     -10.636   6.564  70.278  1.00  0.00    -0.228 C  
ATOM     14  O4*   A A   1     -12.056   6.840  70.294  1.00  0.00    -0.328 OA 
ATOM     15  C4*   A A   1     -12.490   6.877  71.680  1.00  0.00    -0.375 C  
ATOM     16  C3*   A A   1     -11.435   6.144  72.516  1.00  0.00    -0.276 C  
ATOM     17  H2*   A A   1      -8.957   4.964  72.728  1.00  0.00     0.000 HD 
ATOM     18  C2*   A A   1     -10.418   5.657  71.489  1.00  0.00    -0.239 C  
ATOM     19  O3*   A A   1     -12.021   5.046  73.226  1.00  0.00    -0.493 OA 
ATOM     20  H3*   A A   1     -11.368   4.592  73.744  1.00  0.00     0.000 HD 
ATOM     21  O2*   A A   1      -9.093   5.528  71.976  1.00  0.00    -0.140 OA 
BRANCH  15  22
ATOM     22  C5*   A A   1     -12.648   8.338  72.121  1.00  0.00    -0.337 C  
ATOM     23  O5*   A A   1     -12.785   9.185  70.983  1.00  0.00    -0.471 OA 
ATOM     24  H5*   A A   1     -12.883  10.089  71.256  1.00  0.00     0.000 HD 
ENDBRANCH  15  22
ENDBRANCH  12  13
TORSDOF 2
ENDMDL
MODEL      103
REMARK 921   NORMALIZED FREE ENERGY PREDICTED BY IDOCK:   -4.65 KCAL/MOL
REMARK 922        TOTAL FREE ENERGY PREDICTED BY IDOCK:   -5.27 KCAL/MOL
REMARK 923 INTER-LIGAND FREE ENERGY PREDICTED BY IDOCK:   -5.80 KCAL/MOL
REMARK 924 INTRA-LIGAND FREE ENERGY PREDICTED BY IDOCK:    0.53 KCAL/MOL
REMARK 927      BINDING AFFINITY PREDICTED BY RF-SCORE:    0.00 PKD
ROOT
ATOM      1  N6    A A   1      -5.155  20.972  70.714  1.00  0.00    -0.542 NA 
ATOM      2  C6    A A   1      -5.573  19.770  70.156  1.00  0.00    -0.256 A  
ATOM      3  H62   A A   1      -4.144  20.945  70.841  1.00  0.00     0.000 HD 
ATOM      4  H61   A A   1      -5.408  21.840  70.241  1.00  0.00     0.000 HD 
ATOM      5  N1    A A   1      -5.240  18.621  70.781  1.00  0.00    -0.249 NA 
ATOM      6  C2    A A   1      -5.647  17.454  70.237  1.00  0.00    -0.236 A  
ATOM      7  N3    A A   1      -6.385  17.257  69.119  1.00  0.00    -0.216 NA 
ATOM      8  C4    A A   1      -6.689  18.428  68.533  1.00  0.00    -0.244 A  
ATOM      9  C5    A A   1      -6.343  19.698  68.985  1.00  0.00    -0.297 A  
ATOM     10  N7    A A   1      -6.863  20.673  68.165  1.00  0.00    -0.260 NA 
ATOM     11  C8    A A   1      -7.499  20.013  67.226  1.00  0.00    -0.277 A  
ATOM     12  N9    A A   1      -7.409  18.647  67.391  1.00  0.00    -0.217 NA 
ENDROOT
BRANCH  12  13
ATOM     13  C1*   A A   1      -8.047  17.721  66.485  1.00  0.00    -0.272 C  
ATOM     14  O4*   A A   1      -9.157  18.429  65.884  1.00  0.00    -0.488 OA 
ATOM     15  C4*   A A   1     -10.365  18.054  66.597  1.00  0.00    -0.371 C  
ATOM     16  C3*   A A   1     -10.083  16.741  67.333  1.00  0.00    -0.276 C  
ATOM     17  H2*   A A   1      -8.307  14.814  68.177  1.00  0.00     0.000 HD 
ATOM     18  C2*   A A   1      -8.652  16.391  66.935  1.00  0.00    -0.214 C  
ATOM     19  O3*   A A   1     -10.999  15.719  66.922  1.00  0.00    -0.300 OA 
ATOM     20  H3*   A A   1     -10.824  14.905  67.378  1.00  0.00     0.000 HD 
ATOM     21  O2*   A A   1      -7.931  15.640  67.897  1.00  0.00    -0.135 OA 
BRANCH  15  22
ATOM     22  C5*   A A   1     -10.747  19.178  67.569  1.00  0.00    -0.458 C  
ATOM     23  O5*   A A   1     -10.319  18.854  68.889  1.00  0.00    -0.488 OA 
ATOM     24  H5*   A A   1     -10.555  19.550  69.492  1.00  0.00     0.000 HD 
ENDBRANCH  15  22
ENDBRANCH  12  13
TORSDOF 2
ENDMDL
MODEL      104
REMARK 921   NORMALIZED FREE ENERGY PREDICTED BY IDOCK:   -4.65 KCAL/MOL
REMARK 922        TOTAL FREE ENERGY PREDICTED BY IDOCK:   -5.26 KCAL/MOL
REMARK 923 INTER-LIGAND FREE ENERGY PREDICTED BY IDOCK:   -5.30 KCAL/MOL
REMARK 924 INTRA-LIGAND FREE ENERGY PREDICTED BY IDOCK:    0.04 KCAL/MOL
REMARK 927      BINDING AFFINITY PREDICTED BY RF-SCORE:    0.00 PKD
ROOT
ATOM      1  N6    A A   1     -12.146  12.999  69.673  1.00  0.00    -0.278 NA 
ATOM      2  C6    A A   1     -11.662  11.696  69.691  1.00  0.00    -0.350 A  
ATOM      3  H62   A A   1     -12.455  13.224  68.728  1.00  0.00     0.000 HD 
ATOM      4  H61   A A   1     -12.881  13.253  70.332  1.00  0.00     0.000 HD 
ATOM      5  N1    A A   1     -10.689  11.359  68.819  1.00  0.00    -0.195 NA 
ATOM      6  C2    A A   1     -10.221  10.093  68.840  1.00  0.00    -0.199 A  
ATOM      7  N3    A A   1     -10.587   9.071  69.651  1.00  0.00    -0.223 NA 
ATOM      8  C4    A A   1     -11.557   9.456  70.497  1.00  0.00    -0.235 A  
ATOM      9  C5    A A   1     -12.125  10.722  70.590  1.00  0.00    -0.370 A  
ATOM     10  N7    A A   1     -13.056  10.774  71.602  1.00  0.00    -0.449 NA 
ATOM     11  C8    A A   1     -13.068   9.561  72.104  1.00  0.00    -0.436 A  
ATOM     12  N9    A A   1     -12.190   8.717  71.459  1.00  0.00    -0.313 NA 
ENDROOT
BRANCH  12  13
ATOM     13  C1*   A A   1     -12.021   7.338  71.853  1.00  0.00    -0.306 C  
ATOM     14  O4*   A A   1     -11.274   7.351  73.092  1.00  0.00    -0.335 OA 
ATOM     15  C4*   A A   1      -9.881   7.089  72.777  1.00  0.00    -0.174 C  
ATOM     16  C3*   A A   1      -9.832   6.432  71.394  1.00  0.00    -0.176 C  
ATOM     17  H2*   A A   1     -11.090   5.692  69.059  1.00  0.00     0.000 HD 
ATOM     18  C2*   A A   1     -11.298   6.302  70.991  1.00  0.00    -0.316 C  
ATOM     19  O3*   A A   1      -9.199   5.148  71.462  1.00  0.00    -0.142 OA 
ATOM     20  H3*   A A   1      -9.169   4.741  70.605  1.00  0.00     0.000 HD 
ATOM     21  O2*   A A   1     -11.539   6.335  69.595  1.00  0.00    -0.430 OA 
BRANCH  15  22
ATOM     22  C5*   A A   1      -9.100   8.410  72.805  1.00  0.00    -0.229 C  
ATOM     23  O5*   A A   1      -8.386   8.586  71.584  1.00  0.00    -0.141 OA 
ATOM     24  H5*   A A   1      -7.903   9.404  71.600  1.00  0.00     0.000 HD 
ENDBRANCH  15  22
ENDBRANCH  12  13
TORSDOF 2
ENDMDL
MODEL      105
REMARK 921   NORMALIZED FREE ENERGY PREDICTED BY IDOCK:   -4.63 KCAL/MOL
REMARK 922        TOTAL FREE ENERGY PREDICTED BY IDOCK:   -5.24 KCAL/MOL
REMARK 923 INTER-LIGAND FREE ENERGY PREDICTED BY IDOCK:   -6.06 KCAL/MOL
REMARK 924 INTRA-LIGAND FREE ENERGY PREDICTED BY IDOCK:    0.82 KCAL/MOL
REMARK 927      BINDING AFFINITY PREDICTED BY RF-SCORE:    0.00 PKD
ROOT
ATOM      1  N6    A A   1     -10.002   8.612  70.183  1.00  0.00    -0.179 NA 
ATOM      2  C6    A A   1     -10.758   9.732  69.859  1.00  0.00    -0.268 A  
ATOM      3  H62   A A   1     -10.608   7.916  70.617  1.00  0.00     0.000 HD 
ATOM      4  H61   A A   1      -9.457   8.164  69.445  1.00  0.00     0.000 HD 
ATOM      5  N1    A A   1     -11.478  10.325  70.835  1.00  0.00    -0.352 NA 
ATOM      6  C2    A A   1     -12.212  11.414  70.517  1.00  0.00    -0.386 A  
ATOM      7  N3    A A   1     -12.324  12.035  69.319  1.00  0.00    -0.043 NA 
ATOM      8  C4    A A   1     -11.593  11.406  68.383  1.00  0.00    -0.315 A  
ATOM      9  C5    A A   1     -10.789  10.286  68.570  1.00  0.00    -0.240 A  
ATOM     10  N7    A A   1     -10.144   9.940  67.405  1.00  0.00    -0.192 NA 
ATOM     11  C8    A A   1     -10.557  10.820  66.523  1.00  0.00    -0.218 A  
ATOM     12  N9    A A   1     -11.451  11.721  67.059  1.00  0.00    -0.471 NA 
ENDROOT
BRANCH  12  13
ATOM     13  C1*   A A   1     -12.025  12.792  66.277  1.00  0.00    -0.395 C  
ATOM     14  O4*   A A   1     -11.879  12.412  64.888  1.00  0.00    -0.362 OA 
ATOM     15  C4*   A A   1     -10.711  13.093  64.359  1.00  0.00    -0.407 C  
ATOM     16  C3*   A A   1     -10.405  14.277  65.281  1.00  0.00    -0.395 C  
ATOM     17  H2*   A A   1     -10.846  15.650  67.627  1.00  0.00     0.000 HD 
ATOM     18  C2*   A A   1     -11.515  14.232  66.326  1.00  0.00    -0.357 C  
ATOM     19  O3*   A A   1     -10.429  15.510  64.552  1.00  0.00    -0.605 OA 
ATOM     20  H3*   A A   1     -10.240  16.244  65.124  1.00  0.00     0.000 HD 
ATOM     21  O2*   A A   1     -11.163  14.755  67.596  1.00  0.00    -0.298 OA 
BRANCH  15  22
ATOM     22  C5*   A A   1      -9.537  12.106  64.295  1.00  0.00     0.063 C  
ATOM     23  O5*   A A   1      -9.117  11.926  62.945  1.00  0.00    -0.639 OA 
ATOM     24  H5*   A A   1      -8.391  11.315  62.905  1.00  0.00     0.000 HD 
ENDBRANCH  15  22
ENDBRANCH  12  13
TORSDOF 2
ENDMDL
MODEL      106
REMARK 921   NORMALIZED FREE ENERGY PREDICTED BY IDOCK:   -4.62 KCAL/MOL
REMARK 922        TOTAL FREE ENERGY PREDICTED BY IDOCK:   -5.23 KCAL/MOL
REMARK 923 INTER-LIGAND FREE ENERGY PREDICTED BY IDOCK:   -5.20 KCAL/MOL
REMARK 924 INTRA-LIGAND FREE ENERGY PREDICTED BY IDOCK:   -0.03 KCAL/MOL
REMARK 927      BINDING AFFINITY PREDICTED BY RF-SCORE:    0.00 PKD
ROOT
ATOM      1  N6    A A   1     -12.621  13.976  66.549  1.00  0.00    -0.503 NA 
ATOM      2  C6    A A   1     -11.409  13.441  66.971  1.00  0.00    -0.317 A  
ATOM      3  H62   A A   1     -12.614  14.050  65.532  1.00  0.00     0.000 HD 
ATOM      4  H61   A A   1     -13.483  13.516  66.843  1.00  0.00     0.000 HD 
ATOM      5  N1    A A   1     -10.269  14.050  66.582  1.00  0.00    -0.270 NA 
ATOM      6  C2    A A   1      -9.093  13.528  66.994  1.00  0.00    -0.244 A  
ATOM      7  N3    A A   1      -8.879  12.450  67.785  1.00  0.00    -0.167 NA 
ATOM      8  C4    A A   1     -10.042  11.880  68.143  1.00  0.00    -0.198 A  
ATOM      9  C5    A A   1     -11.319  12.312  67.799  1.00  0.00    -0.301 A  
ATOM     10  N7    A A   1     -12.283  11.520  68.381  1.00  0.00    -0.483 NA 
ATOM     11  C8    A A   1     -11.608  10.615  69.051  1.00  0.00    -0.261 A  
ATOM     12  N9    A A   1     -10.245  10.777  68.926  1.00  0.00    -0.195 NA 
ENDROOT
BRANCH  12  13
ATOM     13  C1*   A A   1      -9.304   9.906  69.591  1.00  0.00    -0.228 C  
ATOM     14  O4*   A A   1      -8.715   9.073  68.565  1.00  0.00    -0.132 OA 
ATOM     15  C4*   A A   1      -9.403   7.795  68.576  1.00  0.00    -0.147 C  
ATOM     16  C3*   A A   1     -10.101   7.654  69.933  1.00  0.00    -0.198 C  
ATOM     17  H2*   A A   1     -10.901   8.750  72.329  1.00  0.00     0.000 HD 
ATOM     18  C2*   A A   1      -9.706   8.919  70.688  1.00  0.00    -0.212 C  
ATOM     19  O3*   A A   1      -9.649   6.480  70.618  1.00  0.00    -0.171 OA 
ATOM     20  H3*   A A   1     -10.081   6.393  71.459  1.00  0.00     0.000 HD 
ATOM     21  O2*   A A   1     -10.651   9.363  71.647  1.00  0.00    -0.340 OA 
BRANCH  15  22
ATOM     22  C5*   A A   1     -10.407   7.752  67.416  1.00  0.00    -0.284 C  
ATOM     23  O5*   A A   1     -11.498   6.893  67.739  1.00  0.00    -0.548 OA 
ATOM     24  H5*   A A   1     -12.119   6.867  67.021  1.00  0.00     0.000 HD 
ENDBRANCH  15  22
ENDBRANCH  12  13
TORSDOF 2
ENDMDL
MODEL      107
REMARK 921   NORMALIZED FREE ENERGY PREDICTED BY IDOCK:   -4.61 KCAL/MOL
REMARK 922        TOTAL FREE ENERGY PREDICTED BY IDOCK:   -5.22 KCAL/MOL
REMARK 923 INTER-LIGAND FREE ENERGY PREDICTED BY IDOCK:   -5.91 KCAL/MOL
REMARK 924 INTRA-LIGAND FREE ENERGY PREDICTED BY IDOCK:    0.69 KCAL/MOL
REMARK 927      BINDING AFFINITY PREDICTED BY RF-SCORE:    0.00 PKD
ROOT
ATOM      1  N6    A A   1      -5.857  14.205  69.979  1.00  0.00    -0.122 NA 
ATOM      2  C6    A A   1      -6.724  15.173  69.488  1.00  0.00    -0.171 A  
ATOM      3  H62   A A   1      -5.662  14.401  70.961  1.00  0.00     0.000 HD 
ATOM      4  H61   A A   1      -6.119  13.224  69.882  1.00  0.00     0.000 HD 
ATOM      5  N1    A A   1      -6.378  16.471  69.616  1.00  0.00    -0.219 NA 
ATOM      6  C2    A A   1      -7.222  17.410  69.137  1.00  0.00    -0.175 A  
ATOM      7  N3    A A   1      -8.409  17.234  68.507  1.00  0.00    -0.260 NA 
ATOM      8  C4    A A   1      -8.710  15.928  68.407  1.00  0.00    -0.183 A  
ATOM      9  C5    A A   1      -7.933  14.861  68.847  1.00  0.00    -0.163 A  
ATOM     10  N7    A A   1      -8.525  13.658  68.535  1.00  0.00    -0.143 NA 
ATOM     11  C8    A A   1      -9.645  13.985  67.934  1.00  0.00    -0.221 A  
ATOM     12  N9    A A   1      -9.814  15.350  67.845  1.00  0.00    -0.219 NA 
ENDROOT
BRANCH  12  13
ATOM     13  C1*   A A   1     -10.967  15.940  67.206  1.00  0.00    -0.234 C  
ATOM     14  O4*   A A   1     -11.827  14.845  66.812  1.00  0.00    -0.304 OA 
ATOM     15  C4*   A A   1     -11.593  14.578  65.404  1.00  0.00    -0.355 C  
ATOM     16  C3*   A A   1     -10.939  15.823  64.796  1.00  0.00    -0.393 C  
ATOM     17  H2*   A A   1      -9.753  18.288  65.110  1.00  0.00     0.000 HD 
ATOM     18  C2*   A A   1     -10.876  16.814  65.955  1.00  0.00    -0.053 C  
ATOM     19  O3*   A A   1     -11.729  16.338  63.717  1.00  0.00    -1.511 OA 
ATOM     20  H3*   A A   1     -11.323  17.109  63.341  1.00  0.00     0.000 HD 
ATOM     21  O2*   A A   1      -9.810  17.745  65.887  1.00  0.00    -0.524 OA 
BRANCH  15  22
ATOM     22  C5*   A A   1     -10.694  13.342  65.267  1.00  0.00    -0.313 C  
ATOM     23  O5*   A A   1     -11.423  12.162  65.594  1.00  0.00    -0.347 OA 
ATOM     24  H5*   A A   1     -10.867  11.397  65.510  1.00  0.00     0.000 HD 
ENDBRANCH  15  22
ENDBRANCH  12  13
TORSDOF 2
ENDMDL
MODEL      108
REMARK 921   NORMALIZED FREE ENERGY PREDICTED BY IDOCK:   -4.59 KCAL/MOL
REMARK 922        TOTAL FREE ENERGY PREDICTED BY IDOCK:   -5.20 KCAL/MOL
REMARK 923 INTER-LIGAND FREE ENERGY PREDICTED BY IDOCK:   -5.23 KCAL/MOL
REMARK 924 INTRA-LIGAND FREE ENERGY PREDICTED BY IDOCK:    0.03 KCAL/MOL
REMARK 927      BINDING AFFINITY PREDICTED BY RF-SCORE:    0.00 PKD
ROOT
ATOM      1  N6    A A   1      -9.647   7.624  65.978  1.00  0.00    -0.432 NA 
ATOM      2  C6    A A   1      -9.923   8.542  66.985  1.00  0.00    -0.250 A  
ATOM      3  H62   A A   1     -10.444   6.997  65.874  1.00  0.00     0.000 HD 
ATOM      4  H61   A A   1      -9.381   7.977  65.059  1.00  0.00     0.000 HD 
ATOM      5  N1    A A   1     -10.275   8.075  68.201  1.00  0.00    -0.201 NA 
ATOM      6  C2    A A   1     -10.541   8.969  69.178  1.00  0.00    -0.203 A  
ATOM      7  N3    A A   1     -10.490  10.321  69.120  1.00  0.00    -0.209 NA 
ATOM      8  C4    A A   1     -10.137  10.735  67.891  1.00  0.00    -0.172 A  
ATOM      9  C5    A A   1      -9.830   9.930  66.799  1.00  0.00    -0.201 A  
ATOM     10  N7    A A   1      -9.462  10.690  65.712  1.00  0.00    -0.190 NA 
ATOM     11  C8    A A   1      -9.560  11.931  66.127  1.00  0.00    -0.234 A  
ATOM     12  N9    A A   1      -9.983  12.016  67.436  1.00  0.00    -0.190 NA 
ENDROOT
BRANCH  12  13
ATOM     13  C1*   A A   1     -10.145  13.283  68.110  1.00  0.00    -0.241 C  
ATOM     14  O4*   A A   1     -11.568  13.538  68.173  1.00  0.00    -0.291 OA 
ATOM     15  C4*   A A   1     -11.910  14.442  67.090  1.00  0.00    -0.410 C  
ATOM     16  C3*   A A   1     -10.621  15.138  66.641  1.00  0.00    -0.304 C  
ATOM     17  H2*   A A   1      -7.877  15.359  66.721  1.00  0.00     0.000 HD 
ATOM     18  C2*   A A   1      -9.554  14.593  67.586  1.00  0.00    -0.212 C  
ATOM     19  O3*   A A   1     -10.741  16.560  66.762  1.00  0.00    -0.267 OA 
ATOM     20  H3*   A A   1      -9.942  16.991  66.484  1.00  0.00     0.000 HD 
ATOM     21  O2*   A A   1      -8.245  14.545  67.046  1.00  0.00    -0.200 OA 
BRANCH  15  22
ATOM     22  C5*   A A   1     -12.549  13.643  65.947  1.00  0.00    -0.425 C  
ATOM     23  O5*   A A   1     -12.627  14.442  64.770  1.00  0.00    -0.598 OA 
ATOM     24  H5*   A A   1     -13.023  13.947  64.062  1.00  0.00     0.000 HD 
ENDBRANCH  15  22
ENDBRANCH  12  13
TORSDOF 2
ENDMDL
MODEL      109
REMARK 921   NORMALIZED FREE ENERGY PREDICTED BY IDOCK:   -4.57 KCAL/MOL
REMARK 922        TOTAL FREE ENERGY PREDICTED BY IDOCK:   -5.17 KCAL/MOL
REMARK 923 INTER-LIGAND FREE ENERGY PREDICTED BY IDOCK:   -5.58 KCAL/MOL
REMARK 924 INTRA-LIGAND FREE ENERGY PREDICTED BY IDOCK:    0.41 KCAL/MOL
REMARK 927      BINDING AFFINITY PREDICTED BY RF-SCORE:    0.00 PKD
ROOT
ATOM      1  N6    A A   1     -14.234  14.892  73.036  1.00  0.00    -0.238 NA 
ATOM      2  C6    A A   1     -13.591  14.040  72.146  1.00  0.00    -0.489 A  
ATOM      3  H62   A A   1     -13.904  14.695  73.981  1.00  0.00     0.000 HD 
ATOM      4  H61   A A   1     -14.183  15.897  72.870  1.00  0.00     0.000 HD 
ATOM      5  N1    A A   1     -13.659  12.711  72.366  1.00  0.00    -0.481 NA 
ATOM      6  C2    A A   1     -13.033  11.886  71.499  1.00  0.00    -0.323 A  
ATOM      7  N3    A A   1     -12.332  12.207  70.385  1.00  0.00    -0.276 NA 
ATOM      8  C4    A A   1     -12.292  13.539  70.212  1.00  0.00    -0.300 A  
ATOM      9  C5    A A   1     -12.893  14.500  71.018  1.00  0.00    -0.350 A  
ATOM     10  N7    A A   1     -12.689  15.765  70.516  1.00  0.00    -0.400 NA 
ATOM     11  C8    A A   1     -11.965  15.580  69.436  1.00  0.00    -0.336 A  
ATOM     12  N9    A A   1     -11.681  14.250  69.216  1.00  0.00    -0.299 NA 
ENDROOT
BRANCH  12  13
ATOM     13  C1*   A A   1     -10.911  13.808  68.076  1.00  0.00    -0.250 C  
ATOM     14  O4*   A A   1      -9.518  13.925  68.448  1.00  0.00    -0.213 OA 
ATOM     15  C4*   A A   1      -9.010  15.168  67.895  1.00  0.00    -0.174 C  
ATOM     16  C3*   A A   1      -9.955  15.595  66.767  1.00  0.00    -0.250 C  
ATOM     17  H2*   A A   1     -12.318  15.286  65.390  1.00  0.00     0.000 HD 
ATOM     18  C2*   A A   1     -10.989  14.476  66.703  1.00  0.00    -0.321 C  
ATOM     19  O3*   A A   1      -9.246  15.717  65.528  1.00  0.00    -0.280 OA 
ATOM     20  H3*   A A   1      -9.832  15.982  64.829  1.00  0.00     0.000 HD 
ATOM     21  O2*   A A   1     -12.270  14.871  66.243  1.00  0.00    -0.104 OA 
BRANCH  15  22
ATOM     22  C5*   A A   1      -8.940  16.224  69.006  1.00  0.00    -0.254 C  
ATOM     23  O5*   A A   1      -7.765  17.016  68.860  1.00  0.00    -0.244 OA 
ATOM     24  H5*   A A   1      -7.721  17.670  69.548  1.00  0.00     0.000 HD 
ENDBRANCH  15  22
ENDBRANCH  12  13
TORSDOF 2
ENDMDL
MODEL      110
REMARK 921   NORMALIZED FREE ENERGY PREDICTED BY IDOCK:   -4.57 KCAL/MOL
REMARK 922        TOTAL FREE ENERGY PREDICTED BY IDOCK:   -5.17 KCAL/MOL
REMARK 923 INTER-LIGAND FREE ENERGY PREDICTED BY IDOCK:   -5.30 KCAL/MOL
REMARK 924 INTRA-LIGAND FREE ENERGY PREDICTED BY IDOCK:    0.13 KCAL/MOL
REMARK 927      BINDING AFFINITY PREDICTED BY RF-SCORE:    0.00 PKD
ROOT
ATOM      1  N6    A A   1      -6.480  18.748  69.185  1.00  0.00    -0.269 NA 
ATOM      2  C6    A A   1      -7.153  17.535  69.096  1.00  0.00    -0.195 A  
ATOM      3  H62   A A   1      -5.614  18.686  68.651  1.00  0.00     0.000 HD 
ATOM      4  H61   A A   1      -6.975  19.599  68.918  1.00  0.00     0.000 HD 
ATOM      5  N1    A A   1      -6.499  16.409  69.450  1.00  0.00    -0.196 NA 
ATOM      6  C2    A A   1      -7.156  15.232  69.363  1.00  0.00    -0.191 A  
ATOM      7  N3    A A   1      -8.434  15.007  68.973  1.00  0.00    -0.194 NA 
ATOM      8  C4    A A   1      -9.040  16.156  68.630  1.00  0.00    -0.218 A  
ATOM      9  C5    A A   1      -8.489  17.432  68.676  1.00  0.00    -0.257 A  
ATOM     10  N7    A A   1      -9.411  18.383  68.302  1.00  0.00    -0.314 NA 
ATOM     11  C8    A A   1     -10.495  17.700  68.017  1.00  0.00    -0.394 A  
ATOM     12  N9    A A   1     -10.319  16.343  68.182  1.00  0.00    -0.271 NA 
ENDROOT
BRANCH  12  13
ATOM     13  C1*   A A   1     -11.383  15.396  67.943  1.00  0.00    -0.325 C  
ATOM     14  O4*   A A   1     -12.337  15.567  69.018  1.00  0.00    -0.190 OA 
ATOM     15  C4*   A A   1     -12.085  14.535  70.007  1.00  0.00    -0.339 C  
ATOM     16  C3*   A A   1     -11.287  13.420  69.324  1.00  0.00    -0.257 C  
ATOM     17  H2*   A A   1      -9.866  12.487  67.159  1.00  0.00     0.000 HD 
ATOM     18  C2*   A A   1     -11.162  13.885  67.876  1.00  0.00    -0.278 C  
ATOM     19  O3*   A A   1     -11.984  12.171  69.408  1.00  0.00    -0.303 OA 
ATOM     20  H3*   A A   1     -11.489  11.480  68.984  1.00  0.00     0.000 HD 
ATOM     21  O2*   A A   1     -10.004  13.426  67.200  1.00  0.00    -0.235 OA 
BRANCH  15  22
ATOM     22  C5*   A A   1     -11.313  15.144  71.186  1.00  0.00    -0.318 C  
ATOM     23  O5*   A A   1     -11.507  16.555  71.227  1.00  0.00    -0.554 OA 
ATOM     24  H5*   A A   1     -11.029  16.932  71.956  1.00  0.00     0.000 HD 
ENDBRANCH  15  22
ENDBRANCH  12  13
TORSDOF 2
ENDMDL
MODEL      111
REMARK 921   NORMALIZED FREE ENERGY PREDICTED BY IDOCK:   -4.55 KCAL/MOL
REMARK 922        TOTAL FREE ENERGY PREDICTED BY IDOCK:   -5.14 KCAL/MOL
REMARK 923 INTER-LIGAND FREE ENERGY PREDICTED BY IDOCK:   -5.62 KCAL/MOL
REMARK 924 INTRA-LIGAND FREE ENERGY PREDICTED BY IDOCK:    0.47 KCAL/MOL
REMARK 927      BINDING AFFINITY PREDICTED BY RF-SCORE:    0.00 PKD
ROOT
ATOM      1  N6    A A   1     -10.198  13.258  67.209  1.00  0.00    -0.239 NA 
ATOM      2  C6    A A   1      -9.370  14.351  67.433  1.00  0.00    -0.199 A  
ATOM      3  H62   A A   1      -9.807  12.443  67.681  1.00  0.00     0.000 HD 
ATOM      4  H61   A A   1     -11.186  13.340  67.451  1.00  0.00     0.000 HD 
ATOM      5  N1    A A   1      -8.063  14.244  67.113  1.00  0.00    -0.170 NA 
ATOM      6  C2    A A   1      -7.260  15.307  67.332  1.00  0.00    -0.204 A  
ATOM      7  N3    A A   1      -7.589  16.523  67.830  1.00  0.00    -0.149 NA 
ATOM      8  C4    A A   1      -8.897  16.579  68.135  1.00  0.00    -0.203 A  
ATOM      9  C5    A A   1      -9.835  15.567  67.957  1.00  0.00    -0.212 A  
ATOM     10  N7    A A   1     -11.091  15.987  68.330  1.00  0.00    -0.336 NA 
ATOM     11  C8    A A   1     -10.920  17.221  68.742  1.00  0.00    -0.040 A  
ATOM     12  N9    A A   1      -9.604  17.624  68.662  1.00  0.00    -0.304 NA 
ENDROOT
BRANCH  12  13
ATOM     13  C1*   A A   1      -9.183  18.952  69.045  1.00  0.00    -0.184 C  
ATOM     14  O4*   A A   1     -10.086  19.876  68.394  1.00  0.00    -0.428 OA 
ATOM     15  C4*   A A   1      -9.432  20.370  67.195  1.00  0.00    -0.429 C  
ATOM     16  C3*   A A   1      -7.928  20.126  67.352  1.00  0.00    -0.322 C  
ATOM     17  H2*   A A   1      -5.826  18.981  68.712  1.00  0.00     0.000 HD 
ATOM     18  C2*   A A   1      -7.792  19.510  68.741  1.00  0.00    -0.342 C  
ATOM     19  O3*   A A   1      -7.200  21.356  67.258  1.00  0.00    -0.751 OA 
ATOM     20  H3*   A A   1      -6.267  21.205  67.355  1.00  0.00     0.000 HD 
ATOM     21  O2*   A A   1      -6.690  18.634  68.901  1.00  0.00    -0.255 OA 
BRANCH  15  22
ATOM     22  C5*   A A   1     -10.000  19.639  65.972  1.00  0.00    -0.422 C  
ATOM     23  O5*   A A   1      -9.269  18.441  65.729  1.00  0.00    -0.431 OA 
ATOM     24  H5*   A A   1      -9.620  17.988  64.972  1.00  0.00     0.000 HD 
ENDBRANCH  15  22
ENDBRANCH  12  13
TORSDOF 2
ENDMDL
MODEL      112
REMARK 921   NORMALIZED FREE ENERGY PREDICTED BY IDOCK:   -4.54 KCAL/MOL
REMARK 922        TOTAL FREE ENERGY PREDICTED BY IDOCK:   -5.14 KCAL/MOL
REMARK 923 INTER-LIGAND FREE ENERGY PREDICTED BY IDOCK:   -6.11 KCAL/MOL
REMARK 924 INTRA-LIGAND FREE ENERGY PREDICTED BY IDOCK:    0.97 KCAL/MOL
REMARK 927      BINDING AFFINITY PREDICTED BY RF-SCORE:    0.00 PKD
ROOT
ATOM      1  N6    A A   1      -9.505  21.085  67.002  1.00  0.00    -0.664 NA 
ATOM      2  C6    A A   1      -8.818  19.929  66.648  1.00  0.00    -0.358 A  
ATOM      3  H62   A A   1      -9.526  21.717  66.202  1.00  0.00     0.000 HD 
ATOM      4  H61   A A   1     -10.449  20.993  67.378  1.00  0.00     0.000 HD 
ATOM      5  N1    A A   1      -7.569  20.051  66.152  1.00  0.00    -0.311 NA 
ATOM      6  C2    A A   1      -6.905  18.926  65.808  1.00  0.00    -0.272 A  
ATOM      7  N3    A A   1      -7.316  17.639  65.908  1.00  0.00    -0.483 NA 
ATOM      8  C4    A A   1      -8.564  17.572  66.404  1.00  0.00    -0.240 A  
ATOM      9  C5    A A   1      -9.358  18.643  66.803  1.00  0.00    -0.308 A  
ATOM     10  N7    A A   1     -10.560  18.205  67.310  1.00  0.00    -0.390 NA 
ATOM     11  C8    A A   1     -10.507  16.897  67.207  1.00  0.00    -0.301 A  
ATOM     12  N9    A A   1      -9.325  16.462  66.647  1.00  0.00    -0.243 NA 
ENDROOT
BRANCH  12  13
ATOM     13  C1*   A A   1      -9.038  15.060  66.452  1.00  0.00    -0.277 C  
ATOM     14  O4*   A A   1     -10.276  14.441  66.030  1.00  0.00    -0.290 OA 
ATOM     15  C4*   A A   1     -10.883  13.818  67.192  1.00  0.00    -0.283 C  
ATOM     16  C3*   A A   1      -9.787  13.631  68.246  1.00  0.00    -0.232 C  
ATOM     17  H2*   A A   1      -7.225  14.111  69.134  1.00  0.00     0.000 HD 
ATOM     18  C2*   A A   1      -8.523  14.147  67.565  1.00  0.00    -0.187 C  
ATOM     19  O3*   A A   1      -9.655  12.251  68.605  1.00  0.00    -0.354 OA 
ATOM     20  H3*   A A   1      -8.975  12.135  69.258  1.00  0.00     0.000 HD 
ATOM     21  O2*   A A   1      -7.546  14.679  68.442  1.00  0.00    -0.106 OA 
BRANCH  15  22
ATOM     22  C5*   A A   1     -12.019  14.711  67.708  1.00  0.00    -0.268 C  
ATOM     23  O5*   A A   1     -12.304  14.409  69.071  1.00  0.00    -0.541 OA 
ATOM     24  H5*   A A   1     -13.008  14.962  69.391  1.00  0.00     0.000 HD 
ENDBRANCH  15  22
ENDBRANCH  12  13
TORSDOF 2
ENDMDL
MODEL      113
REMARK 921   NORMALIZED FREE ENERGY PREDICTED BY IDOCK:   -4.53 KCAL/MOL
REMARK 922        TOTAL FREE ENERGY PREDICTED BY IDOCK:   -5.13 KCAL/MOL
REMARK 923 INTER-LIGAND FREE ENERGY PREDICTED BY IDOCK:   -5.17 KCAL/MOL
REMARK 924 INTRA-LIGAND FREE ENERGY PREDICTED BY IDOCK:    0.04 KCAL/MOL
REMARK 927      BINDING AFFINITY PREDICTED BY RF-SCORE:    0.00 PKD
ROOT
ATOM      1  N6    A A   1     -12.183  12.631  66.916  1.00  0.00    -0.454 NA 
ATOM      2  C6    A A   1     -11.284  11.920  67.702  1.00  0.00    -0.276 A  
ATOM      3  H62   A A   1     -12.094  12.322  65.948  1.00  0.00     0.000 HD 
ATOM      4  H61   A A   1     -13.169  12.624  67.178  1.00  0.00     0.000 HD 
ATOM      5  N1    A A   1      -9.979  11.930  67.356  1.00  0.00    -0.189 NA 
ATOM      6  C2    A A   1      -9.109  11.238  68.122  1.00  0.00    -0.166 A  
ATOM      7  N3    A A   1      -9.357  10.518  69.242  1.00  0.00    -0.189 NA 
ATOM      8  C4    A A   1     -10.667  10.537  69.543  1.00  0.00    -0.255 A  
ATOM      9  C5    A A   1     -11.669  11.209  68.850  1.00  0.00    -0.337 A  
ATOM     10  N7    A A   1     -12.889  11.051  69.467  1.00  0.00    -0.081 NA 
ATOM     11  C8    A A   1     -12.639  10.286  70.504  1.00  0.00    -0.258 A  
ATOM     12  N9    A A   1     -11.310   9.930  70.586  1.00  0.00    -0.312 NA 
ENDROOT
BRANCH  12  13
ATOM     13  C1*   A A   1     -10.801   9.104  71.657  1.00  0.00    -0.372 C  
ATOM     14  O4*   A A   1      -9.897   8.152  71.049  1.00  0.00    -0.175 OA 
ATOM     15  C4*   A A   1     -10.615   6.904  70.869  1.00  0.00    -0.218 C  
ATOM     16  C3*   A A   1     -11.827   6.925  71.807  1.00  0.00    -0.316 C  
ATOM     17  H2*   A A   1     -13.480   8.286  73.537  1.00  0.00     0.000 HD 
ATOM     18  C2*   A A   1     -11.697   8.249  72.554  1.00  0.00    -0.383 C  
ATOM     19  O3*   A A   1     -11.790   5.815  72.712  1.00  0.00    -0.504 OA 
ATOM     20  H3*   A A   1     -12.541   5.828  73.293  1.00  0.00     0.000 HD 
ATOM     21  O2*   A A   1     -12.924   8.818  72.980  1.00  0.00    -0.286 OA 
BRANCH  15  22
ATOM     22  C5*   A A   1     -11.038   6.772  69.400  1.00  0.00    -0.261 C  
ATOM     23  O5*   A A   1      -9.906   6.913  68.546  1.00  0.00    -0.141 OA 
ATOM     24  H5*   A A   1     -10.168   6.832  67.637  1.00  0.00     0.000 HD 
ENDBRANCH  15  22
ENDBRANCH  12  13
TORSDOF 2
ENDMDL
MODEL      114
REMARK 921   NORMALIZED FREE ENERGY PREDICTED BY IDOCK:   -4.51 KCAL/MOL
REMARK 922        TOTAL FREE ENERGY PREDICTED BY IDOCK:   -5.11 KCAL/MOL
REMARK 923 INTER-LIGAND FREE ENERGY PREDICTED BY IDOCK:   -5.31 KCAL/MOL
REMARK 924 INTRA-LIGAND FREE ENERGY PREDICTED BY IDOCK:    0.20 KCAL/MOL
REMARK 927      BINDING AFFINITY PREDICTED BY RF-SCORE:    0.00 PKD
ROOT
ATOM      1  N6    A A   1     -11.631  13.941  63.689  1.00  0.00    -0.576 NA 
ATOM      2  C6    A A   1     -10.966  14.322  64.849  1.00  0.00    -0.404 A  
ATOM      3  H62   A A   1     -12.364  13.274  63.931  1.00  0.00     0.000 HD 
ATOM      4  H61   A A   1     -12.028  14.669  63.095  1.00  0.00     0.000 HD 
ATOM      5  N1    A A   1     -10.441  13.359  65.635  1.00  0.00    -0.284 NA 
ATOM      6  C2    A A   1      -9.795  13.733  66.761  1.00  0.00    -0.275 A  
ATOM      7  N3    A A   1      -9.573  14.984  67.230  1.00  0.00    -0.205 NA 
ATOM      8  C4    A A   1     -10.116  15.905  66.415  1.00  0.00    -0.292 A  
ATOM      9  C5    A A   1     -10.799  15.664  65.227  1.00  0.00    -0.406 A  
ATOM     10  N7    A A   1     -11.174  16.843  64.624  1.00  0.00    -0.956 NA 
ATOM     11  C8    A A   1     -10.744  17.781  65.435  1.00  0.00     0.086 A  
ATOM     12  N9    A A   1     -10.111  17.266  66.546  1.00  0.00    -0.298 NA 
ENDROOT
BRANCH  12  13
ATOM     13  C1*   A A   1      -9.542  18.114  67.568  1.00  0.00    -0.280 C  
ATOM     14  O4*   A A   1      -8.517  18.906  66.922  1.00  0.00    -0.269 OA 
ATOM     15  C4*   A A   1      -7.234  18.280  67.189  1.00  0.00    -0.200 C  
ATOM     16  C3*   A A   1      -7.407  17.366  68.406  1.00  0.00    -0.227 C  
ATOM     17  H2*   A A   1      -9.038  16.120  70.241  1.00  0.00     0.000 HD 
ATOM     18  C2*   A A   1      -8.860  17.571  68.824  1.00  0.00    -0.215 C  
ATOM     19  O3*   A A   1      -6.509  17.743  69.457  1.00  0.00    -0.245 OA 
ATOM     20  H3*   A A   1      -6.616  17.176  70.212  1.00  0.00     0.000 HD 
ATOM     21  O2*   A A   1      -9.461  16.457  69.461  1.00  0.00    -0.168 OA 
BRANCH  15  22
ATOM     22  C5*   A A   1      -6.788  17.494  65.949  1.00  0.00    -0.167 C  
ATOM     23  O5*   A A   1      -6.738  16.100  66.240  1.00  0.00     0.070 OA 
ATOM     24  H5*   A A   1      -6.462  15.613  65.473  1.00  0.00     0.000 HD 
ENDBRANCH  15  22
ENDBRANCH  12  13
TORSDOF 2
ENDMDL
MODEL      115
REMARK 921   NORMALIZED FREE ENERGY PREDICTED BY IDOCK:   -4.48 KCAL/MOL
REMARK 922        TOTAL FREE ENERGY PREDICTED BY IDOCK:   -5.07 KCAL/MOL
REMARK 923 INTER-LIGAND FREE ENERGY PREDICTED BY IDOCK:   -5.48 KCAL/MOL
REMARK 924 INTRA-LIGAND FREE ENERGY PREDICTED BY IDOCK:    0.41 KCAL/MOL
REMARK 927      BINDING AFFINITY PREDICTED BY RF-SCORE:    0.00 PKD
ROOT
ATOM      1  N6    A A   1      -9.943  19.103  68.625  1.00  0.00    -0.402 NA 
ATOM      2  C6    A A   1     -10.142  17.727  68.632  1.00  0.00    -0.384 A  
ATOM      3  H62   A A   1      -9.507  19.379  69.504  1.00  0.00     0.000 HD 
ATOM      4  H61   A A   1      -9.421  19.514  67.851  1.00  0.00     0.000 HD 
ATOM      5  N1    A A   1     -10.833  17.183  69.655  1.00  0.00    -0.027 NA 
ATOM      6  C2    A A   1     -11.024  15.846  69.659  1.00  0.00    -0.319 A  
ATOM      7  N3    A A   1     -10.623  14.934  68.741  1.00  0.00    -0.239 NA 
ATOM      8  C4    A A   1      -9.939  15.524  67.746  1.00  0.00    -0.222 A  
ATOM      9  C5    A A   1      -9.674  16.883  67.612  1.00  0.00    -0.249 A  
ATOM     10  N7    A A   1      -8.992  17.142  66.445  1.00  0.00    -0.310 NA 
ATOM     11  C8    A A   1      -8.830  15.964  65.888  1.00  0.00    -0.133 A  
ATOM     12  N9    A A   1      -9.370  14.946  66.645  1.00  0.00    -0.252 NA 
ENDROOT
BRANCH  12  13
ATOM     13  C1*   A A   1      -9.325  13.567  66.219  1.00  0.00    -0.125 C  
ATOM     14  O4*   A A   1     -10.198  13.461  65.070  1.00  0.00    -0.330 OA 
ATOM     15  C4*   A A   1     -11.474  12.937  65.524  1.00  0.00    -0.326 C  
ATOM     16  C3*   A A   1     -11.243  12.259  66.878  1.00  0.00    -0.312 C  
ATOM     17  H2*   A A   1      -9.613  11.728  69.033  1.00  0.00     0.000 HD 
ATOM     18  C2*   A A   1      -9.742  12.399  67.115  1.00  0.00    -0.207 C  
ATOM     19  O3*   A A   1     -11.632  10.881  66.831  1.00  0.00    -0.327 OA 
ATOM     20  H3*   A A   1     -11.489  10.461  67.670  1.00  0.00     0.000 HD 
ATOM     21  O2*   A A   1      -9.354  12.454  68.477  1.00  0.00    -0.178 OA 
BRANCH  15  22
ATOM     22  C5*   A A   1     -12.483  14.088  65.632  1.00  0.00    -0.504 C  
ATOM     23  O5*   A A   1     -12.691  14.683  64.354  1.00  0.00    -0.636 OA 
ATOM     24  H5*   A A   1     -13.316  15.395  64.421  1.00  0.00     0.000 HD 
ENDBRANCH  15  22
ENDBRANCH  12  13
TORSDOF 2
ENDMDL
MODEL      116
REMARK 921   NORMALIZED FREE ENERGY PREDICTED BY IDOCK:   -4.48 KCAL/MOL
REMARK 922        TOTAL FREE ENERGY PREDICTED BY IDOCK:   -5.07 KCAL/MOL
REMARK 923 INTER-LIGAND FREE ENERGY PREDICTED BY IDOCK:   -5.77 KCAL/MOL
REMARK 924 INTRA-LIGAND FREE ENERGY PREDICTED BY IDOCK:    0.70 KCAL/MOL
REMARK 927      BINDING AFFINITY PREDICTED BY RF-SCORE:    0.00 PKD
ROOT
ATOM      1  N6    A A   1     -12.089  12.659  67.890  1.00  0.00    -0.338 NA 
ATOM      2  C6    A A   1     -11.692  13.600  66.947  1.00  0.00    -0.389 A  
ATOM      3  H62   A A   1     -11.845  11.728  67.553  1.00  0.00     0.000 HD 
ATOM      4  H61   A A   1     -11.758  12.763  68.849  1.00  0.00     0.000 HD 
ATOM      5  N1    A A   1     -12.131  13.463  65.679  1.00  0.00    -0.407 NA 
ATOM      6  C2    A A   1     -11.743  14.379  64.765  1.00  0.00    -0.416 A  
ATOM      7  N3    A A   1     -10.960  15.469  64.943  1.00  0.00    -0.439 NA 
ATOM      8  C4    A A   1     -10.547  15.559  66.219  1.00  0.00    -0.307 A  
ATOM      9  C5    A A   1     -10.873  14.696  67.260  1.00  0.00    -0.305 A  
ATOM     10  N7    A A   1     -10.316  15.119  68.446  1.00  0.00    -0.225 NA 
ATOM     11  C8    A A   1      -9.653  16.207  68.131  1.00  0.00    -0.217 A  
ATOM     12  N9    A A   1      -9.745  16.509  66.789  1.00  0.00    -0.247 NA 
ENDROOT
BRANCH  12  13
ATOM     13  C1*   A A   1      -9.108  17.673  66.219  1.00  0.00    -0.186 C  
ATOM     14  O4*   A A   1      -8.119  18.114  67.179  1.00  0.00    -0.215 OA 
ATOM     15  C4*   A A   1      -8.692  19.208  67.942  1.00  0.00    -0.305 C  
ATOM     16  C3*   A A   1      -9.866  19.772  67.135  1.00  0.00    -0.386 C  
ATOM     17  H2*   A A   1     -11.608  19.589  65.011  1.00  0.00     0.000 HD 
ATOM     18  C2*   A A   1      -9.867  18.948  65.851  1.00  0.00    -0.065 C  
ATOM     19  O3*   A A   1      -9.670  21.164  66.857  1.00  0.00    -0.586 OA 
ATOM     20  H3*   A A   1     -10.397  21.514  66.357  1.00  0.00     0.000 HD 
ATOM     21  O2*   A A   1     -11.136  18.796  65.240  1.00  0.00    -0.399 OA 
BRANCH  15  22
ATOM     22  C5*   A A   1      -9.146  18.685  69.311  1.00  0.00     0.158 C  
ATOM     23  O5*   A A   1     -10.199  19.496  69.826  1.00  0.00    -0.500 OA 
ATOM     24  H5*   A A   1     -10.480  19.172  70.673  1.00  0.00     0.000 HD 
ENDBRANCH  15  22
ENDBRANCH  12  13
TORSDOF 2
ENDMDL
MODEL      117
REMARK 921   NORMALIZED FREE ENERGY PREDICTED BY IDOCK:   -4.43 KCAL/MOL
REMARK 922        TOTAL FREE ENERGY PREDICTED BY IDOCK:   -5.02 KCAL/MOL
REMARK 923 INTER-LIGAND FREE ENERGY PREDICTED BY IDOCK:   -4.98 KCAL/MOL
REMARK 924 INTRA-LIGAND FREE ENERGY PREDICTED BY IDOCK:   -0.04 KCAL/MOL
REMARK 927      BINDING AFFINITY PREDICTED BY RF-SCORE:    0.00 PKD
ROOT
ATOM      1  N6    A A   1      -9.959   7.679  69.956  1.00  0.00    -0.188 NA 
ATOM      2  C6    A A   1     -10.101   8.507  68.848  1.00  0.00    -0.203 A  
ATOM      3  H62   A A   1      -8.984   7.390  70.030  1.00  0.00     0.000 HD 
ATOM      4  H61   A A   1     -10.273   8.024  70.863  1.00  0.00     0.000 HD 
ATOM      5  N1    A A   1      -9.686   8.051  67.648  1.00  0.00    -0.151 NA 
ATOM      6  C2    A A   1      -9.826   8.858  66.574  1.00  0.00    -0.274 A  
ATOM      7  N3    A A   1     -10.358  10.102  66.516  1.00  0.00    -0.223 NA 
ATOM      8  C4    A A   1     -10.754  10.510  67.735  1.00  0.00    -0.272 A  
ATOM      9  C5    A A   1     -10.677   9.785  68.919  1.00  0.00    -0.217 A  
ATOM     10  N7    A A   1     -11.221  10.492  69.967  1.00  0.00    -0.295 NA 
ATOM     11  C8    A A   1     -11.606  11.629  69.437  1.00  0.00    -0.327 A  
ATOM     12  N9    A A   1     -11.330  11.699  68.088  1.00  0.00    -0.266 NA 
ENDROOT
BRANCH  12  13
ATOM     13  C1*   A A   1     -11.682  12.852  67.292  1.00  0.00    -0.373 C  
ATOM     14  O4*   A A   1     -10.667  12.971  66.267  1.00  0.00    -0.272 OA 
ATOM     15  C4*   A A   1      -9.709  13.972  66.700  1.00  0.00    -0.289 C  
ATOM     16  C3*   A A   1     -10.386  14.829  67.775  1.00  0.00    -0.244 C  
ATOM     17  H2*   A A   1     -12.490  15.277  69.493  1.00  0.00     0.000 HD 
ATOM     18  C2*   A A   1     -11.800  14.263  67.867  1.00  0.00    -0.358 C  
ATOM     19  O3*   A A   1     -10.404  16.208  67.390  1.00  0.00    -0.281 OA 
ATOM     20  H3*   A A   1     -10.823  16.739  68.056  1.00  0.00     0.000 HD 
ATOM     21  O2*   A A   1     -12.416  14.400  69.136  1.00  0.00    -0.186 OA 
BRANCH  15  22
ATOM     22  C5*   A A   1      -8.456  13.271  67.241  1.00  0.00    -0.201 C  
ATOM     23  O5*   A A   1      -7.990  12.301  66.306  1.00  0.00    -0.357 OA 
ATOM     24  H5*   A A   1      -7.214  11.867  66.641  1.00  0.00     0.000 HD 
ENDBRANCH  15  22
ENDBRANCH  12  13
TORSDOF 2
ENDMDL
MODEL      118
REMARK 921   NORMALIZED FREE ENERGY PREDICTED BY IDOCK:   -4.40 KCAL/MOL
REMARK 922        TOTAL FREE ENERGY PREDICTED BY IDOCK:   -4.98 KCAL/MOL
REMARK 923 INTER-LIGAND FREE ENERGY PREDICTED BY IDOCK:   -5.08 KCAL/MOL
REMARK 924 INTRA-LIGAND FREE ENERGY PREDICTED BY IDOCK:    0.10 KCAL/MOL
REMARK 927      BINDING AFFINITY PREDICTED BY RF-SCORE:    0.00 PKD
ROOT
ATOM      1  N6    A A   1     -11.553  12.466  69.388  1.00  0.00    -0.304 NA 
ATOM      2  C6    A A   1     -11.543  11.307  70.154  1.00  0.00    -0.305 A  
ATOM      3  H62   A A   1     -11.770  13.259  69.989  1.00  0.00     0.000 HD 
ATOM      4  H61   A A   1     -10.728  12.687  68.830  1.00  0.00     0.000 HD 
ATOM      5  N1    A A   1     -12.634  11.013  70.891  1.00  0.00    -0.377 NA 
ATOM      6  C2    A A   1     -12.621   9.886  71.635  1.00  0.00    -0.424 A  
ATOM      7  N3    A A   1     -11.640   8.958  71.743  1.00  0.00    -0.328 NA 
ATOM      8  C4    A A   1     -10.576   9.297  70.994  1.00  0.00    -0.316 A  
ATOM      9  C5    A A   1     -10.456  10.418  70.180  1.00  0.00    -0.128 A  
ATOM     10  N7    A A   1      -9.250  10.422  69.518  1.00  0.00    -0.167 NA 
ATOM     11  C8    A A   1      -8.640   9.336  69.933  1.00  0.00    -0.170 A  
ATOM     12  N9    A A   1      -9.394   8.626  70.843  1.00  0.00    -0.173 NA 
ENDROOT
BRANCH  12  13
ATOM     13  C1*   A A   1      -8.931   7.386  71.423  1.00  0.00    -0.137 C  
ATOM     14  O4*   A A   1      -8.913   6.412  70.353  1.00  0.00    -0.152 OA 
ATOM     15  C4*   A A   1     -10.127   5.622  70.447  1.00  0.00    -0.219 C  
ATOM     16  C3*   A A   1     -10.677   5.782  71.868  1.00  0.00    -0.242 C  
ATOM     17  H2*   A A   1     -10.625   7.037  74.318  1.00  0.00     0.000 HD 
ATOM     18  C2*   A A   1      -9.654   6.674  72.566  1.00  0.00    -0.153 C  
ATOM     19  O3*   A A   1     -10.784   4.510  72.519  1.00  0.00    -0.188 OA 
ATOM     20  H3*   A A   1     -11.125   4.610  73.400  1.00  0.00     0.000 HD 
ATOM     21  O2*   A A   1     -10.176   7.480  73.608  1.00  0.00    -0.338 OA 
BRANCH  15  22
ATOM     22  C5*   A A   1     -11.130   6.109  69.394  1.00  0.00    -0.409 C  
ATOM     23  O5*   A A   1     -12.306   6.607  70.025  1.00  0.00    -0.549 OA 
ATOM     24  H5*   A A   1     -12.928   6.909  69.373  1.00  0.00     0.000 HD 
ENDBRANCH  15  22
ENDBRANCH  12  13
TORSDOF 2
ENDMDL
MODEL      119
REMARK 921   NORMALIZED FREE ENERGY PREDICTED BY IDOCK:   -4.39 KCAL/MOL
REMARK 922        TOTAL FREE ENERGY PREDICTED BY IDOCK:   -4.97 KCAL/MOL
REMARK 923 INTER-LIGAND FREE ENERGY PREDICTED BY IDOCK:   -4.74 KCAL/MOL
REMARK 924 INTRA-LIGAND FREE ENERGY PREDICTED BY IDOCK:   -0.23 KCAL/MOL
REMARK 927      BINDING AFFINITY PREDICTED BY RF-SCORE:    0.00 PKD
ROOT
ATOM      1  N6    A A   1     -11.971  12.372  69.404  1.00  0.00    -0.289 NA 
ATOM      2  C6    A A   1     -12.146  11.291  70.260  1.00  0.00    -0.373 A  
ATOM      3  H62   A A   1     -11.639  13.171  69.943  1.00  0.00     0.000 HD 
ATOM      4  H61   A A   1     -11.374  12.252  68.586  1.00  0.00     0.000 HD 
ATOM      5  N1    A A   1     -12.936  11.450  71.343  1.00  0.00    -0.412 NA 
ATOM      6  C2    A A   1     -13.105  10.398  72.172  1.00  0.00    -0.324 A  
ATOM      7  N3    A A   1     -12.590   9.150  72.067  1.00  0.00    -0.374 NA 
ATOM      8  C4    A A   1     -11.811   9.043  70.977  1.00  0.00    -0.285 A  
ATOM      9  C5    A A   1     -11.556  10.037  70.038  1.00  0.00    -0.214 A  
ATOM     10  N7    A A   1     -10.754   9.566  69.023  1.00  0.00    -0.221 NA 
ATOM     11  C8    A A   1     -10.513   8.316  69.346  1.00  0.00    -0.220 A  
ATOM     12  N9    A A   1     -11.115   7.954  70.531  1.00  0.00    -0.257 NA 
ENDROOT
BRANCH  12  13
ATOM     13  C1*   A A   1     -11.001   6.620  71.073  1.00  0.00    -0.259 C  
ATOM     14  O4*   A A   1     -10.314   6.747  72.341  1.00  0.00    -0.190 OA 
ATOM     15  C4*   A A   1      -8.915   6.426  72.127  1.00  0.00    -0.136 C  
ATOM     16  C3*   A A   1      -8.815   5.627  70.823  1.00  0.00    -0.139 C  
ATOM     17  H2*   A A   1      -9.975   4.673  68.516  1.00  0.00     0.000 HD 
ATOM     18  C2*   A A   1     -10.262   5.486  70.361  1.00  0.00    -0.251 C  
ATOM     19  O3*   A A   1      -8.219   4.346  71.056  1.00  0.00    -0.078 OA 
ATOM     20  H3*   A A   1      -8.157   3.851  70.248  1.00  0.00     0.000 HD 
ATOM     21  O2*   A A   1     -10.434   5.378  68.959  1.00  0.00    -0.218 OA 
BRANCH  15  22
ATOM     22  C5*   A A   1      -8.103   7.726  72.058  1.00  0.00    -0.106 C  
ATOM     23  O5*   A A   1      -8.755   8.755  72.798  1.00  0.00    -0.398 OA 
ATOM     24  H5*   A A   1      -8.252   9.560  72.756  1.00  0.00     0.000 HD 
ENDBRANCH  15  22
ENDBRANCH  12  13
TORSDOF 2
ENDMDL
MODEL      120
REMARK 921   NORMALIZED FREE ENERGY PREDICTED BY IDOCK:   -4.35 KCAL/MOL
REMARK 922        TOTAL FREE ENERGY PREDICTED BY IDOCK:   -4.93 KCAL/MOL
REMARK 923 INTER-LIGAND FREE ENERGY PREDICTED BY IDOCK:   -4.86 KCAL/MOL
REMARK 924 INTRA-LIGAND FREE ENERGY PREDICTED BY IDOCK:   -0.06 KCAL/MOL
REMARK 927      BINDING AFFINITY PREDICTED BY RF-SCORE:    0.00 PKD
ROOT
ATOM      1  N6    A A   1     -11.940  15.512  64.144  1.00  0.00    -0.871 NA 
ATOM      2  C6    A A   1     -11.858  14.128  64.053  1.00  0.00    -0.271 A  
ATOM      3  H62   A A   1     -12.897  15.773  64.379  1.00  0.00     0.000 HD 
ATOM      4  H61   A A   1     -11.300  15.996  64.774  1.00  0.00     0.000 HD 
ATOM      5  N1    A A   1     -12.704  13.487  63.220  1.00  0.00    -0.607 NA 
ATOM      6  C2    A A   1     -12.622  12.142  63.133  1.00  0.00    -0.197 A  
ATOM      7  N3    A A   1     -11.769  11.306  63.773  1.00  0.00     0.023 NA 
ATOM      8  C4    A A   1     -10.951  11.990  64.591  1.00  0.00    -0.317 A  
ATOM      9  C5    A A   1     -10.921  13.369  64.772  1.00  0.00    -0.360 A  
ATOM     10  N7    A A   1      -9.922  13.731  65.647  1.00  0.00    -0.283 NA 
ATOM     11  C8    A A   1      -9.366  12.597  66.003  1.00  0.00    -0.067 A  
ATOM     12  N9    A A   1      -9.963  11.508  65.405  1.00  0.00    -0.238 NA 
ENDROOT
BRANCH  12  13
ATOM     13  C1*   A A   1      -9.506  10.158  65.637  1.00  0.00    -0.220 C  
ATOM     14  O4*   A A   1     -10.550   9.491  66.384  1.00  0.00    -0.146 OA 
ATOM     15  C4*   A A   1     -10.176   9.508  67.787  1.00  0.00    -0.216 C  
ATOM     16  C3*   A A   1      -8.667   9.759  67.863  1.00  0.00    -0.125 C  
ATOM     17  H2*   A A   1      -6.296  10.435  66.637  1.00  0.00     0.000 HD 
ATOM     18  C2*   A A   1      -8.226   9.826  66.405  1.00  0.00    -0.120 C  
ATOM     19  O3*   A A   1      -8.008   8.690  68.554  1.00  0.00    -0.112 OA 
ATOM     20  H3*   A A   1      -7.072   8.846  68.601  1.00  0.00     0.000 HD 
ATOM     21  O2*   A A   1      -7.092  10.640  66.160  1.00  0.00    -0.128 OA 
BRANCH  15  22
ATOM     22  C5*   A A   1     -10.970  10.606  68.508  1.00  0.00    -0.248 C  
ATOM     23  O5*   A A   1     -10.082  11.569  69.068  1.00  0.00    -0.357 OA 
ATOM     24  H5*   A A   1     -10.573  12.250  69.514  1.00  0.00     0.000 HD 
ENDBRANCH  15  22
ENDBRANCH  12  13
TORSDOF 2
ENDMDL
MODEL      121
REMARK 921   NORMALIZED FREE ENERGY PREDICTED BY IDOCK:   -4.35 KCAL/MOL
REMARK 922        TOTAL FREE ENERGY PREDICTED BY IDOCK:   -4.92 KCAL/MOL
REMARK 923 INTER-LIGAND FREE ENERGY PREDICTED BY IDOCK:   -5.10 KCAL/MOL
REMARK 924 INTRA-LIGAND FREE ENERGY PREDICTED BY IDOCK:    0.18 KCAL/MOL
REMARK 927      BINDING AFFINITY PREDICTED BY RF-SCORE:    0.00 PKD
ROOT
ATOM      1  N6    A A   1      -8.045  20.583  67.871  1.00  0.00    -0.124 NA 
ATOM      2  C6    A A   1      -8.176  19.329  67.285  1.00  0.00    -0.277 A  
ATOM      3  H62   A A   1      -8.056  21.293  67.139  1.00  0.00     0.000 HD 
ATOM      4  H61   A A   1      -8.705  20.848  68.602  1.00  0.00     0.000 HD 
ATOM      5  N1    A A   1      -7.303  18.977  66.318  1.00  0.00    -0.249 NA 
ATOM      6  C2    A A   1      -7.433  17.758  65.751  1.00  0.00    -0.051 A  
ATOM      7  N3    A A   1      -8.336  16.789  66.032  1.00  0.00    -0.473 NA 
ATOM      8  C4    A A   1      -9.182  17.188  66.997  1.00  0.00    -0.241 A  
ATOM      9  C5    A A   1      -9.161  18.406  67.669  1.00  0.00    -0.266 A  
ATOM     10  N7    A A   1     -10.143  18.456  68.632  1.00  0.00    -0.381 NA 
ATOM     11  C8    A A   1     -10.760  17.302  68.537  1.00  0.00    -0.305 A  
ATOM     12  N9    A A   1     -10.228  16.501  67.549  1.00  0.00    -0.276 NA 
ENDROOT
BRANCH  12  13
ATOM     13  C1*   A A   1     -10.738  15.177  67.277  1.00  0.00    -0.305 C  
ATOM     14  O4*   A A   1     -10.410  14.364  68.428  1.00  0.00    -0.231 OA 
ATOM     15  C4*   A A   1      -9.209  13.610  68.116  1.00  0.00    -0.204 C  
ATOM     16  C3*   A A   1      -9.058  13.586  66.591  1.00  0.00    -0.168 C  
ATOM     17  H2*   A A   1      -9.829  14.479  64.104  1.00  0.00     0.000 HD 
ATOM     18  C2*   A A   1     -10.286  14.335  66.083  1.00  0.00    -0.299 C  
ATOM     19  O3*   A A   1      -9.034  12.240  66.103  1.00  0.00    -0.389 OA 
ATOM     20  H3*   A A   1      -8.941  12.225  65.158  1.00  0.00     0.000 HD 
ATOM     21  O2*   A A   1     -10.109  15.003  64.845  1.00  0.00    -0.320 OA 
BRANCH  15  22
ATOM     22  C5*   A A   1      -8.004  14.275  68.794  1.00  0.00    -0.119 C  
ATOM     23  O5*   A A   1      -8.433  15.052  69.909  1.00  0.00    -0.421 OA 
ATOM     24  H5*   A A   1      -7.687  15.464  70.329  1.00  0.00     0.000 HD 
ENDBRANCH  15  22
ENDBRANCH  12  13
TORSDOF 2
ENDMDL
MODEL      122
REMARK 921   NORMALIZED FREE ENERGY PREDICTED BY IDOCK:   -4.34 KCAL/MOL
REMARK 922        TOTAL FREE ENERGY PREDICTED BY IDOCK:   -4.92 KCAL/MOL
REMARK 923 INTER-LIGAND FREE ENERGY PREDICTED BY IDOCK:   -5.05 KCAL/MOL
REMARK 924 INTRA-LIGAND FREE ENERGY PREDICTED BY IDOCK:    0.13 KCAL/MOL
REMARK 927      BINDING AFFINITY PREDICTED BY RF-SCORE:    0.00 PKD
ROOT
ATOM      1  N6    A A   1     -12.447  14.485  69.863  1.00  0.00    -0.492 NA 
ATOM      2  C6    A A   1     -11.922  14.076  68.643  1.00  0.00    -0.354 A  
ATOM      3  H62   A A   1     -13.255  15.083  69.694  1.00  0.00     0.000 HD 
ATOM      4  H61   A A   1     -12.700  13.771  70.547  1.00  0.00     0.000 HD 
ATOM      5  N1    A A   1     -11.587  15.020  67.739  1.00  0.00    -0.336 NA 
ATOM      6  C2    A A   1     -11.078  14.620  66.554  1.00  0.00    -0.329 A  
ATOM      7  N3    A A   1     -10.827  13.360  66.126  1.00  0.00    -0.280 NA 
ATOM      8  C4    A A   1     -11.179  12.458  67.059  1.00  0.00    -0.303 A  
ATOM      9  C5    A A   1     -11.706  12.728  68.318  1.00  0.00    -0.344 A  
ATOM     10  N7    A A   1     -11.902  11.567  69.031  1.00  0.00    -0.329 NA 
ATOM     11  C8    A A   1     -11.518  10.610  68.219  1.00  0.00    -0.245 A  
ATOM     12  N9    A A   1     -11.088  11.095  67.002  1.00  0.00    -0.294 NA 
ENDROOT
BRANCH  12  13
ATOM     13  C1*   A A   1     -10.602  10.224  65.957  1.00  0.00    -0.040 C  
ATOM     14  O4*   A A   1      -9.390   9.614  66.459  1.00  0.00    -0.151 OA 
ATOM     15  C4*   A A   1      -8.261  10.349  65.917  1.00  0.00    -0.150 C  
ATOM     16  C3*   A A   1      -8.755  11.122  64.690  1.00  0.00     0.144 C  
ATOM     17  H2*   A A   1     -10.823  12.005  63.101  1.00  0.00     0.000 HD 
ATOM     18  C2*   A A   1     -10.222  10.720  64.562  1.00  0.00    -0.359 C  
ATOM     19  O3*   A A   1      -8.013  10.751  63.522  1.00  0.00    -0.354 OA 
ATOM     20  H3*   A A   1      -8.320  11.230  62.762  1.00  0.00     0.000 HD 
ATOM     21  O2*   A A   1     -11.059  11.697  63.968  1.00  0.00    -0.351 OA 
BRANCH  15  22
ATOM     22  C5*   A A   1      -7.709  11.291  66.995  1.00  0.00    -0.147 C  
ATOM     23  O5*   A A   1      -7.722  12.637  66.528  1.00  0.00    -0.334 OA 
ATOM     24  H5*   A A   1      -7.380  13.221  67.195  1.00  0.00     0.000 HD 
ENDBRANCH  15  22
ENDBRANCH  12  13
TORSDOF 2
ENDMDL
MODEL      123
REMARK 921   NORMALIZED FREE ENERGY PREDICTED BY IDOCK:   -4.34 KCAL/MOL
REMARK 922        TOTAL FREE ENERGY PREDICTED BY IDOCK:   -4.91 KCAL/MOL
REMARK 923 INTER-LIGAND FREE ENERGY PREDICTED BY IDOCK:   -4.94 KCAL/MOL
REMARK 924 INTRA-LIGAND FREE ENERGY PREDICTED BY IDOCK:    0.03 KCAL/MOL
REMARK 927      BINDING AFFINITY PREDICTED BY RF-SCORE:    0.00 PKD
ROOT
ATOM      1  N6    A A   1     -10.035   8.819  65.848  1.00  0.00    -0.454 NA 
ATOM      2  C6    A A   1     -10.399   8.180  67.027  1.00  0.00    -0.333 A  
ATOM      3  H62   A A   1     -10.759   8.661  65.147  1.00  0.00     0.000 HD 
ATOM      4  H61   A A   1      -9.818   9.816  65.883  1.00  0.00     0.000 HD 
ATOM      5  N1    A A   1     -10.686   6.862  66.982  1.00  0.00    -0.346 NA 
ATOM      6  C2    A A   1     -11.039   6.244  68.129  1.00  0.00    -0.266 A  
ATOM      7  N3    A A   1     -11.138   6.768  69.374  1.00  0.00    -0.270 NA 
ATOM      8  C4    A A   1     -10.846   8.080  69.366  1.00  0.00    -0.094 A  
ATOM      9  C5    A A   1     -10.462   8.839  68.265  1.00  0.00    -0.187 A  
ATOM     10  N7    A A   1     -10.191  10.138  68.630  1.00  0.00    -0.168 NA 
ATOM     11  C8    A A   1     -10.421  10.175  69.922  1.00  0.00    -0.275 A  
ATOM     12  N9    A A   1     -10.838   8.957  70.416  1.00  0.00    -0.230 NA 
ENDROOT
BRANCH  12  13
ATOM     13  C1*   A A   1     -11.132   8.757  71.816  1.00  0.00    -0.347 C  
ATOM     14  O4*   A A   1      -9.859   8.686  72.499  1.00  0.00    -0.285 OA 
ATOM     15  C4*   A A   1      -9.538   7.284  72.703  1.00  0.00    -0.153 C  
ATOM     16  C3*   A A   1     -10.840   6.486  72.579  1.00  0.00    -0.239 C  
ATOM     17  H2*   A A   1     -13.510   6.366  71.920  1.00  0.00     0.000 HD 
ATOM     18  C2*   A A   1     -11.908   7.550  72.344  1.00  0.00    -0.261 C  
ATOM     19  O3*   A A   1     -11.100   5.748  73.779  1.00  0.00    -0.418 OA 
ATOM     20  H3*   A A   1     -11.907   5.253  73.702  1.00  0.00     0.000 HD 
ATOM     21  O2*   A A   1     -13.028   7.116  71.592  1.00  0.00    -0.365 OA 
BRANCH  15  22
ATOM     22  C5*   A A   1      -8.503   6.846  71.659  1.00  0.00    -0.117 C  
ATOM     23  O5*   A A   1      -8.910   5.628  71.042  1.00  0.00    -0.134 OA 
ATOM     24  H5*   A A   1      -8.270   5.356  70.395  1.00  0.00     0.000 HD 
ENDBRANCH  15  22
ENDBRANCH  12  13
TORSDOF 2
ENDMDL
MODEL      124
REMARK 921   NORMALIZED FREE ENERGY PREDICTED BY IDOCK:   -4.32 KCAL/MOL
REMARK 922        TOTAL FREE ENERGY PREDICTED BY IDOCK:   -4.89 KCAL/MOL
REMARK 923 INTER-LIGAND FREE ENERGY PREDICTED BY IDOCK:   -5.45 KCAL/MOL
REMARK 924 INTRA-LIGAND FREE ENERGY PREDICTED BY IDOCK:    0.55 KCAL/MOL
REMARK 927      BINDING AFFINITY PREDICTED BY RF-SCORE:    0.00 PKD
ROOT
ATOM      1  N6    A A   1      -9.046   9.346  67.509  1.00  0.00    -0.124 NA 
ATOM      2  C6    A A   1      -9.919  10.109  68.274  1.00  0.00    -0.148 A  
ATOM      3  H62   A A   1      -9.496   8.462  67.274  1.00  0.00     0.000 HD 
ATOM      4  H61   A A   1      -8.658   9.757  66.659  1.00  0.00     0.000 HD 
ATOM      5  N1    A A   1     -10.431   9.566  69.399  1.00  0.00    -0.209 NA 
ATOM      6  C2    A A   1     -11.279  10.310  70.141  1.00  0.00    -0.318 A  
ATOM      7  N3    A A   1     -11.697  11.580  69.924  1.00  0.00    -0.327 NA 
ATOM      8  C4    A A   1     -11.163  12.074  68.795  1.00  0.00    -0.263 A  
ATOM      9  C5    A A   1     -10.275  11.426  67.942  1.00  0.00    -0.182 A  
ATOM     10  N7    A A   1      -9.893  12.248  66.907  1.00  0.00    -0.206 NA 
ATOM     11  C8    A A   1     -10.546  13.368  67.115  1.00  0.00    -0.259 A  
ATOM     12  N9    A A   1     -11.345  13.310  68.237  1.00  0.00    -0.280 NA 
ENDROOT
BRANCH  12  13
ATOM     13  C1*   A A   1     -12.142  14.433  68.670  1.00  0.00    -0.239 C  
ATOM     14  O4*   A A   1     -11.481  15.623  68.179  1.00  0.00    -0.352 OA 
ATOM     15  C4*   A A   1     -10.697  16.180  69.267  1.00  0.00    -0.295 C  
ATOM     16  C3*   A A   1     -11.250  15.611  70.578  1.00  0.00    -0.362 C  
ATOM     17  H2*   A A   1     -12.884  13.838  71.907  1.00  0.00     0.000 HD 
ATOM     18  C2*   A A   1     -12.426  14.742  70.141  1.00  0.00    -0.309 C  
ATOM     19  O3*   A A   1     -11.680  16.664  71.449  1.00  0.00    -0.626 OA 
ATOM     20  H3*   A A   1     -12.023  16.311  72.261  1.00  0.00     0.000 HD 
ATOM     21  O2*   A A   1     -12.708  13.646  70.993  1.00  0.00    -0.338 OA 
BRANCH  15  22
ATOM     22  C5*   A A   1      -9.221  15.811  69.067  1.00  0.00    -0.243 C  
ATOM     23  O5*   A A   1      -8.915  14.608  69.768  1.00  0.00    -0.369 OA 
ATOM     24  H5*   A A   1      -8.001  14.379  69.644  1.00  0.00     0.000 HD 
ENDBRANCH  15  22
ENDBRANCH  12  13
TORSDOF 2
ENDMDL
MODEL      125
REMARK 921   NORMALIZED FREE ENERGY PREDICTED BY IDOCK:   -4.31 KCAL/MOL
REMARK 922        TOTAL FREE ENERGY PREDICTED BY IDOCK:   -4.88 KCAL/MOL
REMARK 923 INTER-LIGAND FREE ENERGY PREDICTED BY IDOCK:   -4.92 KCAL/MOL
REMARK 924 INTRA-LIGAND FREE ENERGY PREDICTED BY IDOCK:    0.04 KCAL/MOL
REMARK 927      BINDING AFFINITY PREDICTED BY RF-SCORE:    0.00 PKD
ROOT
ATOM      1  N6    A A   1     -12.035  12.123  66.331  1.00  0.00    -0.621 NA 
ATOM      2  C6    A A   1     -10.750  12.635  66.464  1.00  0.00    -0.250 A  
ATOM      3  H62   A A   1     -12.294  11.649  67.196  1.00  0.00     0.000 HD 
ATOM      4  H61   A A   1     -12.787  12.759  66.064  1.00  0.00     0.000 HD 
ATOM      5  N1    A A   1      -9.756  11.794  66.817  1.00  0.00    -0.194 NA 
ATOM      6  C2    A A   1      -8.509  12.294  66.945  1.00  0.00    -0.159 A  
ATOM      7  N3    A A   1      -8.086  13.566  66.746  1.00  0.00     0.144 NA 
ATOM      8  C4    A A   1      -9.110  14.363  66.399  1.00  0.00    -0.160 A  
ATOM      9  C5    A A   1     -10.437  13.982  66.225  1.00  0.00    -0.286 A  
ATOM     10  N7    A A   1     -11.208  15.048  65.819  1.00  0.00    -0.337 NA 
ATOM     11  C8    A A   1     -10.373  16.059  65.762  1.00  0.00    -0.378 A  
ATOM     12  N9    A A   1      -9.091  15.702  66.121  1.00  0.00    -0.337 NA 
ENDROOT
BRANCH  12  13
ATOM     13  C1*   A A   1      -8.001  16.650  66.116  1.00  0.00    -0.202 C  
ATOM     14  O4*   A A   1      -7.027  16.163  67.070  1.00  0.00    -0.201 OA 
ATOM     15  C4*   A A   1      -7.217  16.888  68.313  1.00  0.00    -0.186 C  
ATOM     16  C3*   A A   1      -7.993  18.169  67.990  1.00  0.00    -0.264 C  
ATOM     17  H2*   A A   1      -9.435  19.701  66.214  1.00  0.00     0.000 HD 
ATOM     18  C2*   A A   1      -8.171  18.126  66.475  1.00  0.00    -0.267 C  
ATOM     19  O3*   A A   1      -7.252  19.328  68.391  1.00  0.00    -0.277 OA 
ATOM     20  H3*   A A   1      -7.733  20.122  68.190  1.00  0.00     0.000 HD 
ATOM     21  O2*   A A   1      -9.329  18.784  65.991  1.00  0.00    -0.478 OA 
BRANCH  15  22
ATOM     22  C5*   A A   1      -7.980  15.999  69.304  1.00  0.00    -0.217 C  
ATOM     23  O5*   A A   1      -9.379  16.259  69.225  1.00  0.00    -0.251 OA 
ATOM     24  H5*   A A   1      -9.851  15.709  69.839  1.00  0.00     0.000 HD 
ENDBRANCH  15  22
ENDBRANCH  12  13
TORSDOF 2
ENDMDL
MODEL      126
REMARK 921   NORMALIZED FREE ENERGY PREDICTED BY IDOCK:   -4.20 KCAL/MOL
REMARK 922        TOTAL FREE ENERGY PREDICTED BY IDOCK:   -4.76 KCAL/MOL
REMARK 923 INTER-LIGAND FREE ENERGY PREDICTED BY IDOCK:   -5.30 KCAL/MOL
REMARK 924 INTRA-LIGAND FREE ENERGY PREDICTED BY IDOCK:    0.53 KCAL/MOL
REMARK 927      BINDING AFFINITY PREDICTED BY RF-SCORE:    0.00 PKD
ROOT
ATOM      1  N6    A A   1     -12.289  15.802  71.328  1.00  0.00    -0.420 NA 
ATOM      2  C6    A A   1     -12.002  15.306  70.062  1.00  0.00    -0.343 A  
ATOM      3  H62   A A   1     -13.059  16.467  71.257  1.00  0.00     0.000 HD 
ATOM      4  H61   A A   1     -12.493  15.138  72.076  1.00  0.00     0.000 HD 
ATOM      5  N1    A A   1     -11.733  16.185  69.074  1.00  0.00    -0.313 NA 
ATOM      6  C2    A A   1     -11.454  15.700  67.845  1.00  0.00    -0.251 A  
ATOM      7  N3    A A   1     -11.385  14.408  67.443  1.00  0.00    -0.321 NA 
ATOM      8  C4    A A   1     -11.663  13.574  68.460  1.00  0.00    -0.357 A  
ATOM      9  C5    A A   1     -11.959  13.933  69.771  1.00  0.00    -0.338 A  
ATOM     10  N7    A A   1     -12.140  12.820  70.560  1.00  0.00    -0.349 NA 
ATOM     11  C8    A A   1     -11.975  11.805  69.744  1.00  0.00    -0.322 A  
ATOM     12  N9    A A   1     -11.701  12.207  68.455  1.00  0.00    -0.318 NA 
ENDROOT
BRANCH  12  13
ATOM     13  C1*   A A   1     -11.465  11.261  67.389  1.00  0.00    -0.221 C  
ATOM     14  O4*   A A   1     -10.940  10.064  68.010  1.00  0.00    -0.261 OA 
ATOM     15  C4*   A A   1      -9.495  10.083  67.869  1.00  0.00    -0.144 C  
ATOM     16  C3*   A A   1      -9.151  11.055  66.736  1.00  0.00    -0.162 C  
ATOM     17  H2*   A A   1      -9.921  12.997  64.943  1.00  0.00     0.000 HD 
ATOM     18  C2*   A A   1     -10.509  11.529  66.226  1.00  0.00    -0.251 C  
ATOM     19  O3*   A A   1      -8.414  10.390  65.702  1.00  0.00    -0.153 OA 
ATOM     20  H3*   A A   1      -8.201  10.992  64.999  1.00  0.00     0.000 HD 
ATOM     21  O2*   A A   1     -10.515  12.831  65.666  1.00  0.00    -0.268 OA 
BRANCH  15  22
ATOM     22  C5*   A A   1      -8.864  10.519  69.199  1.00  0.00    -0.151 C  
ATOM     23  O5*   A A   1      -8.479  11.889  69.137  1.00  0.00    -0.353 OA 
ATOM     24  H5*   A A   1      -8.088  12.159  69.960  1.00  0.00     0.000 HD 
ENDBRANCH  15  22
ENDBRANCH  12  13
TORSDOF 2
ENDMDL
MODEL      127
REMARK 921   NORMALIZED FREE ENERGY PREDICTED BY IDOCK:   -4.19 KCAL/MOL
REMARK 922        TOTAL FREE ENERGY PREDICTED BY IDOCK:   -4.74 KCAL/MOL
REMARK 923 INTER-LIGAND FREE ENERGY PREDICTED BY IDOCK:   -4.56 KCAL/MOL
REMARK 924 INTRA-LIGAND FREE ENERGY PREDICTED BY IDOCK:   -0.18 KCAL/MOL
REMARK 927      BINDING AFFINITY PREDICTED BY RF-SCORE:    0.00 PKD
ROOT
ATOM      1  N6    A A   1     -12.033  14.000  69.756  1.00  0.00    -0.315 NA 
ATOM      2  C6    A A   1     -12.124  12.715  70.277  1.00  0.00    -0.294 A  
ATOM      3  H62   A A   1     -11.717  14.634  70.490  1.00  0.00     0.000 HD 
ATOM      4  H61   A A   1     -11.464  14.147  68.922  1.00  0.00     0.000 HD 
ATOM      5  N1    A A   1     -12.877  12.520  71.379  1.00  0.00    -0.329 NA 
ATOM      6  C2    A A   1     -12.964  11.270  71.883  1.00  0.00    -0.365 A  
ATOM      7  N3    A A   1     -12.396  10.131  71.417  1.00  0.00    -0.388 NA 
ATOM      8  C4    A A   1     -11.656  10.378  70.322  1.00  0.00    -0.327 A  
ATOM      9  C5    A A   1     -11.485  11.608  69.695  1.00  0.00    -0.288 A  
ATOM     10  N7    A A   1     -10.703  11.485  68.570  1.00  0.00    -0.199 NA 
ATOM     11  C8    A A   1     -10.390  10.211  68.521  1.00  0.00    -0.180 A  
ATOM     12  N9    A A   1     -10.928   9.498  69.571  1.00  0.00    -0.225 NA 
ENDROOT
BRANCH  12  13
ATOM     13  C1*   A A   1     -10.730   8.074  69.712  1.00  0.00    -0.231 C  
ATOM     14  O4*   A A   1      -9.737   7.897  70.750  1.00  0.00    -0.172 OA 
ATOM     15  C4*   A A   1      -8.453   7.679  70.109  1.00  0.00    -0.138 C  
ATOM     16  C3*   A A   1      -8.722   7.239  68.666  1.00  0.00    -0.127 C  
ATOM     17  H2*   A A   1     -10.472   6.866  66.573  1.00  0.00     0.000 HD 
ATOM     18  C2*   A A   1     -10.244   7.178  68.573  1.00  0.00    -0.175 C  
ATOM     19  O3*   A A   1      -8.136   5.957  68.408  1.00  0.00    -0.107 OA 
ATOM     20  H3*   A A   1      -8.303   5.684  67.513  1.00  0.00     0.000 HD 
ATOM     21  O2*   A A   1     -10.773   7.423  67.281  1.00  0.00    -0.303 OA 
BRANCH  15  22
ATOM     22  C5*   A A   1      -7.637   8.977  70.162  1.00  0.00    -0.082 C  
ATOM     23  O5*   A A   1      -8.147   9.840  71.174  1.00  0.00    -0.314 OA 
ATOM     24  H5*   A A   1      -7.641  10.644  71.207  1.00  0.00     0.000 HD 
ENDBRANCH  15  22
ENDBRANCH  12  13
TORSDOF 2
ENDMDL
MODEL      128
REMARK 921   NORMALIZED FREE ENERGY PREDICTED BY IDOCK:   -4.18 KCAL/MOL
REMARK 922        TOTAL FREE ENERGY PREDICTED BY IDOCK:   -4.74 KCAL/MOL
REMARK 923 INTER-LIGAND FREE ENERGY PREDICTED BY IDOCK:   -4.47 KCAL/MOL
REMARK 924 INTRA-LIGAND FREE ENERGY PREDICTED BY IDOCK:   -0.27 KCAL/MOL
REMARK 927      BINDING AFFINITY PREDICTED BY RF-SCORE:    0.00 PKD
ROOT
ATOM      1  N6    A A   1     -13.105  12.462  64.137  1.00  0.00    -0.747 NA 
ATOM      2  C6    A A   1     -11.960  12.934  64.766  1.00  0.00    -0.396 A  
ATOM      3  H62   A A   1     -12.988  12.544  63.128  1.00  0.00     0.000 HD 
ATOM      4  H61   A A   1     -13.427  11.519  64.358  1.00  0.00     0.000 HD 
ATOM      5  N1    A A   1     -11.534  14.182  64.474  1.00  0.00    -0.382 NA 
ATOM      6  C2    A A   1     -10.421  14.638  65.087  1.00  0.00    -0.416 A  
ATOM      7  N3    A A   1      -9.644  14.010  66.001  1.00  0.00    -0.249 NA 
ATOM      8  C4    A A   1     -10.106  12.774  66.255  1.00  0.00    -0.259 A  
ATOM      9  C5    A A   1     -11.238  12.181  65.705  1.00  0.00    -0.339 A  
ATOM     10  N7    A A   1     -11.443  10.925  66.229  1.00  0.00     0.031 NA 
ATOM     11  C8    A A   1     -10.448  10.750  67.068  1.00  0.00    -0.247 A  
ATOM     12  N9    A A   1      -9.598  11.834  67.109  1.00  0.00    -0.179 NA 
ENDROOT
BRANCH  12  13
ATOM     13  C1*   A A   1      -8.443  11.871  67.975  1.00  0.00    -0.162 C  
ATOM     14  O4*   A A   1      -7.284  11.960  67.114  1.00  0.00    -0.137 OA 
ATOM     15  C4*   A A   1      -6.727  10.626  66.974  1.00  0.00    -0.086 C  
ATOM     16  C3*   A A   1      -7.252   9.779  68.138  1.00  0.00    -0.079 C  
ATOM     17  H2*   A A   1      -8.948   9.463  70.283  1.00  0.00     0.000 HD 
ATOM     18  C2*   A A   1      -8.095  10.752  68.957  1.00  0.00    -0.140 C  
ATOM     19  O3*   A A   1      -6.169   9.252  68.913  1.00  0.00    -0.043 OA 
ATOM     20  H3*   A A   1      -6.495   8.727  69.635  1.00  0.00     0.000 HD 
ATOM     21  O2*   A A   1      -9.164  10.159  69.673  1.00  0.00    -0.214 OA 
BRANCH  15  22
ATOM     22  C5*   A A   1      -7.144  10.045  65.617  1.00  0.00    -0.119 C  
ATOM     23  O5*   A A   1      -7.564  11.088  64.741  1.00  0.00    -0.308 OA 
ATOM     24  H5*   A A   1      -7.822  10.728  63.901  1.00  0.00     0.000 HD 
ENDBRANCH  15  22
ENDBRANCH  12  13
TORSDOF 2
ENDMDL
MODEL      129
REMARK 921   NORMALIZED FREE ENERGY PREDICTED BY IDOCK:   -4.15 KCAL/MOL
REMARK 922        TOTAL FREE ENERGY PREDICTED BY IDOCK:   -4.70 KCAL/MOL
REMARK 923 INTER-LIGAND FREE ENERGY PREDICTED BY IDOCK:   -5.44 KCAL/MOL
REMARK 924 INTRA-LIGAND FREE ENERGY PREDICTED BY IDOCK:    0.74 KCAL/MOL
REMARK 927      BINDING AFFINITY PREDICTED BY RF-SCORE:    0.00 PKD
ROOT
ATOM      1  N6    A A   1     -11.830  12.766  62.978  1.00  0.00    -0.784 NA 
ATOM      2  C6    A A   1     -11.013  12.607  64.091  1.00  0.00    -0.387 A  
ATOM      3  H62   A A   1     -12.458  11.966  62.910  1.00  0.00     0.000 HD 
ATOM      4  H61   A A   1     -12.375  13.624  62.895  1.00  0.00     0.000 HD 
ATOM      5  N1    A A   1     -10.290  11.472  64.201  1.00  0.00    -0.302 NA 
ATOM      6  C2    A A   1      -9.497  11.321  65.283  1.00  0.00    -0.221 A  
ATOM      7  N3    A A   1      -9.298  12.181  66.310  1.00  0.00    -0.231 NA 
ATOM      8  C4    A A   1     -10.039  13.291  66.156  1.00  0.00    -0.293 A  
ATOM      9  C5    A A   1     -10.889  13.582  65.094  1.00  0.00    -0.330 A  
ATOM     10  N7    A A   1     -11.450  14.830  65.237  1.00  0.00    -0.350 NA 
ATOM     11  C8    A A   1     -10.966  15.284  66.369  1.00  0.00    -0.299 A  
ATOM     12  N9    A A   1     -10.119  14.383  66.976  1.00  0.00    -0.253 NA 
ENDROOT
BRANCH  12  13
ATOM     13  C1*   A A   1      -9.455  14.675  68.226  1.00  0.00    -0.211 C  
ATOM     14  O4*   A A   1     -10.138  15.814  68.799  1.00  0.00    -0.203 OA 
ATOM     15  C4*   A A   1      -9.365  17.003  68.488  1.00  0.00    -0.265 C  
ATOM     16  C3*   A A   1      -7.944  16.554  68.134  1.00  0.00    -0.163 C  
ATOM     17  H2*   A A   1      -6.150  14.546  67.561  1.00  0.00     0.000 HD 
ATOM     18  C2*   A A   1      -7.973  15.041  68.322  1.00  0.00    -0.128 C  
ATOM     19  O3*   A A   1      -6.985  17.165  69.005  1.00  0.00    -0.218 OA 
ATOM     20  H3*   A A   1      -6.104  16.887  68.785  1.00  0.00     0.000 HD 
ATOM     21  O2*   A A   1      -7.070  14.319  67.501  1.00  0.00    -0.177 OA 
BRANCH  15  22
ATOM     22  C5*   A A   1     -10.031  17.748  67.324  1.00  0.00    -0.324 C  
ATOM     23  O5*   A A   1      -9.448  19.039  67.166  1.00  0.00    -0.298 OA 
ATOM     24  H5*   A A   1      -9.860  19.500  66.444  1.00  0.00     0.000 HD 
ENDBRANCH  15  22
ENDBRANCH  12  13
TORSDOF 2
ENDMDL
MODEL      130
REMARK 921   NORMALIZED FREE ENERGY PREDICTED BY IDOCK:   -4.15 KCAL/MOL
REMARK 922        TOTAL FREE ENERGY PREDICTED BY IDOCK:   -4.70 KCAL/MOL
REMARK 923 INTER-LIGAND FREE ENERGY PREDICTED BY IDOCK:   -4.76 KCAL/MOL
REMARK 924 INTRA-LIGAND FREE ENERGY PREDICTED BY IDOCK:    0.06 KCAL/MOL
REMARK 927      BINDING AFFINITY PREDICTED BY RF-SCORE:    0.00 PKD
ROOT
ATOM      1  N6    A A   1     -12.512   5.995  72.503  1.00  0.00    -0.513 NA 
ATOM      2  C6    A A   1     -11.467   6.799  72.063  1.00  0.00    -0.282 A  
ATOM      3  H62   A A   1     -13.174   6.567  73.025  1.00  0.00     0.000 HD 
ATOM      4  H61   A A   1     -13.022   5.442  71.814  1.00  0.00     0.000 HD 
ATOM      5  N1    A A   1     -10.791   7.530  72.975  1.00  0.00    -0.365 NA 
ATOM      6  C2    A A   1      -9.777   8.311  72.545  1.00  0.00    -0.298 A  
ATOM      7  N3    A A   1      -9.305   8.463  71.284  1.00  0.00    -0.172 NA 
ATOM      8  C4    A A   1     -10.010   7.717  70.416  1.00  0.00    -0.188 A  
ATOM      9  C5    A A   1     -11.070   6.868  70.719  1.00  0.00    -0.275 A  
ATOM     10  N7    A A   1     -11.524   6.223  69.591  1.00  0.00    -0.429 NA 
ATOM     11  C8    A A   1     -10.770   6.682  68.620  1.00  0.00    -0.254 A  
ATOM     12  N9    A A   1      -9.847   7.605  69.063  1.00  0.00    -0.164 NA 
ENDROOT
BRANCH  12  13
ATOM     13  C1*   A A   1      -8.899   8.230  68.171  1.00  0.00    -0.139 C  
ATOM     14  O4*   A A   1      -9.011   9.657  68.384  1.00  0.00    -0.123 OA 
ATOM     15  C4*   A A   1      -9.857  10.201  67.336  1.00  0.00    -0.187 C  
ATOM     16  C3*   A A   1      -9.882   9.189  66.186  1.00  0.00    -0.293 C  
ATOM     17  H2*   A A   1      -9.285   6.692  65.194  1.00  0.00     0.000 HD 
ATOM     18  C2*   A A   1      -8.949   8.074  66.650  1.00  0.00    -0.150 C  
ATOM     19  O3*   A A   1      -9.410   9.787  64.973  1.00  0.00    -0.232 OA 
ATOM     20  H3*   A A   1      -9.425   9.159  64.260  1.00  0.00     0.000 HD 
ATOM     21  O2*   A A   1      -9.254   6.788  66.138  1.00  0.00    -0.154 OA 
BRANCH  15  22
ATOM     22  C5*   A A   1     -11.262  10.451  67.901  1.00  0.00    -0.263 C  
ATOM     23  O5*   A A   1     -11.497  11.850  68.038  1.00  0.00    -0.275 OA 
ATOM     24  H5*   A A   1     -12.366  12.005  68.388  1.00  0.00     0.000 HD 
ENDBRANCH  15  22
ENDBRANCH  12  13
TORSDOF 2
ENDMDL
MODEL      131
REMARK 921   NORMALIZED FREE ENERGY PREDICTED BY IDOCK:   -4.13 KCAL/MOL
REMARK 922        TOTAL FREE ENERGY PREDICTED BY IDOCK:   -4.68 KCAL/MOL
REMARK 923 INTER-LIGAND FREE ENERGY PREDICTED BY IDOCK:   -4.97 KCAL/MOL
REMARK 924 INTRA-LIGAND FREE ENERGY PREDICTED BY IDOCK:    0.29 KCAL/MOL
REMARK 927      BINDING AFFINITY PREDICTED BY RF-SCORE:    0.00 PKD
ROOT
ATOM      1  N6    A A   1     -10.702   8.275  68.274  1.00  0.00    -0.428 NA 
ATOM      2  C6    A A   1     -10.959   9.630  68.443  1.00  0.00    -0.113 A  
ATOM      3  H62   A A   1     -11.523   7.744  68.561  1.00  0.00     0.000 HD 
ATOM      4  H61   A A   1     -10.399   7.949  67.356  1.00  0.00     0.000 HD 
ATOM      5  N1    A A   1     -11.359  10.062  69.658  1.00  0.00    -0.229 NA 
ATOM      6  C2    A A   1     -11.607  11.380  69.819  1.00  0.00    -0.332 A  
ATOM      7  N3    A A   1     -11.494  12.377  68.910  1.00  0.00    -0.284 NA 
ATOM      8  C4    A A   1     -11.096  11.897  67.719  1.00  0.00    -0.239 A  
ATOM      9  C5    A A   1     -10.800  10.572  67.414  1.00  0.00    -0.291 A  
ATOM     10  N7    A A   1     -10.374  10.448  66.112  1.00  0.00    -0.228 NA 
ATOM     11  C8    A A   1     -10.426  11.667  65.628  1.00  0.00    -0.268 A  
ATOM     12  N9    A A   1     -10.874  12.582  66.556  1.00  0.00    -0.251 NA 
ENDROOT
BRANCH  12  13
ATOM     13  C1*   A A   1     -10.995  13.988  66.251  1.00  0.00    -0.300 C  
ATOM     14  O4*   A A   1      -9.698  14.421  65.778  1.00  0.00    -0.304 OA 
ATOM     15  C4*   A A   1      -9.006  15.057  66.885  1.00  0.00    -0.251 C  
ATOM     16  C3*   A A   1     -10.060  15.454  67.925  1.00  0.00    -0.226 C  
ATOM     17  H2*   A A   1     -12.649  15.354  68.855  1.00  0.00     0.000 HD 
ATOM     18  C2*   A A   1     -11.384  15.041  67.290  1.00  0.00    -0.332 C  
ATOM     19  O3*   A A   1     -10.023  16.865  68.173  1.00  0.00    -0.264 OA 
ATOM     20  H3*   A A   1     -10.676  17.111  68.817  1.00  0.00     0.000 HD 
ATOM     21  O2*   A A   1     -12.407  14.700  68.210  1.00  0.00    -0.132 OA 
BRANCH  15  22
ATOM     22  C5*   A A   1      -7.978  14.078  67.467  1.00  0.00    -0.187 C  
ATOM     23  O5*   A A   1      -8.508  13.436  68.624  1.00  0.00    -0.309 OA 
ATOM     24  H5*   A A   1      -7.871  12.829  68.985  1.00  0.00     0.000 HD 
ENDBRANCH  15  22
ENDBRANCH  12  13
TORSDOF 2
ENDMDL
MODEL      132
REMARK 921   NORMALIZED FREE ENERGY PREDICTED BY IDOCK:   -4.12 KCAL/MOL
REMARK 922        TOTAL FREE ENERGY PREDICTED BY IDOCK:   -4.67 KCAL/MOL
REMARK 923 INTER-LIGAND FREE ENERGY PREDICTED BY IDOCK:   -5.32 KCAL/MOL
REMARK 924 INTRA-LIGAND FREE ENERGY PREDICTED BY IDOCK:    0.66 KCAL/MOL
REMARK 927      BINDING AFFINITY PREDICTED BY RF-SCORE:    0.00 PKD
ROOT
ATOM      1  N6    A A   1     -11.985  11.752  66.607  1.00  0.00    -0.499 NA 
ATOM      2  C6    A A   1     -10.792  12.395  66.916  1.00  0.00    -0.251 A  
ATOM      3  H62   A A   1     -12.057  10.901  67.163  1.00  0.00     0.000 HD 
ATOM      4  H61   A A   1     -12.855  12.278  66.690  1.00  0.00     0.000 HD 
ATOM      5  N1    A A   1      -9.641  11.700  66.806  1.00  0.00    -0.189 NA 
ATOM      6  C2    A A   1      -8.483  12.327  67.107  1.00  0.00    -0.184 A  
ATOM      7  N3    A A   1      -8.296  13.608  67.504  1.00  0.00    -0.176 NA 
ATOM      8  C4    A A   1      -9.470  14.256  67.600  1.00  0.00    -0.211 A  
ATOM      9  C5    A A   1     -10.730  13.739  67.317  1.00  0.00    -0.283 A  
ATOM     10  N7    A A   1     -11.705  14.697  67.476  1.00  0.00    -0.379 NA 
ATOM     11  C8    A A   1     -11.056  15.770  67.864  1.00  0.00    -0.326 A  
ATOM     12  N9    A A   1      -9.699  15.552  67.973  1.00  0.00    -0.207 NA 
ENDROOT
BRANCH  12  13
ATOM     13  C1*   A A   1      -8.783  16.597  68.368  1.00  0.00    -0.225 C  
ATOM     14  O4*   A A   1      -9.567  17.807  68.493  1.00  0.00    -0.297 OA 
ATOM     15  C4*   A A   1      -9.401  18.575  67.273  1.00  0.00    -0.280 C  
ATOM     16  C3*   A A   1      -8.130  18.077  66.578  1.00  0.00    -0.269 C  
ATOM     17  H2*   A A   1      -6.081  16.249  66.379  1.00  0.00     0.000 HD 
ATOM     18  C2*   A A   1      -7.578  17.017  67.526  1.00  0.00    -0.165 C  
ATOM     19  O3*   A A   1      -7.195  19.148  66.399  1.00  0.00    -0.222 OA 
ATOM     20  H3*   A A   1      -6.407  18.839  65.968  1.00  0.00     0.000 HD 
ATOM     21  O2*   A A   1      -6.830  15.988  66.902  1.00  0.00    -0.220 OA 
BRANCH  15  22
ATOM     22  C5*   A A   1     -10.640  18.389  66.387  1.00  0.00    -0.309 C  
ATOM     23  O5*   A A   1     -10.373  17.442  65.357  1.00  0.00    -0.631 OA 
ATOM     24  H5*   A A   1     -11.140  17.327  64.808  1.00  0.00     0.000 HD 
ENDBRANCH  15  22
ENDBRANCH  12  13
TORSDOF 2
ENDMDL
MODEL      133
REMARK 921   NORMALIZED FREE ENERGY PREDICTED BY IDOCK:   -4.10 KCAL/MOL
REMARK 922        TOTAL FREE ENERGY PREDICTED BY IDOCK:   -4.65 KCAL/MOL
REMARK 923 INTER-LIGAND FREE ENERGY PREDICTED BY IDOCK:   -4.99 KCAL/MOL
REMARK 924 INTRA-LIGAND FREE ENERGY PREDICTED BY IDOCK:    0.34 KCAL/MOL
REMARK 927      BINDING AFFINITY PREDICTED BY RF-SCORE:    0.00 PKD
ROOT
ATOM      1  N6    A A   1     -10.980  16.679  64.471  1.00  0.00    -1.056 NA 
ATOM      2  C6    A A   1     -10.613  15.845  65.520  1.00  0.00    -0.401 A  
ATOM      3  H62   A A   1     -10.267  17.398  64.354  1.00  0.00     0.000 HD 
ATOM      4  H61   A A   1     -11.180  16.258  63.563  1.00  0.00     0.000 HD 
ATOM      5  N1    A A   1     -10.349  16.400  66.721  1.00  0.00    -0.291 NA 
ATOM      6  C2    A A   1      -9.992  15.587  67.738  1.00  0.00    -0.222 A  
ATOM      7  N3    A A   1      -9.870  14.238  67.737  1.00  0.00    -0.220 NA 
ATOM      8  C4    A A   1     -10.140  13.734  66.521  1.00  0.00    -0.286 A  
ATOM      9  C5    A A   1     -10.524  14.450  65.391  1.00  0.00    -0.373 A  
ATOM     10  N7    A A   1     -10.769  13.607  64.331  1.00  0.00    -0.402 NA 
ATOM     11  C8    A A   1     -10.524  12.405  64.800  1.00  0.00    -0.304 A  
ATOM     12  N9    A A   1     -10.121  12.427  66.118  1.00  0.00    -0.243 NA 
ENDROOT
BRANCH  12  13
ATOM     13  C1*   A A   1      -9.814  11.219  66.847  1.00  0.00    -0.193 C  
ATOM     14  O4*   A A   1      -8.930  11.602  67.927  1.00  0.00    -0.157 OA 
ATOM     15  C4*   A A   1      -7.569  11.310  67.516  1.00  0.00    -0.110 C  
ATOM     16  C3*   A A   1      -7.636  10.295  66.370  1.00  0.00    -0.117 C  
ATOM     17  H2*   A A   1      -9.103   8.892  64.510  1.00  0.00     0.000 HD 
ATOM     18  C2*   A A   1      -9.126  10.009  66.212  1.00  0.00    -0.151 C  
ATOM     19  O3*   A A   1      -6.913   9.104  66.702  1.00  0.00    -0.079 OA 
ATOM     20  H3*   A A   1      -6.955   8.475  65.991  1.00  0.00     0.000 HD 
ATOM     21  O2*   A A   1      -9.530   9.644  64.904  1.00  0.00    -0.267 OA 
BRANCH  15  22
ATOM     22  C5*   A A   1      -6.883  12.611  67.081  1.00  0.00    -0.020 C  
ATOM     23  O5*   A A   1      -7.204  13.665  67.985  1.00  0.00    -0.098 OA 
ATOM     24  H5*   A A   1      -6.779  14.471  67.716  1.00  0.00     0.000 HD 
ENDBRANCH  15  22
ENDBRANCH  12  13
TORSDOF 2
ENDMDL
MODEL      134
REMARK 921   NORMALIZED FREE ENERGY PREDICTED BY IDOCK:   -4.09 KCAL/MOL
REMARK 922        TOTAL FREE ENERGY PREDICTED BY IDOCK:   -4.63 KCAL/MOL
REMARK 923 INTER-LIGAND FREE ENERGY PREDICTED BY IDOCK:   -5.03 KCAL/MOL
REMARK 924 INTRA-LIGAND FREE ENERGY PREDICTED BY IDOCK:    0.40 KCAL/MOL
REMARK 927      BINDING AFFINITY PREDICTED BY RF-SCORE:    0.00 PKD
ROOT
ATOM      1  N6    A A   1      -5.714  10.367  65.934  1.00  0.00    -0.084 NA 
ATOM      2  C6    A A   1      -6.694  11.144  66.540  1.00  0.00    -0.128 A  
ATOM      3  H62   A A   1      -5.138   9.937  66.656  1.00  0.00     0.000 HD 
ATOM      4  H61   A A   1      -6.006   9.648  65.271  1.00  0.00     0.000 HD 
ATOM      5  N1    A A   1      -6.308  12.095  67.416  1.00  0.00    -0.129 NA 
ATOM      6  C2    A A   1      -7.262  12.850  68.004  1.00  0.00    -0.115 A  
ATOM      7  N3    A A   1      -8.603  12.803  67.824  1.00  0.00    -0.172 NA 
ATOM      8  C4    A A   1      -8.936  11.841  66.946  1.00  0.00    -0.195 A  
ATOM      9  C5    A A   1      -8.063  11.000  66.265  1.00  0.00    -0.159 A  
ATOM     10  N7    A A   1      -8.745  10.168  65.407  1.00  0.00    -0.153 NA 
ATOM     11  C8    A A   1     -10.008  10.485  65.573  1.00  0.00    -0.279 A  
ATOM     12  N9    A A   1     -10.181  11.482  66.509  1.00  0.00    -0.212 NA 
ENDROOT
BRANCH  12  13
ATOM     13  C1*   A A   1     -11.486  12.004  66.842  1.00  0.00    -0.337 C  
ATOM     14  O4*   A A   1     -11.918  12.792  65.708  1.00  0.00    -0.409 OA 
ATOM     15  C4*   A A   1     -11.646  14.187  66.004  1.00  0.00    -0.361 C  
ATOM     16  C3*   A A   1     -11.489  14.319  67.522  1.00  0.00    -0.345 C  
ATOM     17  H2*   A A   1     -11.234  13.154  70.004  1.00  0.00     0.000 HD 
ATOM     18  C2*   A A   1     -11.744  12.909  68.047  1.00  0.00    -0.356 C  
ATOM     19  O3*   A A   1     -12.440  15.249  68.054  1.00  0.00    -0.282 OA 
ATOM     20  H3*   A A   1     -12.342  15.330  68.995  1.00  0.00     0.000 HD 
ATOM     21  O2*   A A   1     -11.074  12.591  69.255  1.00  0.00    -0.220 OA 
BRANCH  15  22
ATOM     22  C5*   A A   1     -10.375  14.622  65.263  1.00  0.00    -0.399 C  
ATOM     23  O5*   A A   1     -10.687  15.615  64.289  1.00  0.00    -0.697 OA 
ATOM     24  H5*   A A   1      -9.900  15.885  63.830  1.00  0.00     0.000 HD 
ENDBRANCH  15  22
ENDBRANCH  12  13
TORSDOF 2
ENDMDL
MODEL      135
REMARK 921   NORMALIZED FREE ENERGY PREDICTED BY IDOCK:   -4.08 KCAL/MOL
REMARK 922        TOTAL FREE ENERGY PREDICTED BY IDOCK:   -4.63 KCAL/MOL
REMARK 923 INTER-LIGAND FREE ENERGY PREDICTED BY IDOCK:   -5.09 KCAL/MOL
REMARK 924 INTRA-LIGAND FREE ENERGY PREDICTED BY IDOCK:    0.46 KCAL/MOL
REMARK 927      BINDING AFFINITY PREDICTED BY RF-SCORE:    0.00 PKD
ROOT
ATOM      1  N6    A A   1      -7.524  11.114  69.014  1.00  0.00    -0.124 NA 
ATOM      2  C6    A A   1      -7.904  10.015  69.776  1.00  0.00    -0.177 A  
ATOM      3  H62   A A   1      -6.530  11.040  68.799  1.00  0.00     0.000 HD 
ATOM      4  H61   A A   1      -8.037  11.310  68.155  1.00  0.00     0.000 HD 
ATOM      5  N1    A A   1      -7.226   9.757  70.914  1.00  0.00    -0.330 NA 
ATOM      6  C2    A A   1      -7.598   8.688  71.652  1.00  0.00    -0.106 A  
ATOM      7  N3    A A   1      -8.603   7.811  71.419  1.00  0.00    -0.118 NA 
ATOM      8  C4    A A   1      -9.245   8.109  70.276  1.00  0.00    -0.151 A  
ATOM      9  C5    A A   1      -8.974   9.177  69.426  1.00  0.00    -0.147 A  
ATOM     10  N7    A A   1      -9.861   9.208  68.374  1.00  0.00    -0.159 NA 
ATOM     11  C8    A A   1     -10.644   8.173  68.570  1.00  0.00    -0.100 A  
ATOM     12  N9    A A   1     -10.303   7.462  69.700  1.00  0.00    -0.217 NA 
ENDROOT
BRANCH  12  13
ATOM     13  C1*   A A   1     -11.038   6.293  70.123  1.00  0.00    -0.377 C  
ATOM     14  O4*   A A   1     -12.359   6.749  70.497  1.00  0.00    -0.326 OA 
ATOM     15  C4*   A A   1     -12.392   6.888  71.942  1.00  0.00    -0.325 C  
ATOM     16  C3*   A A   1     -11.241   6.055  72.515  1.00  0.00    -0.290 C  
ATOM     17  H2*   A A   1      -8.950   4.575  72.140  1.00  0.00     0.000 HD 
ATOM     18  C2*   A A   1     -10.604   5.406  71.290  1.00  0.00    -0.206 C  
ATOM     19  O3*   A A   1     -11.733   5.066  73.428  1.00  0.00    -0.487 OA 
ATOM     20  H3*   A A   1     -11.019   4.550  73.783  1.00  0.00     0.000 HD 
ATOM     21  O2*   A A   1      -9.220   5.126  71.414  1.00  0.00    -0.141 OA 
BRANCH  15  22
ATOM     22  C5*   A A   1     -12.256   8.371  72.310  1.00  0.00    -0.387 C  
ATOM     23  O5*   A A   1     -13.336   8.773  73.148  1.00  0.00    -0.918 OA 
ATOM     24  H5*   A A   1     -13.251   9.692  73.376  1.00  0.00     0.000 HD 
ENDBRANCH  15  22
ENDBRANCH  12  13
TORSDOF 2
ENDMDL
MODEL      136
REMARK 921   NORMALIZED FREE ENERGY PREDICTED BY IDOCK:   -4.08 KCAL/MOL
REMARK 922        TOTAL FREE ENERGY PREDICTED BY IDOCK:   -4.62 KCAL/MOL
REMARK 923 INTER-LIGAND FREE ENERGY PREDICTED BY IDOCK:   -4.37 KCAL/MOL
REMARK 924 INTRA-LIGAND FREE ENERGY PREDICTED BY IDOCK:   -0.25 KCAL/MOL
REMARK 927      BINDING AFFINITY PREDICTED BY RF-SCORE:    0.00 PKD
ROOT
ATOM      1  N6    A A   1      -9.616  18.671  67.567  1.00  0.00    -0.290 NA 
ATOM      2  C6    A A   1      -9.021  17.416  67.545  1.00  0.00    -0.231 A  
ATOM      3  H62   A A   1      -9.564  19.079  66.634  1.00  0.00     0.000 HD 
ATOM      4  H61   A A   1     -10.574  18.749  67.911  1.00  0.00     0.000 HD 
ATOM      5  N1    A A   1      -7.754  17.312  67.092  1.00  0.00    -0.185 NA 
ATOM      6  C2    A A   1      -7.179  16.091  67.072  1.00  0.00    -0.213 A  
ATOM      7  N3    A A   1      -7.700  14.906  67.471  1.00  0.00    -0.176 NA 
ATOM      8  C4    A A   1      -8.960  15.061  67.912  1.00  0.00    -0.175 A  
ATOM      9  C5    A A   1      -9.671  16.255  67.993  1.00  0.00    -0.230 A  
ATOM     10  N7    A A   1     -10.918  16.051  68.539  1.00  0.00    -0.308 NA 
ATOM     11  C8    A A   1     -10.973  14.760  68.769  1.00  0.00    -0.259 A  
ATOM     12  N9    A A   1      -9.818  14.110  68.390  1.00  0.00    -0.227 NA 
ENDROOT
BRANCH  12  13
ATOM     13  C1*   A A   1      -9.646  12.686  68.565  1.00  0.00    -0.109 C  
ATOM     14  O4*   A A   1      -9.439  12.130  67.246  1.00  0.00    -0.178 OA 
ATOM     15  C4*   A A   1     -10.705  11.588  66.785  1.00  0.00    -0.270 C  
ATOM     16  C3*   A A   1     -11.594  11.372  68.014  1.00  0.00    -0.286 C  
ATOM     17  H2*   A A   1     -12.073  11.725  70.702  1.00  0.00     0.000 HD 
ATOM     18  C2*   A A   1     -10.712  11.784  69.189  1.00  0.00    -0.124 C  
ATOM     19  O3*   A A   1     -11.991  10.000  68.121  1.00  0.00    -0.369 OA 
ATOM     20  H3*   A A   1     -12.542   9.867  68.883  1.00  0.00     0.000 HD 
ATOM     21  O2*   A A   1     -11.411  12.285  70.315  1.00  0.00    -0.097 OA 
BRANCH  15  22
ATOM     22  C5*   A A   1     -11.341  12.568  65.791  1.00  0.00    -0.336 C  
ATOM     23  O5*   A A   1     -10.345  13.418  65.230  1.00  0.00    -0.303 OA 
ATOM     24  H5*   A A   1     -10.739  14.025  64.614  1.00  0.00     0.000 HD 
ENDBRANCH  15  22
ENDBRANCH  12  13
TORSDOF 2
ENDMDL
MODEL      137
REMARK 921   NORMALIZED FREE ENERGY PREDICTED BY IDOCK:   -4.07 KCAL/MOL
REMARK 922        TOTAL FREE ENERGY PREDICTED BY IDOCK:   -4.61 KCAL/MOL
REMARK 923 INTER-LIGAND FREE ENERGY PREDICTED BY IDOCK:   -5.21 KCAL/MOL
REMARK 924 INTRA-LIGAND FREE ENERGY PREDICTED BY IDOCK:    0.60 KCAL/MOL
REMARK 927      BINDING AFFINITY PREDICTED BY RF-SCORE:    0.00 PKD
ROOT
ATOM      1  N6    A A   1     -10.138  20.138  65.805  1.00  0.00    -0.537 NA 
ATOM      2  C6    A A   1      -9.007  19.712  66.492  1.00  0.00    -0.369 A  
ATOM      3  H62   A A   1      -9.874  20.882  65.160  1.00  0.00     0.000 HD 
ATOM      4  H61   A A   1     -10.691  19.443  65.302  1.00  0.00     0.000 HD 
ATOM      5  N1    A A   1      -8.276  20.631  67.157  1.00  0.00    -0.288 NA 
ATOM      6  C2    A A   1      -7.178  20.215  67.824  1.00  0.00    -0.294 A  
ATOM      7  N3    A A   1      -6.689  18.957  67.943  1.00  0.00    -0.213 NA 
ATOM      8  C4    A A   1      -7.449  18.081  67.263  1.00  0.00    -0.199 A  
ATOM      9  C5    A A   1      -8.604  18.368  66.542  1.00  0.00    -0.273 A  
ATOM     10  N7    A A   1      -9.155  17.223  66.014  1.00  0.00    -0.517 NA 
ATOM     11  C8    A A   1      -8.345  16.262  66.390  1.00  0.00    -0.330 A  
ATOM     12  N9    A A   1      -7.284  16.730  67.135  1.00  0.00    -0.166 NA 
ENDROOT
BRANCH  12  13
ATOM     13  C1*   A A   1      -6.273  15.848  67.671  1.00  0.00    -0.156 C  
ATOM     14  O4*   A A   1      -6.633  14.509  67.257  1.00  0.00    -0.288 OA 
ATOM     15  C4*   A A   1      -7.315  13.865  68.365  1.00  0.00    -0.115 C  
ATOM     16  C3*   A A   1      -6.956  14.633  69.641  1.00  0.00    -0.149 C  
ATOM     17  H2*   A A   1      -5.813  16.816  70.870  1.00  0.00     0.000 HD 
ATOM     18  C2*   A A   1      -5.988  15.712  69.167  1.00  0.00    -0.110 C  
ATOM     19  O3*   A A   1      -6.337  13.767  70.600  1.00  0.00    -0.396 OA 
ATOM     20  H3*   A A   1      -6.115  14.243  71.391  1.00  0.00     0.000 HD 
ATOM     21  O2*   A A   1      -5.991  16.900  69.940  1.00  0.00    -0.220 OA 
BRANCH  15  22
ATOM     22  C5*   A A   1      -8.827  13.878  68.103  1.00  0.00    -0.184 C  
ATOM     23  O5*   A A   1      -9.527  14.302  69.269  1.00  0.00    -0.402 OA 
ATOM     24  H5*   A A   1     -10.463  14.310  69.107  1.00  0.00     0.000 HD 
ENDBRANCH  15  22
ENDBRANCH  12  13
TORSDOF 2
ENDMDL
MODEL      138
REMARK 921   NORMALIZED FREE ENERGY PREDICTED BY IDOCK:   -4.04 KCAL/MOL
REMARK 922        TOTAL FREE ENERGY PREDICTED BY IDOCK:   -4.58 KCAL/MOL
REMARK 923 INTER-LIGAND FREE ENERGY PREDICTED BY IDOCK:   -4.45 KCAL/MOL
REMARK 924 INTRA-LIGAND FREE ENERGY PREDICTED BY IDOCK:   -0.13 KCAL/MOL
REMARK 927      BINDING AFFINITY PREDICTED BY RF-SCORE:    0.00 PKD
ROOT
ATOM      1  N6    A A   1      -8.219   2.707  72.396  1.00  0.00    -0.055 NA 
ATOM      2  C6    A A   1      -8.955   3.785  72.873  1.00  0.00    -0.097 A  
ATOM      3  H62   A A   1      -8.842   1.911  72.266  1.00  0.00     0.000 HD 
ATOM      4  H61   A A   1      -7.661   2.835  71.551  1.00  0.00     0.000 HD 
ATOM      5  N1    A A   1      -9.691   3.617  73.991  1.00  0.00    -0.103 NA 
ATOM      6  C2    A A   1     -10.406   4.666  74.452  1.00  0.00    -0.273 A  
ATOM      7  N3    A A   1     -10.483   5.920  73.947  1.00  0.00    -0.271 NA 
ATOM      8  C4    A A   1      -9.736   6.037  72.835  1.00  0.00    -0.155 A  
ATOM      9  C5    A A   1      -8.950   5.046  72.256  1.00  0.00    -0.131 A  
ATOM     10  N7    A A   1      -8.280   5.528  71.154  1.00  0.00    -0.118 NA 
ATOM     11  C8    A A   1      -8.663   6.780  71.055  1.00  0.00    -0.137 A  
ATOM     12  N9    A A   1      -9.560   7.134  72.039  1.00  0.00    -0.144 NA 
ENDROOT
BRANCH  12  13
ATOM     13  C1*   A A   1     -10.104   8.469  72.137  1.00  0.00    -0.323 C  
ATOM     14  O4*   A A   1     -11.477   8.324  72.570  1.00  0.00    -0.378 OA 
ATOM     15  C4*   A A   1     -12.328   8.418  71.398  1.00  0.00    -0.299 C  
ATOM     16  C3*   A A   1     -11.522   9.104  70.291  1.00  0.00    -0.146 C  
ATOM     17  H2*   A A   1      -9.128  10.067  69.331  1.00  0.00     0.000 HD 
ATOM     18  C2*   A A   1     -10.185   9.430  70.951  1.00  0.00    -0.303 C  
ATOM     19  O3*   A A   1     -12.182  10.295  69.844  1.00  0.00    -0.466 OA 
ATOM     20  H3*   A A   1     -11.682  10.721  69.158  1.00  0.00     0.000 HD 
ATOM     21  O2*   A A   1      -9.077   9.469  70.068  1.00  0.00    -0.193 OA 
BRANCH  15  22
ATOM     22  C5*   A A   1     -12.773   7.009  70.983  1.00  0.00    -0.246 C  
ATOM     23  O5*   A A   1     -11.947   6.521  69.929  1.00  0.00    -0.611 OA 
ATOM     24  H5*   A A   1     -12.222   5.649  69.672  1.00  0.00     0.000 HD 
ENDBRANCH  15  22
ENDBRANCH  12  13
TORSDOF 2
ENDMDL
MODEL      139
REMARK 921   NORMALIZED FREE ENERGY PREDICTED BY IDOCK:   -4.02 KCAL/MOL
REMARK 922        TOTAL FREE ENERGY PREDICTED BY IDOCK:   -4.55 KCAL/MOL
REMARK 923 INTER-LIGAND FREE ENERGY PREDICTED BY IDOCK:   -4.79 KCAL/MOL
REMARK 924 INTRA-LIGAND FREE ENERGY PREDICTED BY IDOCK:    0.24 KCAL/MOL
REMARK 927      BINDING AFFINITY PREDICTED BY RF-SCORE:    0.00 PKD
ROOT
ATOM      1  N6    A A   1      -5.133  18.138  71.991  1.00  0.00    -0.559 NA 
ATOM      2  C6    A A   1      -5.777  17.869  70.789  1.00  0.00     0.087 A  
ATOM      3  H62   A A   1      -4.236  17.653  72.002  1.00  0.00     0.000 HD 
ATOM      4  H61   A A   1      -4.988  19.112  72.257  1.00  0.00     0.000 HD 
ATOM      5  N1    A A   1      -5.970  16.581  70.437  1.00  0.00    -0.060 NA 
ATOM      6  C2    A A   1      -6.596  16.323  69.268  1.00  0.00    -0.197 A  
ATOM      7  N3    A A   1      -7.095  17.202  68.367  1.00  0.00    -0.196 NA 
ATOM      8  C4    A A   1      -6.876  18.469  68.761  1.00  0.00    -0.271 A  
ATOM      9  C5    A A   1      -6.254  18.877  69.936  1.00  0.00    -0.182 A  
ATOM     10  N7    A A   1      -6.246  20.249  70.040  1.00  0.00    -0.347 NA 
ATOM     11  C8    A A   1      -6.836  20.668  68.945  1.00  0.00     0.106 A  
ATOM     12  N9    A A   1      -7.222  19.629  68.126  1.00  0.00    -0.293 NA 
ENDROOT
BRANCH  12  13
ATOM     13  C1*   A A   1      -7.905  19.853  66.873  1.00  0.00    -0.298 C  
ATOM     14  O4*   A A   1      -9.138  20.540  67.193  1.00  0.00    -0.363 OA 
ATOM     15  C4*   A A   1     -10.205  19.555  67.222  1.00  0.00    -0.429 C  
ATOM     16  C3*   A A   1      -9.724  18.325  66.445  1.00  0.00    -0.334 C  
ATOM     17  H2*   A A   1      -7.706  16.938  65.186  1.00  0.00     0.000 HD 
ATOM     18  C2*   A A   1      -8.339  18.720  65.941  1.00  0.00     0.094 C  
ATOM     19  O3*   A A   1     -10.607  18.034  65.356  1.00  0.00    -0.648 OA 
ATOM     20  H3*   A A   1     -10.309  17.271  64.874  1.00  0.00     0.000 HD 
ATOM     21  O2*   A A   1      -7.437  17.642  65.765  1.00  0.00    -0.512 OA 
BRANCH  15  22
ATOM     22  C5*   A A   1     -10.533  19.210  68.681  1.00  0.00    -0.071 C  
ATOM     23  O5*   A A   1      -9.908  17.985  69.051  1.00  0.00    -0.321 OA 
ATOM     24  H5*   A A   1     -10.111  17.771  69.954  1.00  0.00     0.000 HD 
ENDBRANCH  15  22
ENDBRANCH  12  13
TORSDOF 2
ENDMDL
MODEL      140
REMARK 921   NORMALIZED FREE ENERGY PREDICTED BY IDOCK:   -3.98 KCAL/MOL
REMARK 922        TOTAL FREE ENERGY PREDICTED BY IDOCK:   -4.51 KCAL/MOL
REMARK 923 INTER-LIGAND FREE ENERGY PREDICTED BY IDOCK:   -4.91 KCAL/MOL
REMARK 924 INTRA-LIGAND FREE ENERGY PREDICTED BY IDOCK:    0.40 KCAL/MOL
REMARK 927      BINDING AFFINITY PREDICTED BY RF-SCORE:    0.00 PKD
ROOT
ATOM      1  N6    A A   1     -11.052  19.549  65.006  1.00  0.00    -0.134 NA 
ATOM      2  C6    A A   1     -10.863  18.251  65.464  1.00  0.00     0.179 A  
ATOM      3  H62   A A   1     -11.964  19.613  64.555  1.00  0.00     0.000 HD 
ATOM      4  H61   A A   1     -10.956  20.317  65.671  1.00  0.00     0.000 HD 
ATOM      5  N1    A A   1     -10.988  17.235  64.584  1.00  0.00    -0.853 NA 
ATOM      6  C2    A A   1     -10.804  15.974  65.032  1.00  0.00    -0.404 A  
ATOM      7  N3    A A   1     -10.481  15.561  66.281  1.00  0.00    -0.297 NA 
ATOM      8  C4    A A   1     -10.370  16.607  67.118  1.00  0.00    -0.300 A  
ATOM      9  C5    A A   1     -10.526  17.951  66.793  1.00  0.00    -0.311 A  
ATOM     10  N7    A A   1     -10.291  18.754  67.885  1.00  0.00    -0.396 NA 
ATOM     11  C8    A A   1     -10.014  17.917  68.858  1.00  0.00    -0.334 A  
ATOM     12  N9    A A   1     -10.065  16.602  68.451  1.00  0.00    -0.255 NA 
ENDROOT
BRANCH  12  13
ATOM     13  C1*   A A   1      -9.779  15.508  69.350  1.00  0.00    -0.283 C  
ATOM     14  O4*   A A   1      -8.347  15.510  69.560  1.00  0.00    -0.250 OA 
ATOM     15  C4*   A A   1      -7.764  14.511  68.683  1.00  0.00    -0.137 C  
ATOM     16  C3*   A A   1      -8.880  13.544  68.273  1.00  0.00    -0.179 C  
ATOM     17  H2*   A A   1     -11.551  12.881  68.192  1.00  0.00     0.000 HD 
ATOM     18  C2*   A A   1     -10.107  14.050  69.026  1.00  0.00    -0.055 C  
ATOM     19  O3*   A A   1      -8.556  12.202  68.654  1.00  0.00    -0.313 OA 
ATOM     20  H3*   A A   1      -9.248  11.603  68.400  1.00  0.00     0.000 HD 
ATOM     21  O2*   A A   1     -11.347  13.787  68.393  1.00  0.00    -0.260 OA 
BRANCH  15  22
ATOM     22  C5*   A A   1      -7.144  15.208  67.465  1.00  0.00    -0.198 C  
ATOM     23  O5*   A A   1      -5.826  15.656  67.771  1.00  0.00    -0.131 OA 
ATOM     24  H5*   A A   1      -5.441  16.087  67.018  1.00  0.00     0.000 HD 
ENDBRANCH  15  22
ENDBRANCH  12  13
TORSDOF 2
ENDMDL
MODEL      141
REMARK 921   NORMALIZED FREE ENERGY PREDICTED BY IDOCK:   -3.95 KCAL/MOL
REMARK 922        TOTAL FREE ENERGY PREDICTED BY IDOCK:   -4.48 KCAL/MOL
REMARK 923 INTER-LIGAND FREE ENERGY PREDICTED BY IDOCK:   -4.40 KCAL/MOL
REMARK 924 INTRA-LIGAND FREE ENERGY PREDICTED BY IDOCK:   -0.07 KCAL/MOL
REMARK 927      BINDING AFFINITY PREDICTED BY RF-SCORE:    0.00 PKD
ROOT
ATOM      1  N6    A A   1     -12.725  10.823  69.389  1.00  0.00    -0.585 NA 
ATOM      2  C6    A A   1     -11.458  10.354  69.715  1.00  0.00    -0.280 A  
ATOM      3  H62   A A   1     -12.910  10.622  68.407  1.00  0.00     0.000 HD 
ATOM      4  H61   A A   1     -13.518  10.509  69.948  1.00  0.00     0.000 HD 
ATOM      5  N1    A A   1     -10.408  10.770  68.977  1.00  0.00    -0.207 NA 
ATOM      6  C2    A A   1      -9.179  10.312  69.297  1.00  0.00    -0.202 A  
ATOM      7  N3    A A   1      -8.825   9.475  70.301  1.00  0.00    -0.233 NA 
ATOM      8  C4    A A   1      -9.904   9.088  71.004  1.00  0.00    -0.282 A  
ATOM      9  C5    A A   1     -11.220   9.484  70.791  1.00  0.00    -0.317 A  
ATOM     10  N7    A A   1     -12.060   8.933  71.731  1.00  0.00    -0.337 NA 
ATOM     11  C8    A A   1     -11.276   8.204  72.491  1.00  0.00    -0.391 A  
ATOM     12  N9    A A   1      -9.960   8.249  72.082  1.00  0.00    -0.244 NA 
ENDROOT
BRANCH  12  13
ATOM     13  C1*   A A   1      -8.915   7.536  72.780  1.00  0.00    -0.148 C  
ATOM     14  O4*   A A   1      -8.008   7.039  71.769  1.00  0.00    -0.098 OA 
ATOM     15  C4*   A A   1      -8.337   5.648  71.517  1.00  0.00    -0.127 C  
ATOM     16  C3*   A A   1      -9.136   5.134  72.719  1.00  0.00    -0.133 C  
ATOM     17  H2*   A A   1     -10.483   5.619  75.070  1.00  0.00     0.000 HD 
ATOM     18  C2*   A A   1      -9.180   6.323  73.673  1.00  0.00    -0.129 C  
ATOM     19  O3*   A A   1      -8.483   4.011  73.322  1.00  0.00    -0.088 OA 
ATOM     20  H3*   A A   1      -8.978   3.692  74.067  1.00  0.00     0.000 HD 
ATOM     21  O2*   A A   1     -10.319   6.372  74.515  1.00  0.00    -0.329 OA 
BRANCH  15  22
ATOM     22  C5*   A A   1      -9.143   5.547  70.216  1.00  0.00    -0.138 C  
ATOM     23  O5*   A A   1      -8.857   6.658  69.370  1.00  0.00    -0.134 OA 
ATOM     24  H5*   A A   1      -9.357   6.596  68.565  1.00  0.00     0.000 HD 
ENDBRANCH  15  22
ENDBRANCH  12  13
TORSDOF 2
ENDMDL
MODEL      142
REMARK 921   NORMALIZED FREE ENERGY PREDICTED BY IDOCK:   -3.94 KCAL/MOL
REMARK 922        TOTAL FREE ENERGY PREDICTED BY IDOCK:   -4.47 KCAL/MOL
REMARK 923 INTER-LIGAND FREE ENERGY PREDICTED BY IDOCK:   -5.23 KCAL/MOL
REMARK 924 INTRA-LIGAND FREE ENERGY PREDICTED BY IDOCK:    0.76 KCAL/MOL
REMARK 927      BINDING AFFINITY PREDICTED BY RF-SCORE:    0.00 PKD
ROOT
ATOM      1  N6    A A   1     -12.865  14.947  70.277  1.00  0.00    -0.581 NA 
ATOM      2  C6    A A   1     -12.020  14.066  69.613  1.00  0.00    -0.339 A  
ATOM      3  H62   A A   1     -13.449  15.426  69.592  1.00  0.00     0.000 HD 
ATOM      4  H61   A A   1     -13.459  14.581  71.022  1.00  0.00     0.000 HD 
ATOM      5  N1    A A   1     -11.234  14.549  68.628  1.00  0.00    -0.249 NA 
ATOM      6  C2    A A   1     -10.413  13.691  67.984  1.00  0.00    -0.248 A  
ATOM      7  N3    A A   1     -10.242  12.365  68.200  1.00  0.00    -0.219 NA 
ATOM      8  C4    A A   1     -11.047  11.933  69.187  1.00  0.00    -0.228 A  
ATOM      9  C5    A A   1     -11.932  12.703  69.935  1.00  0.00    -0.295 A  
ATOM     10  N7    A A   1     -12.558  11.942  70.896  1.00  0.00    -0.318 NA 
ATOM     11  C8    A A   1     -12.078  10.733  70.726  1.00  0.00    -0.372 A  
ATOM     12  N9    A A   1     -11.171  10.667  69.691  1.00  0.00    -0.267 NA 
ENDROOT
BRANCH  12  13
ATOM     13  C1*   A A   1     -10.501   9.439  69.334  1.00  0.00    -0.220 C  
ATOM     14  O4*   A A   1     -11.227   8.369  69.983  1.00  0.00    -0.206 OA 
ATOM     15  C4*   A A   1     -10.516   8.018  71.199  1.00  0.00    -0.198 C  
ATOM     16  C3*   A A   1      -9.081   8.539  71.066  1.00  0.00    -0.179 C  
ATOM     17  H2*   A A   1      -7.205  10.043  69.725  1.00  0.00     0.000 HD 
ATOM     18  C2*   A A   1      -9.036   9.154  69.670  1.00  0.00    -0.160 C  
ATOM     19  O3*   A A   1      -8.138   7.468  71.190  1.00  0.00    -0.098 OA 
ATOM     20  H3*   A A   1      -7.248   7.791  71.107  1.00  0.00     0.000 HD 
ATOM     21  O2*   A A   1      -8.115  10.220  69.517  1.00  0.00    -0.155 OA 
BRANCH  15  22
ATOM     22  C5*   A A   1     -11.235   8.643  72.402  1.00  0.00    -0.269 C  
ATOM     23  O5*   A A   1     -11.799   7.624  73.224  1.00  0.00    -0.631 OA 
ATOM     24  H5*   A A   1     -12.244   8.011  73.969  1.00  0.00     0.000 HD 
ENDBRANCH  15  22
ENDBRANCH  12  13
TORSDOF 2
ENDMDL
MODEL      143
REMARK 921   NORMALIZED FREE ENERGY PREDICTED BY IDOCK:   -3.94 KCAL/MOL
REMARK 922        TOTAL FREE ENERGY PREDICTED BY IDOCK:   -4.47 KCAL/MOL
REMARK 923 INTER-LIGAND FREE ENERGY PREDICTED BY IDOCK:   -5.15 KCAL/MOL
REMARK 924 INTRA-LIGAND FREE ENERGY PREDICTED BY IDOCK:    0.68 KCAL/MOL
REMARK 927      BINDING AFFINITY PREDICTED BY RF-SCORE:    0.00 PKD
ROOT
ATOM      1  N6    A A   1     -12.795  11.858  62.846  1.00  0.00    -0.720 NA 
ATOM      2  C6    A A   1     -12.276  12.279  64.065  1.00  0.00    -0.475 A  
ATOM      3  H62   A A   1     -12.938  12.671  62.247  1.00  0.00     0.000 HD 
ATOM      4  H61   A A   1     -12.288  11.144  62.323  1.00  0.00     0.000 HD 
ATOM      5  N1    A A   1     -12.948  13.222  64.758  1.00  0.00    -0.718 NA 
ATOM      6  C2    A A   1     -12.441  13.630  65.942  1.00  0.00    -0.452 A  
ATOM      7  N3    A A   1     -11.320  13.202  66.571  1.00  0.00    -0.303 NA 
ATOM      8  C4    A A   1     -10.687  12.267  65.841  1.00  0.00    -0.258 A  
ATOM      9  C5    A A   1     -11.097  11.753  64.615  1.00  0.00    -0.303 A  
ATOM     10  N7    A A   1     -10.235  10.773  64.178  1.00  0.00    -0.353 NA 
ATOM     11  C8    A A   1      -9.312  10.704  65.108  1.00  0.00    -0.212 A  
ATOM     12  N9    A A   1      -9.528  11.602  66.131  1.00  0.00    -0.219 NA 
ENDROOT
BRANCH  12  13
ATOM     13  C1*   A A   1      -8.648  11.692  67.272  1.00  0.00    -0.154 C  
ATOM     14  O4*   A A   1      -7.492  10.876  66.967  1.00  0.00    -0.109 OA 
ATOM     15  C4*   A A   1      -7.667   9.590  67.618  1.00  0.00    -0.095 C  
ATOM     16  C3*   A A   1      -8.707   9.769  68.729  1.00  0.00    -0.128 C  
ATOM     17  H2*   A A   1     -10.617  11.304  69.984  1.00  0.00     0.000 HD 
ATOM     18  C2*   A A   1      -9.053  11.254  68.680  1.00  0.00    -0.151 C  
ATOM     19  O3*   A A   1      -8.158   9.408  70.002  1.00  0.00    -0.114 OA 
ATOM     20  H3*   A A   1      -8.803   9.519  70.691  1.00  0.00     0.000 HD 
ATOM     21  O2*   A A   1     -10.365  11.576  69.109  1.00  0.00    -0.167 OA 
BRANCH  15  22
ATOM     22  C5*   A A   1      -8.122   8.557  66.579  1.00  0.00    -0.103 C  
ATOM     23  O5*   A A   1      -8.428   7.319  67.215  1.00  0.00    -0.117 OA 
ATOM     24  H5*   A A   1      -8.710   6.679  66.572  1.00  0.00     0.000 HD 
ENDBRANCH  15  22
ENDBRANCH  12  13
TORSDOF 2
ENDMDL
MODEL      144
REMARK 921   NORMALIZED FREE ENERGY PREDICTED BY IDOCK:   -3.93 KCAL/MOL
REMARK 922        TOTAL FREE ENERGY PREDICTED BY IDOCK:   -4.46 KCAL/MOL
REMARK 923 INTER-LIGAND FREE ENERGY PREDICTED BY IDOCK:   -5.16 KCAL/MOL
REMARK 924 INTRA-LIGAND FREE ENERGY PREDICTED BY IDOCK:    0.71 KCAL/MOL
REMARK 927      BINDING AFFINITY PREDICTED BY RF-SCORE:    0.00 PKD
ROOT
ATOM      1  N6    A A   1     -10.291  10.351  63.666  1.00  0.00    -0.443 NA 
ATOM      2  C6    A A   1     -10.634  10.852  64.916  1.00  0.00    -0.234 A  
ATOM      3  H62   A A   1      -9.898  11.105  63.103  1.00  0.00     0.000 HD 
ATOM      4  H61   A A   1      -9.669   9.544  63.620  1.00  0.00     0.000 HD 
ATOM      5  N1    A A   1     -11.457  11.920  64.977  1.00  0.00    -0.283 NA 
ATOM      6  C2    A A   1     -11.790  12.404  66.193  1.00  0.00    -0.376 A  
ATOM      7  N3    A A   1     -11.417  11.949  67.413  1.00  0.00    -0.402 NA 
ATOM      8  C4    A A   1     -10.598  10.889  67.299  1.00  0.00    -0.251 A  
ATOM      9  C5    A A   1     -10.181  10.285  66.117  1.00  0.00    -0.217 A  
ATOM     10  N7    A A   1      -9.386   9.191  66.375  1.00  0.00    -0.187 NA 
ATOM     11  C8    A A   1      -9.306   9.140  67.684  1.00  0.00    -0.135 A  
ATOM     12  N9    A A   1     -10.009  10.158  68.293  1.00  0.00    -0.145 NA 
ENDROOT
BRANCH  12  13
ATOM     13  C1*   A A   1     -10.078  10.290  69.730  1.00  0.00    -0.203 C  
ATOM     14  O4*   A A   1      -9.238   9.248  70.281  1.00  0.00    -0.198 OA 
ATOM     15  C4*   A A   1     -10.093   8.143  70.671  1.00  0.00    -0.194 C  
ATOM     16  C3*   A A   1     -11.520   8.685  70.810  1.00  0.00    -0.259 C  
ATOM     17  H2*   A A   1     -13.344  10.717  70.457  1.00  0.00     0.000 HD 
ATOM     18  C2*   A A   1     -11.381  10.176  70.521  1.00  0.00    -0.338 C  
ATOM     19  O3*   A A   1     -12.024   8.459  72.132  1.00  0.00    -0.326 OA 
ATOM     20  H3*   A A   1     -12.908   8.795  72.218  1.00  0.00     0.000 HD 
ATOM     21  O2*   A A   1     -12.534  10.787  69.966  1.00  0.00    -0.325 OA 
BRANCH  15  22
ATOM     22  C5*   A A   1     -10.008   7.039  69.608  1.00  0.00    -0.173 C  
ATOM     23  O5*   A A   1     -11.231   6.959  68.881  1.00  0.00    -0.474 OA 
ATOM     24  H5*   A A   1     -11.179   6.276  68.222  1.00  0.00     0.000 HD 
ENDBRANCH  15  22
ENDBRANCH  12  13
TORSDOF 2
ENDMDL
MODEL      145
REMARK 921   NORMALIZED FREE ENERGY PREDICTED BY IDOCK:   -3.93 KCAL/MOL
REMARK 922        TOTAL FREE ENERGY PREDICTED BY IDOCK:   -4.45 KCAL/MOL
REMARK 923 INTER-LIGAND FREE ENERGY PREDICTED BY IDOCK:   -5.06 KCAL/MOL
REMARK 924 INTRA-LIGAND FREE ENERGY PREDICTED BY IDOCK:    0.60 KCAL/MOL
REMARK 927      BINDING AFFINITY PREDICTED BY RF-SCORE:    0.00 PKD
ROOT
ATOM      1  N6    A A   1     -10.715  17.653  69.502  1.00  0.00    -0.222 NA 
ATOM      2  C6    A A   1     -10.375  16.783  68.473  1.00  0.00    -0.316 A  
ATOM      3  H62   A A   1     -11.045  18.530  69.100  1.00  0.00     0.000 HD 
ATOM      4  H61   A A   1     -11.384  17.337  70.204  1.00  0.00     0.000 HD 
ATOM      5  N1    A A   1      -9.489  17.201  67.544  1.00  0.00    -0.245 NA 
ATOM      6  C2    A A   1      -9.160  16.354  66.546  1.00  0.00    -0.276 A  
ATOM      7  N3    A A   1      -9.593  15.088  66.337  1.00  0.00    -0.271 NA 
ATOM      8  C4    A A   1     -10.473  14.720  67.285  1.00  0.00    -0.264 A  
ATOM      9  C5    A A   1     -10.895  15.484  68.368  1.00  0.00    -0.273 A  
ATOM     10  N7    A A   1     -11.762  14.774  69.166  1.00  0.00    -0.297 NA 
ATOM     11  C8    A A   1     -11.880  13.609  68.573  1.00  0.00    -0.371 A  
ATOM     12  N9    A A   1     -11.132  13.529  67.417  1.00  0.00    -0.275 NA 
ENDROOT
BRANCH  12  13
ATOM     13  C1*   A A   1     -11.094  12.333  66.608  1.00  0.00    -0.297 C  
ATOM     14  O4*   A A   1     -12.079  11.429  67.162  1.00  0.00    -0.390 OA 
ATOM     15  C4*   A A   1     -11.385  10.479  68.014  1.00  0.00    -0.246 C  
ATOM     16  C3*   A A   1      -9.907  10.489  67.613  1.00  0.00    -0.166 C  
ATOM     17  H2*   A A   1      -7.826  11.606  66.198  1.00  0.00     0.000 HD 
ATOM     18  C2*   A A   1      -9.843  11.470  66.447  1.00  0.00    -0.205 C  
ATOM     19  O3*   A A   1      -9.480   9.181  67.213  1.00  0.00    -0.141 OA 
ATOM     20  H3*   A A   1      -8.563   9.187  66.964  1.00  0.00     0.000 HD 
ATOM     21  O2*   A A   1      -8.604  12.142  66.298  1.00  0.00    -0.071 OA 
BRANCH  15  22
ATOM     22  C5*   A A   1     -11.577  10.884  69.481  1.00  0.00    -0.313 C  
ATOM     23  O5*   A A   1     -10.348  10.758  70.192  1.00  0.00    -0.417 OA 
ATOM     24  H5*   A A   1     -10.466  11.009  71.101  1.00  0.00     0.000 HD 
ENDBRANCH  15  22
ENDBRANCH  12  13
TORSDOF 2
ENDMDL
MODEL      146
REMARK 921   NORMALIZED FREE ENERGY PREDICTED BY IDOCK:   -3.92 KCAL/MOL
REMARK 922        TOTAL FREE ENERGY PREDICTED BY IDOCK:   -4.44 KCAL/MOL
REMARK 923 INTER-LIGAND FREE ENERGY PREDICTED BY IDOCK:   -4.57 KCAL/MOL
REMARK 924 INTRA-LIGAND FREE ENERGY PREDICTED BY IDOCK:    0.13 KCAL/MOL
REMARK 927      BINDING AFFINITY PREDICTED BY RF-SCORE:    0.00 PKD
ROOT
ATOM      1  N6    A A   1      -8.971   7.721  72.739  1.00  0.00    -0.162 NA 
ATOM      2  C6    A A   1      -8.759   8.488  71.599  1.00  0.00    -0.199 A  
ATOM      3  H62   A A   1      -8.297   7.995  73.453  1.00  0.00     0.000 HD 
ATOM      4  H61   A A   1      -9.905   7.710  73.150  1.00  0.00     0.000 HD 
ATOM      5  N1    A A   1      -7.524   8.502  71.055  1.00  0.00    -0.071 NA 
ATOM      6  C2    A A   1      -7.321   9.248  69.947  1.00  0.00    -0.074 A  
ATOM      7  N3    A A   1      -8.214  10.003  69.263  1.00  0.00    -0.134 NA 
ATOM      8  C4    A A   1      -9.425   9.958  69.845  1.00  0.00    -0.220 A  
ATOM      9  C5    A A   1      -9.776   9.231  70.978  1.00  0.00    -0.271 A  
ATOM     10  N7    A A   1     -11.114   9.377  71.265  1.00  0.00    -0.348 NA 
ATOM     11  C8    A A   1     -11.565  10.189  70.337  1.00  0.00    -0.316 A  
ATOM     12  N9    A A   1     -10.578  10.586  69.461  1.00  0.00    -0.237 NA 
ENDROOT
BRANCH  12  13
ATOM     13  C1*   A A   1     -10.847  11.466  68.348  1.00  0.00    -0.207 C  
ATOM     14  O4*   A A   1     -11.496  10.663  67.334  1.00  0.00    -0.436 OA 
ATOM     15  C4*   A A   1     -10.492  10.276  66.360  1.00  0.00    -0.163 C  
ATOM     16  C3*   A A   1      -9.309  11.239  66.503  1.00  0.00    -0.185 C  
ATOM     17  H2*   A A   1      -8.020  13.245  67.879  1.00  0.00     0.000 HD 
ATOM     18  C2*   A A   1      -9.753  12.216  67.588  1.00  0.00    -0.188 C  
ATOM     19  O3*   A A   1      -9.054  11.919  65.268  1.00  0.00    -0.421 OA 
ATOM     20  H3*   A A   1      -8.320  12.516  65.357  1.00  0.00     0.000 HD 
ATOM     21  O2*   A A   1      -8.700  12.780  68.351  1.00  0.00    -0.178 OA 
BRANCH  15  22
ATOM     22  C5*   A A   1     -10.073   8.823  66.617  1.00  0.00    -0.288 C  
ATOM     23  O5*   A A   1     -11.055   8.158  67.408  1.00  0.00    -0.470 OA 
ATOM     24  H5*   A A   1     -10.796   7.258  67.567  1.00  0.00     0.000 HD 
ENDBRANCH  15  22
ENDBRANCH  12  13
TORSDOF 2
ENDMDL
MODEL      147
REMARK 921   NORMALIZED FREE ENERGY PREDICTED BY IDOCK:   -3.88 KCAL/MOL
REMARK 922        TOTAL FREE ENERGY PREDICTED BY IDOCK:   -4.40 KCAL/MOL
REMARK 923 INTER-LIGAND FREE ENERGY PREDICTED BY IDOCK:   -4.59 KCAL/MOL
REMARK 924 INTRA-LIGAND FREE ENERGY PREDICTED BY IDOCK:    0.20 KCAL/MOL
REMARK 927      BINDING AFFINITY PREDICTED BY RF-SCORE:    0.00 PKD
ROOT
ATOM      1  N6    A A   1      -8.338   2.507  72.101  1.00  0.00    -0.058 NA 
ATOM      2  C6    A A   1      -9.347   3.434  72.331  1.00  0.00    -0.111 A  
ATOM      3  H62   A A   1      -8.684   1.576  72.331  1.00  0.00     0.000 HD 
ATOM      4  H61   A A   1      -7.903   2.481  71.178  1.00  0.00     0.000 HD 
ATOM      5  N1    A A   1      -9.922   3.470  73.551  1.00  0.00    -0.109 NA 
ATOM      6  C2    A A   1     -10.902   4.372  73.772  1.00  0.00    -0.287 A  
ATOM      7  N3    A A   1     -11.404   5.297  72.919  1.00  0.00    -0.310 NA 
ATOM      8  C4    A A   1     -10.802   5.220  71.720  1.00  0.00    -0.128 A  
ATOM      9  C5    A A   1      -9.780   4.349  71.358  1.00  0.00    -0.178 A  
ATOM     10  N7    A A   1      -9.366   4.582  70.066  1.00  0.00    -0.136 NA 
ATOM     11  C8    A A   1     -10.131   5.561  69.644  1.00  0.00    -0.239 A  
ATOM     12  N9    A A   1     -11.032   5.974  70.602  1.00  0.00    -0.302 NA 
ENDROOT
BRANCH  12  13
ATOM     13  C1*   A A   1     -11.964   7.053  70.366  1.00  0.00    -0.207 C  
ATOM     14  O4*   A A   1     -11.174   8.258  70.230  1.00  0.00    -0.249 OA 
ATOM     15  C4*   A A   1     -11.198   8.954  71.504  1.00  0.00    -0.326 C  
ATOM     16  C3*   A A   1     -12.400   8.432  72.297  1.00  0.00    -0.376 C  
ATOM     17  H2*   A A   1     -14.452   6.623  72.603  1.00  0.00     0.000 HD 
ATOM     18  C2*   A A   1     -13.067   7.438  71.352  1.00  0.00    -0.350 C  
ATOM     19  O3*   A A   1     -13.291   9.503  72.635  1.00  0.00    -0.602 OA 
ATOM     20  H3*   A A   1     -14.036   9.179  73.127  1.00  0.00     0.000 HD 
ATOM     21  O2*   A A   1     -13.766   6.383  71.990  1.00  0.00    -0.015 OA 
BRANCH  15  22
ATOM     22  C5*   A A   1      -9.878   8.700  72.243  1.00  0.00    -0.289 C  
ATOM     23  O5*   A A   1     -10.095   7.842  73.360  1.00  0.00    -0.322 OA 
ATOM     24  H5*   A A   1      -9.278   7.684  73.818  1.00  0.00     0.000 HD 
ENDBRANCH  15  22
ENDBRANCH  12  13
TORSDOF 2
ENDMDL
MODEL      148
REMARK 921   NORMALIZED FREE ENERGY PREDICTED BY IDOCK:   -3.85 KCAL/MOL
REMARK 922        TOTAL FREE ENERGY PREDICTED BY IDOCK:   -4.37 KCAL/MOL
REMARK 923 INTER-LIGAND FREE ENERGY PREDICTED BY IDOCK:   -4.89 KCAL/MOL
REMARK 924 INTRA-LIGAND FREE ENERGY PREDICTED BY IDOCK:    0.51 KCAL/MOL
REMARK 927      BINDING AFFINITY PREDICTED BY RF-SCORE:    0.00 PKD
ROOT
ATOM      1  N6    A A   1     -10.964   7.121  70.571  1.00  0.00    -0.253 NA 
ATOM      2  C6    A A   1     -10.658   7.559  69.288  1.00  0.00    -0.210 A  
ATOM      3  H62   A A   1     -10.520   6.217  70.728  1.00  0.00     0.000 HD 
ATOM      4  H61   A A   1     -10.753   7.736  71.357  1.00  0.00     0.000 HD 
ATOM      5  N1    A A   1     -10.938   6.746  68.248  1.00  0.00    -0.224 NA 
ATOM      6  C2    A A   1     -10.640   7.175  67.002  1.00  0.00    -0.343 A  
ATOM      7  N3    A A   1     -10.093   8.355  66.624  1.00  0.00    -0.287 NA 
ATOM      8  C4    A A   1      -9.832   9.126  67.694  1.00  0.00    -0.172 A  
ATOM      9  C5    A A   1     -10.092   8.816  69.025  1.00  0.00    -0.198 A  
ATOM     10  N7    A A   1      -9.742   9.858  69.853  1.00  0.00    -0.236 NA 
ATOM     11  C8    A A   1      -9.264  10.777  69.046  1.00  0.00    -0.146 A  
ATOM     12  N9    A A   1      -9.279  10.377  67.727  1.00  0.00    -0.141 NA 
ENDROOT
BRANCH  12  13
ATOM     13  C1*   A A   1      -8.816  11.233  66.660  1.00  0.00    -0.175 C  
ATOM     14  O4*   A A   1      -9.067  12.594  67.084  1.00  0.00    -0.195 OA 
ATOM     15  C4*   A A   1     -10.301  13.037  66.462  1.00  0.00    -0.274 C  
ATOM     16  C3*   A A   1     -10.573  12.121  65.264  1.00  0.00    -0.281 C  
ATOM     17  H2*   A A   1      -9.985   9.859  63.809  1.00  0.00     0.000 HD 
ATOM     18  C2*   A A   1      -9.376  11.176  65.238  1.00  0.00    -0.219 C  
ATOM     19  O3*   A A   1     -10.659  12.881  64.052  1.00  0.00    -0.405 OA 
ATOM     20  H3*   A A   1     -10.827  12.314  63.310  1.00  0.00     0.000 HD 
ATOM     21  O2*   A A   1      -9.638   9.895  64.692  1.00  0.00    -0.299 OA 
BRANCH  15  22
ATOM     22  C5*   A A   1     -11.437  12.973  67.492  1.00  0.00    -0.328 C  
ATOM     23  O5*   A A   1     -12.174  11.763  67.339  1.00  0.00    -0.501 OA 
ATOM     24  H5*   A A   1     -12.878  11.723  67.977  1.00  0.00     0.000 HD 
ENDBRANCH  15  22
ENDBRANCH  12  13
TORSDOF 2
ENDMDL
MODEL      149
REMARK 921   NORMALIZED FREE ENERGY PREDICTED BY IDOCK:   -3.83 KCAL/MOL
REMARK 922        TOTAL FREE ENERGY PREDICTED BY IDOCK:   -4.35 KCAL/MOL
REMARK 923 INTER-LIGAND FREE ENERGY PREDICTED BY IDOCK:   -5.66 KCAL/MOL
REMARK 924 INTRA-LIGAND FREE ENERGY PREDICTED BY IDOCK:    1.31 KCAL/MOL
REMARK 927      BINDING AFFINITY PREDICTED BY RF-SCORE:    0.00 PKD
ROOT
ATOM      1  N6    A A   1     -10.894  19.400  65.158  1.00  0.00    -0.286 NA 
ATOM      2  C6    A A   1     -10.772  18.091  65.607  1.00  0.00    -0.043 A  
ATOM      3  H62   A A   1     -11.749  19.485  64.610  1.00  0.00     0.000 HD 
ATOM      4  H61   A A   1     -10.865  20.154  65.845  1.00  0.00     0.000 HD 
ATOM      5  N1    A A   1     -10.810  17.094  64.698  1.00  0.00    -0.747 NA 
ATOM      6  C2    A A   1     -10.691  15.822  65.136  1.00  0.00    -0.435 A  
ATOM      7  N3    A A   1     -10.514  15.381  66.405  1.00  0.00    -0.295 NA 
ATOM      8  C4    A A   1     -10.485  16.409  67.270  1.00  0.00    -0.303 A  
ATOM      9  C5    A A   1     -10.589  17.760  66.959  1.00  0.00    -0.262 A  
ATOM     10  N7    A A   1     -10.468  18.539  68.087  1.00  0.00    -0.358 NA 
ATOM     11  C8    A A   1     -10.311  17.680  69.067  1.00  0.00    -0.272 A  
ATOM     12  N9    A A   1     -10.331  16.373  68.629  1.00  0.00    -0.256 NA 
ENDROOT
BRANCH  12  13
ATOM     13  C1*   A A   1     -10.160  15.258  69.531  1.00  0.00    -0.256 C  
ATOM     14  O4*   A A   1     -10.310  14.058  68.736  1.00  0.00    -0.240 OA 
ATOM     15  C4*   A A   1     -11.665  13.569  68.915  1.00  0.00    -0.339 C  
ATOM     16  C3*   A A   1     -12.219  14.193  70.200  1.00  0.00    -0.351 C  
ATOM     17  H2*   A A   1     -11.991  15.999  72.266  1.00  0.00     0.000 HD 
ATOM     18  C2*   A A   1     -11.056  15.017  70.746  1.00  0.00    -0.190 C  
ATOM     19  O3*   A A   1     -12.613  13.176  71.130  1.00  0.00    -0.370 OA 
ATOM     20  H3*   A A   1     -12.956  13.563  71.927  1.00  0.00     0.000 HD 
ATOM     21  O2*   A A   1     -11.434  16.149  71.511  1.00  0.00    -0.417 OA 
BRANCH  15  22
ATOM     22  C5*   A A   1     -12.506  13.955  67.691  1.00  0.00     0.181 C  
ATOM     23  O5*   A A   1     -12.397  12.955  66.682  1.00  0.00    -0.422 OA 
ATOM     24  H5*   A A   1     -12.918  13.194  65.924  1.00  0.00     0.000 HD 
ENDBRANCH  15  22
ENDBRANCH  12  13
TORSDOF 2
ENDMDL
MODEL      150
REMARK 921   NORMALIZED FREE ENERGY PREDICTED BY IDOCK:   -3.80 KCAL/MOL
REMARK 922        TOTAL FREE ENERGY PREDICTED BY IDOCK:   -4.32 KCAL/MOL
REMARK 923 INTER-LIGAND FREE ENERGY PREDICTED BY IDOCK:   -5.25 KCAL/MOL
REMARK 924 INTRA-LIGAND FREE ENERGY PREDICTED BY IDOCK:    0.93 KCAL/MOL
REMARK 927      BINDING AFFINITY PREDICTED BY RF-SCORE:    0.00 PKD
ROOT
ATOM      1  N6    A A   1     -11.977  12.870  66.662  1.00  0.00    -0.420 NA 
ATOM      2  C6    A A   1     -11.233  11.749  67.012  1.00  0.00    -0.322 A  
ATOM      3  H62   A A   1     -12.300  12.767  65.701  1.00  0.00     0.000 HD 
ATOM      4  H61   A A   1     -12.768  13.131  67.252  1.00  0.00     0.000 HD 
ATOM      5  N1    A A   1     -10.187  11.403  66.233  1.00  0.00    -0.225 NA 
ATOM      6  C2    A A   1      -9.466  10.314  66.576  1.00  0.00    -0.171 A  
ATOM      7  N3    A A   1      -9.634   9.492  67.639  1.00  0.00    -0.134 NA 
ATOM      8  C4    A A   1     -10.687   9.876  68.381  1.00  0.00    -0.232 A  
ATOM      9  C5    A A   1     -11.509  10.975  68.150  1.00  0.00    -0.302 A  
ATOM     10  N7    A A   1     -12.458  11.098  69.139  1.00  0.00    -0.360 NA 
ATOM     11  C8    A A   1     -12.231  10.088  69.945  1.00  0.00     0.107 A  
ATOM     12  N9    A A   1     -11.179   9.304  69.522  1.00  0.00    -0.076 NA 
ENDROOT
BRANCH  12  13
ATOM     13  C1*   A A   1     -10.737   8.146  70.263  1.00  0.00    -0.235 C  
ATOM     14  O4*   A A   1     -11.898   7.635  70.960  1.00  0.00    -0.293 OA 
ATOM     15  C4*   A A   1     -11.849   8.120  72.327  1.00  0.00    -0.382 C  
ATOM     16  C3*   A A   1     -10.405   8.539  72.620  1.00  0.00    -0.165 C  
ATOM     17  H2*   A A   1      -7.845   9.051  71.746  1.00  0.00     0.000 HD 
ATOM     18  C2*   A A   1      -9.651   8.202  71.338  1.00  0.00    -0.165 C  
ATOM     19  O3*   A A   1      -9.880   7.810  73.736  1.00  0.00    -0.332 OA 
ATOM     20  H3*   A A   1      -8.985   8.070  73.918  1.00  0.00     0.000 HD 
ATOM     21  O2*   A A   1      -8.520   9.016  71.078  1.00  0.00    -0.185 OA 
BRANCH  15  22
ATOM     22  C5*   A A   1     -12.822   9.297  72.480  1.00  0.00    -0.281 C  
ATOM     23  O5*   A A   1     -14.047   8.853  73.057  1.00  0.00    -1.075 OA 
ATOM     24  H5*   A A   1     -14.650   9.581  73.152  1.00  0.00     0.000 HD 
ENDBRANCH  15  22
ENDBRANCH  12  13
TORSDOF 2
ENDMDL
MODEL      151
REMARK 921   NORMALIZED FREE ENERGY PREDICTED BY IDOCK:   -3.78 KCAL/MOL
REMARK 922        TOTAL FREE ENERGY PREDICTED BY IDOCK:   -4.29 KCAL/MOL
REMARK 923 INTER-LIGAND FREE ENERGY PREDICTED BY IDOCK:   -4.72 KCAL/MOL
REMARK 924 INTRA-LIGAND FREE ENERGY PREDICTED BY IDOCK:    0.43 KCAL/MOL
REMARK 927      BINDING AFFINITY PREDICTED BY RF-SCORE:    0.00 PKD
ROOT
ATOM      1  N6    A A   1      -9.141   8.424  64.860  1.00  0.00    -0.377 NA 
ATOM      2  C6    A A   1      -9.804   9.514  65.409  1.00  0.00    -0.177 A  
ATOM      3  H62   A A   1      -9.715   7.590  64.982  1.00  0.00     0.000 HD 
ATOM      4  H61   A A   1      -8.838   8.479  63.887  1.00  0.00     0.000 HD 
ATOM      5  N1    A A   1     -10.204   9.442  66.696  1.00  0.00    -0.258 NA 
ATOM      6  C2    A A   1     -10.849  10.503  67.228  1.00  0.00    -0.279 A  
ATOM      7  N3    A A   1     -11.151  11.686  66.641  1.00  0.00    -0.300 NA 
ATOM      8  C4    A A   1     -10.734  11.708  65.364  1.00  0.00    -0.287 A  
ATOM      9  C5    A A   1     -10.057  10.695  64.693  1.00  0.00    -0.349 A  
ATOM     10  N7    A A   1      -9.740  11.077  63.410  1.00  0.00    -0.312 NA 
ATOM     11  C8    A A   1     -10.228  12.290  63.295  1.00  0.00    -0.203 A  
ATOM     12  N9    A A   1     -10.857  12.714  64.445  1.00  0.00    -0.332 NA 
ENDROOT
BRANCH  12  13
ATOM     13  C1*   A A   1     -11.455  14.025  64.555  1.00  0.00    -0.370 C  
ATOM     14  O4*   A A   1     -10.370  14.954  64.791  1.00  0.00    -0.368 OA 
ATOM     15  C4*   A A   1     -10.312  15.222  66.217  1.00  0.00    -0.294 C  
ATOM     16  C3*   A A   1     -11.667  14.836  66.818  1.00  0.00    -0.298 C  
ATOM     17  H2*   A A   1     -14.137  13.646  66.565  1.00  0.00     0.000 HD 
ATOM     18  C2*   A A   1     -12.494  14.386  65.617  1.00  0.00    -0.333 C  
ATOM     19  O3*   A A   1     -12.272  15.958  67.472  1.00  0.00     0.261 OA 
ATOM     20  H3*   A A   1     -13.112  15.718  67.844  1.00  0.00     0.000 HD 
ATOM     21  O2*   A A   1     -13.491  13.421  65.906  1.00  0.00    -0.044 OA 
BRANCH  15  22
ATOM     22  C5*   A A   1      -9.166  14.411  66.836  1.00  0.00    -0.254 C  
ATOM     23  O5*   A A   1      -8.315  15.262  67.598  1.00  0.00    -0.149 OA 
ATOM     24  H5*   A A   1      -7.605  14.760  67.981  1.00  0.00     0.000 HD 
ENDBRANCH  15  22
ENDBRANCH  12  13
TORSDOF 2
ENDMDL
MODEL      152
REMARK 921   NORMALIZED FREE ENERGY PREDICTED BY IDOCK:   -3.78 KCAL/MOL
REMARK 922        TOTAL FREE ENERGY PREDICTED BY IDOCK:   -4.29 KCAL/MOL
REMARK 923 INTER-LIGAND FREE ENERGY PREDICTED BY IDOCK:   -4.23 KCAL/MOL
REMARK 924 INTRA-LIGAND FREE ENERGY PREDICTED BY IDOCK:   -0.05 KCAL/MOL
REMARK 927      BINDING AFFINITY PREDICTED BY RF-SCORE:    0.00 PKD
ROOT
ATOM      1  N6    A A   1     -10.735   6.592  74.120  1.00  0.00    -0.417 NA 
ATOM      2  C6    A A   1      -9.796   6.757  73.108  1.00  0.00    -0.179 A  
ATOM      3  H62   A A   1     -10.623   7.341  74.802  1.00  0.00     0.000 HD 
ATOM      4  H61   A A   1     -11.720   6.522  73.862  1.00  0.00     0.000 HD 
ATOM      5  N1    A A   1      -8.494   6.848  73.449  1.00  0.00    -0.119 NA 
ATOM      6  C2    A A   1      -7.583   7.008  72.465  1.00  0.00    -0.089 A  
ATOM      7  N3    A A   1      -7.791   7.077  71.128  1.00  0.00    -0.098 NA 
ATOM      8  C4    A A   1      -9.100   6.983  70.840  1.00  0.00    -0.153 A  
ATOM      9  C5    A A   1     -10.140   6.811  71.748  1.00  0.00    -0.182 A  
ATOM     10  N7    A A   1     -11.350   6.704  71.101  1.00  0.00    -0.290 NA 
ATOM     11  C8    A A   1     -11.056   6.826  69.828  1.00  0.00    -0.316 A  
ATOM     12  N9    A A   1      -9.707   7.016  69.615  1.00  0.00    -0.157 NA 
ENDROOT
BRANCH  12  13
ATOM     13  C1*   A A   1      -9.151   7.157  68.289  1.00  0.00    -0.134 C  
ATOM     14  O4*   A A   1      -8.313   8.336  68.318  1.00  0.00    -0.129 OA 
ATOM     15  C4*   A A   1      -9.073   9.440  67.760  1.00  0.00    -0.125 C  
ATOM     16  C3*   A A   1     -10.221   8.846  66.937  1.00  0.00    -0.276 C  
ATOM     17  H2*   A A   1     -11.722   6.673  66.159  1.00  0.00     0.000 HD 
ATOM     18  C2*   A A   1     -10.009   7.338  67.036  1.00  0.00    -0.224 C  
ATOM     19  O3*   A A   1     -10.154   9.289  65.576  1.00  0.00    -0.404 OA 
ATOM     20  H3*   A A   1     -10.865   8.920  65.066  1.00  0.00     0.000 HD 
ATOM     21  O2*   A A   1     -11.190   6.561  66.938  1.00  0.00    -0.387 OA 
BRANCH  15  22
ATOM     22  C5*   A A   1      -9.594  10.322  68.903  1.00  0.00    -0.190 C  
ATOM     23  O5*   A A   1      -8.637  10.380  69.957  1.00  0.00    -0.365 OA 
ATOM     24  H5*   A A   1      -8.960  10.926  70.665  1.00  0.00     0.000 HD 
ENDBRANCH  15  22
ENDBRANCH  12  13
TORSDOF 2
ENDMDL
MODEL      153
REMARK 921   NORMALIZED FREE ENERGY PREDICTED BY IDOCK:   -3.76 KCAL/MOL
REMARK 922        TOTAL FREE ENERGY PREDICTED BY IDOCK:   -4.27 KCAL/MOL
REMARK 923 INTER-LIGAND FREE ENERGY PREDICTED BY IDOCK:   -4.92 KCAL/MOL
REMARK 924 INTRA-LIGAND FREE ENERGY PREDICTED BY IDOCK:    0.65 KCAL/MOL
REMARK 927      BINDING AFFINITY PREDICTED BY RF-SCORE:    0.00 PKD
ROOT
ATOM      1  N6    A A   1     -12.680  14.538  69.619  1.00  0.00    -0.540 NA 
ATOM      2  C6    A A   1     -12.156  13.643  68.694  1.00  0.00    -0.290 A  
ATOM      3  H62   A A   1     -13.570  14.893  69.270  1.00  0.00     0.000 HD 
ATOM      4  H61   A A   1     -12.801  14.225  70.582  1.00  0.00     0.000 HD 
ATOM      5  N1    A A   1     -11.994  14.057  67.419  1.00  0.00    -0.409 NA 
ATOM      6  C2    A A   1     -11.484  13.186  66.523  1.00  0.00    -0.338 A  
ATOM      7  N3    A A   1     -11.079  11.909  66.724  1.00  0.00    -0.292 NA 
ATOM      8  C4    A A   1     -11.262  11.544  68.005  1.00  0.00    -0.269 A  
ATOM      9  C5    A A   1     -11.767  12.337  69.030  1.00  0.00    -0.324 A  
ATOM     10  N7    A A   1     -11.769  11.656  70.226  1.00  0.00    -0.308 NA 
ATOM     11  C8    A A   1     -11.291  10.470  69.933  1.00  0.00    -0.309 A  
ATOM     12  N9    A A   1     -10.983  10.343  68.596  1.00  0.00    -0.229 NA 
ENDROOT
BRANCH  12  13
ATOM     13  C1*   A A   1     -10.426   9.128  68.048  1.00  0.00    -0.224 C  
ATOM     14  O4*   A A   1     -10.396   8.164  69.127  1.00  0.00    -0.215 OA 
ATOM     15  C4*   A A   1      -9.051   8.146  69.674  1.00  0.00    -0.151 C  
ATOM     16  C3*   A A   1      -8.113   8.747  68.622  1.00  0.00    -0.116 C  
ATOM     17  H2*   A A   1      -7.740  10.082  66.243  1.00  0.00     0.000 HD 
ATOM     18  C2*   A A   1      -9.026   9.049  67.437  1.00  0.00    -0.124 C  
ATOM     19  O3*   A A   1      -7.089   7.812  68.260  1.00  0.00    -0.079 OA 
ATOM     20  H3*   A A   1      -6.508   8.185  67.608  1.00  0.00     0.000 HD 
ATOM     21  O2*   A A   1      -8.610  10.131  66.623  1.00  0.00    -0.125 OA 
BRANCH  15  22
ATOM     22  C5*   A A   1      -9.026   8.951  70.980  1.00  0.00    -0.241 C  
ATOM     23  O5*   A A   1      -7.699   9.379  71.271  1.00  0.00    -0.336 OA 
ATOM     24  H5*   A A   1      -7.683   9.878  72.079  1.00  0.00     0.000 HD 
ENDBRANCH  15  22
ENDBRANCH  12  13
TORSDOF 2
ENDMDL
MODEL      154
REMARK 921   NORMALIZED FREE ENERGY PREDICTED BY IDOCK:   -3.76 KCAL/MOL
REMARK 922        TOTAL FREE ENERGY PREDICTED BY IDOCK:   -4.26 KCAL/MOL
REMARK 923 INTER-LIGAND FREE ENERGY PREDICTED BY IDOCK:   -4.27 KCAL/MOL
REMARK 924 INTRA-LIGAND FREE ENERGY PREDICTED BY IDOCK:    0.01 KCAL/MOL
REMARK 927      BINDING AFFINITY PREDICTED BY RF-SCORE:    0.00 PKD
ROOT
ATOM      1  N6    A A   1      -7.094   6.948  67.719  1.00  0.00    -0.083 NA 
ATOM      2  C6    A A   1      -8.305   7.610  67.555  1.00  0.00    -0.120 A  
ATOM      3  H62   A A   1      -6.988   6.261  66.974  1.00  0.00     0.000 HD 
ATOM      4  H61   A A   1      -6.241   7.504  67.782  1.00  0.00     0.000 HD 
ATOM      5  N1    A A   1      -9.433   6.874  67.473  1.00  0.00    -0.127 NA 
ATOM      6  C2    A A   1     -10.609   7.520  67.314  1.00  0.00    -0.324 A  
ATOM      7  N3    A A   1     -10.835   8.853  67.238  1.00  0.00    -0.132 NA 
ATOM      8  C4    A A   1      -9.683   9.540  67.323  1.00  0.00    -0.167 A  
ATOM      9  C5    A A   1      -8.409   9.008  67.493  1.00  0.00    -0.116 A  
ATOM     10  N7    A A   1      -7.466  10.005  67.589  1.00  0.00    -0.090 NA 
ATOM     11  C8    A A   1      -8.147  11.120  67.463  1.00  0.00    -0.119 A  
ATOM     12  N9    A A   1      -9.495  10.894  67.281  1.00  0.00    -0.159 NA 
ENDROOT
BRANCH  12  13
ATOM     13  C1*   A A   1     -10.442  11.975  67.137  1.00  0.00    -0.220 C  
ATOM     14  O4*   A A   1     -11.383  11.566  66.116  1.00  0.00    -0.266 OA 
ATOM     15  C4*   A A   1     -10.984  12.185  64.865  1.00  0.00    -0.309 C  
ATOM     16  C3*   A A   1     -10.073  13.370  65.202  1.00  0.00    -0.246 C  
ATOM     17  H2*   A A   1      -8.601  14.801  67.037  1.00  0.00     0.000 HD 
ATOM     18  C2*   A A   1     -10.039  13.393  66.727  1.00  0.00    -0.260 C  
ATOM     19  O3*   A A   1     -10.610  14.590  64.678  1.00  0.00    -0.554 OA 
ATOM     20  H3*   A A   1     -10.045  15.325  64.887  1.00  0.00     0.000 HD 
ATOM     21  O2*   A A   1      -8.851  13.920  67.291  1.00  0.00    -0.200 OA 
BRANCH  15  22
ATOM     22  C5*   A A   1     -10.264  11.147  63.995  1.00  0.00    -0.361 C  
ATOM     23  O5*   A A   1      -8.935  11.577  63.711  1.00  0.00    -0.422 OA 
ATOM     24  H5*   A A   1      -8.489  10.934  63.172  1.00  0.00     0.000 HD 
ENDBRANCH  15  22
ENDBRANCH  12  13
TORSDOF 2
ENDMDL
MODEL      155
REMARK 921   NORMALIZED FREE ENERGY PREDICTED BY IDOCK:   -3.74 KCAL/MOL
REMARK 922        TOTAL FREE ENERGY PREDICTED BY IDOCK:   -4.25 KCAL/MOL
REMARK 923 INTER-LIGAND FREE ENERGY PREDICTED BY IDOCK:   -5.23 KCAL/MOL
REMARK 924 INTRA-LIGAND FREE ENERGY PREDICTED BY IDOCK:    0.98 KCAL/MOL
REMARK 927      BINDING AFFINITY PREDICTED BY RF-SCORE:    0.00 PKD
ROOT
ATOM      1  N6    A A   1     -13.069  13.199  72.131  1.00  0.00    -0.394 NA 
ATOM      2  C6    A A   1     -12.355  13.149  70.939  1.00  0.00    -0.307 A  
ATOM      3  H62   A A   1     -12.688  12.507  72.776  1.00  0.00     0.000 HD 
ATOM      4  H61   A A   1     -13.146  14.095  72.613  1.00  0.00     0.000 HD 
ATOM      5  N1    A A   1     -12.253  11.964  70.301  1.00  0.00    -0.299 NA 
ATOM      6  C2    A A   1     -11.559  11.918  69.144  1.00  0.00    -0.312 A  
ATOM      7  N3    A A   1     -10.938  12.930  68.492  1.00  0.00    -0.249 NA 
ATOM      8  C4    A A   1     -11.067  14.085  69.167  1.00  0.00    -0.259 A  
ATOM      9  C5    A A   1     -11.755  14.278  70.360  1.00  0.00    -0.262 A  
ATOM     10  N7    A A   1     -11.723  15.600  70.742  1.00  0.00    -0.338 NA 
ATOM     11  C8    A A   1     -11.017  16.197  69.810  1.00  0.00    -0.349 A  
ATOM     12  N9    A A   1     -10.579  15.321  68.841  1.00  0.00    -0.233 NA 
ENDROOT
BRANCH  12  13
ATOM     13  C1*   A A   1      -9.798  15.758  67.707  1.00  0.00    -0.224 C  
ATOM     14  O4*   A A   1      -8.947  16.829  68.181  1.00  0.00    -0.212 OA 
ATOM     15  C4*   A A   1      -9.571  18.089  67.821  1.00  0.00    -0.278 C  
ATOM     16  C3*   A A   1     -10.572  17.808  66.696  1.00  0.00    -0.223 C  
ATOM     17  H2*   A A   1     -11.972  16.019  65.140  1.00  0.00     0.000 HD 
ATOM     18  C2*   A A   1     -10.420  16.315  66.425  1.00  0.00    -0.294 C  
ATOM     19  O3*   A A   1     -10.259  18.580  65.531  1.00  0.00    -0.493 OA 
ATOM     20  H3*   A A   1     -10.880  18.406  64.834  1.00  0.00     0.000 HD 
ATOM     21  O2*   A A   1     -11.586  15.674  65.937  1.00  0.00     0.050 OA 
BRANCH  15  22
ATOM     22  C5*   A A   1     -10.259  18.683  69.057  1.00  0.00    -0.130 C  
ATOM     23  O5*   A A   1     -10.673  20.021  68.797  1.00  0.00    -0.426 OA 
ATOM     24  H5*   A A   1     -11.099  20.389  69.562  1.00  0.00     0.000 HD 
ENDBRANCH  15  22
ENDBRANCH  12  13
TORSDOF 2
ENDMDL
MODEL      156
REMARK 921   NORMALIZED FREE ENERGY PREDICTED BY IDOCK:   -3.69 KCAL/MOL
REMARK 922        TOTAL FREE ENERGY PREDICTED BY IDOCK:   -4.19 KCAL/MOL
REMARK 923 INTER-LIGAND FREE ENERGY PREDICTED BY IDOCK:   -4.94 KCAL/MOL
REMARK 924 INTRA-LIGAND FREE ENERGY PREDICTED BY IDOCK:    0.76 KCAL/MOL
REMARK 927      BINDING AFFINITY PREDICTED BY RF-SCORE:    0.00 PKD
ROOT
ATOM      1  N6    A A   1      -9.649   7.230  69.006  1.00  0.00    -0.147 NA 
ATOM      2  C6    A A   1     -10.369   8.311  69.499  1.00  0.00    -0.219 A  
ATOM      3  H62   A A   1     -10.180   6.375  69.170  1.00  0.00     0.000 HD 
ATOM      4  H61   A A   1      -9.347   7.251  68.031  1.00  0.00     0.000 HD 
ATOM      5  N1    A A   1     -10.768   8.284  70.788  1.00  0.00    -0.214 NA 
ATOM      6  C2    A A   1     -11.467   9.336  71.264  1.00  0.00    -0.347 A  
ATOM      7  N3    A A   1     -11.829  10.471  70.618  1.00  0.00    -0.333 NA 
ATOM      8  C4    A A   1     -11.411  10.449  69.341  1.00  0.00    -0.250 A  
ATOM      9  C5    A A   1     -10.680   9.439  68.723  1.00  0.00    -0.171 A  
ATOM     10  N7    A A   1     -10.381   9.771  67.421  1.00  0.00    -0.223 NA 
ATOM     11  C8    A A   1     -10.930  10.950  67.245  1.00  0.00    -0.294 A  
ATOM     12  N9    A A   1     -11.583  11.399  68.372  1.00  0.00    -0.356 NA 
ENDROOT
BRANCH  12  13
ATOM     13  C1*   A A   1     -12.248  12.681  68.415  1.00  0.00     0.103 C  
ATOM     14  O4*   A A   1     -11.744  13.444  67.293  1.00  0.00    -0.337 OA 
ATOM     15  C4*   A A   1     -10.708  14.333  67.786  1.00  0.00    -0.251 C  
ATOM     16  C3*   A A   1     -10.896  14.474  69.300  1.00  0.00    -0.252 C  
ATOM     17  H2*   A A   1     -12.116  13.676  71.636  1.00  0.00     0.000 HD 
ATOM     18  C2*   A A   1     -12.139  13.642  69.600  1.00  0.00    -0.321 C  
ATOM     19  O3*   A A   1     -11.091  15.846  69.663  1.00  0.00    -0.269 OA 
ATOM     20  H3*   A A   1     -11.208  15.932  70.602  1.00  0.00     0.000 HD 
ATOM     21  O2*   A A   1     -12.183  13.079  70.900  1.00  0.00    -0.354 OA 
BRANCH  15  22
ATOM     22  C5*   A A   1      -9.333  13.748  67.438  1.00  0.00    -0.226 C  
ATOM     23  O5*   A A   1      -9.125  13.779  66.029  1.00  0.00    -0.484 OA 
ATOM     24  H5*   A A   1      -8.274  13.417  65.813  1.00  0.00     0.000 HD 
ENDBRANCH  15  22
ENDBRANCH  12  13
TORSDOF 2
ENDMDL
MODEL      157
REMARK 921   NORMALIZED FREE ENERGY PREDICTED BY IDOCK:   -3.65 KCAL/MOL
REMARK 922        TOTAL FREE ENERGY PREDICTED BY IDOCK:   -4.14 KCAL/MOL
REMARK 923 INTER-LIGAND FREE ENERGY PREDICTED BY IDOCK:   -4.12 KCAL/MOL
REMARK 924 INTRA-LIGAND FREE ENERGY PREDICTED BY IDOCK:   -0.02 KCAL/MOL
REMARK 927      BINDING AFFINITY PREDICTED BY RF-SCORE:    0.00 PKD
ROOT
ATOM      1  N6    A A   1      -8.070   9.372  65.699  1.00  0.00    -0.109 NA 
ATOM      2  C6    A A   1      -8.986  10.099  66.449  1.00  0.00    -0.144 A  
ATOM      3  H62   A A   1      -8.516   9.069  64.834  1.00  0.00     0.000 HD 
ATOM      4  H61   A A   1      -7.172   9.803  65.478  1.00  0.00     0.000 HD 
ATOM      5  N1    A A   1     -10.174   9.529  66.743  1.00  0.00    -0.244 NA 
ATOM      6  C2    A A   1     -11.062  10.239  67.472  1.00  0.00    -0.232 A  
ATOM      7  N3    A A   1     -10.926  11.484  67.988  1.00  0.00    -0.215 NA 
ATOM      8  C4    A A   1      -9.731  12.009  67.666  1.00  0.00    -0.187 A  
ATOM      9  C5    A A   1      -8.724  11.391  66.932  1.00  0.00    -0.165 A  
ATOM     10  N7    A A   1      -7.614  12.200  66.837  1.00  0.00    -0.084 NA 
ATOM     11  C8    A A   1      -7.944  13.293  67.484  1.00  0.00    -0.184 A  
ATOM     12  N9    A A   1      -9.225  13.236  67.992  1.00  0.00    -0.211 NA 
ENDROOT
BRANCH  12  13
ATOM     13  C1*   A A   1      -9.796  14.320  68.757  1.00  0.00    -0.189 C  
ATOM     14  O4*   A A   1     -10.766  14.965  67.899  1.00  0.00    -0.256 OA 
ATOM     15  C4*   A A   1     -10.140  16.140  67.319  1.00  0.00    -0.265 C  
ATOM     16  C3*   A A   1      -8.933  16.502  68.190  1.00  0.00    -0.207 C  
ATOM     17  H2*   A A   1      -7.190  15.878  70.228  1.00  0.00     0.000 HD 
ATOM     18  C2*   A A   1      -8.968  15.477  69.320  1.00  0.00    -0.267 C  
ATOM     19  O3*   A A   1      -9.054  17.836  68.698  1.00  0.00    -0.287 OA 
ATOM     20  H3*   A A   1      -8.305  18.060  69.239  1.00  0.00     0.000 HD 
ATOM     21  O2*   A A   1      -7.704  15.160  69.879  1.00  0.00    -0.160 OA 
BRANCH  15  22
ATOM     22  C5*   A A   1      -9.723  15.829  65.875  1.00  0.00    -0.354 C  
ATOM     23  O5*   A A   1     -10.762  15.121  65.203  1.00  0.00    -0.362 OA 
ATOM     24  H5*   A A   1     -10.504  14.928  64.309  1.00  0.00     0.000 HD 
ENDBRANCH  15  22
ENDBRANCH  12  13
TORSDOF 2
ENDMDL
MODEL      158
REMARK 921   NORMALIZED FREE ENERGY PREDICTED BY IDOCK:   -3.61 KCAL/MOL
REMARK 922        TOTAL FREE ENERGY PREDICTED BY IDOCK:   -4.10 KCAL/MOL
REMARK 923 INTER-LIGAND FREE ENERGY PREDICTED BY IDOCK:   -4.53 KCAL/MOL
REMARK 924 INTRA-LIGAND FREE ENERGY PREDICTED BY IDOCK:    0.43 KCAL/MOL
REMARK 927      BINDING AFFINITY PREDICTED BY RF-SCORE:    0.00 PKD
ROOT
ATOM      1  N6    A A   1     -11.554  15.280  63.951  1.00  0.00    -0.655 NA 
ATOM      2  C6    A A   1     -11.234  13.945  64.166  1.00  0.00    -0.158 A  
ATOM      3  H62   A A   1     -12.564  15.397  64.032  1.00  0.00     0.000 HD 
ATOM      4  H61   A A   1     -11.091  15.989  64.520  1.00  0.00     0.000 HD 
ATOM      5  N1    A A   1     -11.846  13.008  63.412  1.00  0.00    -0.524 NA 
ATOM      6  C2    A A   1     -11.533  11.711  63.623  1.00  0.00    -0.363 A  
ATOM      7  N3    A A   1     -10.647  11.191  64.505  1.00  0.00    -0.338 NA 
ATOM      8  C4    A A   1     -10.067  12.161  65.231  1.00  0.00    -0.265 A  
ATOM      9  C5    A A   1     -10.288  13.530  65.116  1.00  0.00    -0.353 A  
ATOM     10  N7    A A   1      -9.486  14.235  65.984  1.00  0.00    -0.234 NA 
ATOM     11  C8    A A   1      -8.803  13.316  66.625  1.00  0.00    -0.058 A  
ATOM     12  N9    A A   1      -9.130  12.040  66.220  1.00  0.00    -0.197 NA 
ENDROOT
BRANCH  12  13
ATOM     13  C1*   A A   1      -8.491  10.871  66.777  1.00  0.00    -0.139 C  
ATOM     14  O4*   A A   1      -7.200  10.759  66.132  1.00  0.00    -0.134 OA 
ATOM     15  C4*   A A   1      -7.316   9.783  65.064  1.00  0.00    -0.128 C  
ATOM     16  C3*   A A   1      -8.554   8.926  65.349  1.00  0.00    -0.176 C  
ATOM     17  H2*   A A   1     -10.849   8.458  66.797  1.00  0.00     0.000 HD 
ATOM     18  C2*   A A   1      -9.082   9.464  66.676  1.00  0.00    -0.149 C  
ATOM     19  O3*   A A   1      -8.202   7.542  65.456  1.00  0.00    -0.124 OA 
ATOM     20  H3*   A A   1      -8.969   7.011  65.633  1.00  0.00     0.000 HD 
ATOM     21  O2*   A A   1     -10.481   9.332  66.860  1.00  0.00    -0.248 OA 
BRANCH  15  22
ATOM     22  C5*   A A   1      -7.432  10.516  63.721  1.00  0.00     0.079 C  
ATOM     23  O5*   A A   1      -6.148  10.954  63.285  1.00  0.00    -0.370 OA 
ATOM     24  H5*   A A   1      -6.219  11.408  62.454  1.00  0.00     0.000 HD 
ENDBRANCH  15  22
ENDBRANCH  12  13
TORSDOF 2
ENDMDL
MODEL      159
REMARK 921   NORMALIZED FREE ENERGY PREDICTED BY IDOCK:   -3.58 KCAL/MOL
REMARK 922        TOTAL FREE ENERGY PREDICTED BY IDOCK:   -4.07 KCAL/MOL
REMARK 923 INTER-LIGAND FREE ENERGY PREDICTED BY IDOCK:   -4.24 KCAL/MOL
REMARK 924 INTRA-LIGAND FREE ENERGY PREDICTED BY IDOCK:    0.17 KCAL/MOL
REMARK 927      BINDING AFFINITY PREDICTED BY RF-SCORE:    0.00 PKD
ROOT
ATOM      1  N6    A A   1      -8.881   5.356  68.516  1.00  0.00    -0.101 NA 
ATOM      2  C6    A A   1      -9.420   6.621  68.719  1.00  0.00    -0.129 A  
ATOM      3  H62   A A   1      -9.548   4.656  68.839  1.00  0.00     0.000 HD 
ATOM      4  H61   A A   1      -8.566   5.107  67.579  1.00  0.00     0.000 HD 
ATOM      5  N1    A A   1      -9.837   6.951  69.959  1.00  0.00    -0.173 NA 
ATOM      6  C2    A A   1     -10.359   8.181  70.153  1.00  0.00    -0.215 A  
ATOM      7  N3    A A   1     -10.519   9.181  69.253  1.00  0.00    -0.219 NA 
ATOM      8  C4    A A   1     -10.092   8.803  68.036  1.00  0.00    -0.196 A  
ATOM      9  C5    A A   1      -9.529   7.577  67.697  1.00  0.00    -0.138 A  
ATOM     10  N7    A A   1      -9.160   7.553  66.371  1.00  0.00    -0.168 NA 
ATOM     11  C8    A A   1      -9.505   8.732  65.909  1.00  0.00    -0.208 A  
ATOM     12  N9    A A   1     -10.091   9.523  66.873  1.00  0.00    -0.213 NA 
ENDROOT
BRANCH  12  13
ATOM     13  C1*   A A   1     -10.535  10.869  66.596  1.00  0.00    -0.254 C  
ATOM     14  O4*   A A   1      -9.349  11.641  66.293  1.00  0.00    -0.206 OA 
ATOM     15  C4*   A A   1      -8.968  12.365  67.492  1.00  0.00    -0.183 C  
ATOM     16  C3*   A A   1     -10.194  12.424  68.409  1.00  0.00    -0.225 C  
ATOM     17  H2*   A A   1     -12.755  11.622  69.021  1.00  0.00     0.000 HD 
ATOM     18  C2*   A A   1     -11.291  11.728  67.610  1.00  0.00    -0.302 C  
ATOM     19  O3*   A A   1     -10.547  13.782  68.700  1.00  0.00    -0.246 OA 
ATOM     20  H3*   A A   1     -11.307  13.818  69.268  1.00  0.00     0.000 HD 
ATOM     21  O2*   A A   1     -12.286  11.088  68.391  1.00  0.00    -0.586 OA 
BRANCH  15  22
ATOM     22  C5*   A A   1      -7.792  11.644  68.165  1.00  0.00    -0.133 C  
ATOM     23  O5*   A A   1      -8.084  11.398  69.538  1.00  0.00    -0.345 OA 
ATOM     24  H5*   A A   1      -7.356  10.952  69.954  1.00  0.00     0.000 HD 
ENDBRANCH  15  22
ENDBRANCH  12  13
TORSDOF 2
ENDMDL
MODEL      160
REMARK 921   NORMALIZED FREE ENERGY PREDICTED BY IDOCK:   -3.57 KCAL/MOL
REMARK 922        TOTAL FREE ENERGY PREDICTED BY IDOCK:   -4.05 KCAL/MOL
REMARK 923 INTER-LIGAND FREE ENERGY PREDICTED BY IDOCK:   -4.08 KCAL/MOL
REMARK 924 INTRA-LIGAND FREE ENERGY PREDICTED BY IDOCK:    0.03 KCAL/MOL
REMARK 927      BINDING AFFINITY PREDICTED BY RF-SCORE:    0.00 PKD
ROOT
ATOM      1  N6    A A   1      -6.889   4.963  74.344  1.00  0.00    -0.071 NA 
ATOM      2  C6    A A   1      -7.797   5.909  73.883  1.00  0.00    -0.099 A  
ATOM      3  H62   A A   1      -6.945   4.916  75.360  1.00  0.00     0.000 HD 
ATOM      4  H61   A A   1      -6.939   4.017  73.964  1.00  0.00     0.000 HD 
ATOM      5  N1    A A   1      -7.730   7.160  74.384  1.00  0.00    -0.119 NA 
ATOM      6  C2    A A   1      -8.614   8.078  73.935  1.00  0.00    -0.262 A  
ATOM      7  N3    A A   1      -9.587   7.926  73.005  1.00  0.00    -0.252 NA 
ATOM      8  C4    A A   1      -9.614   6.666  72.540  1.00  0.00    -0.153 A  
ATOM      9  C5    A A   1      -8.765   5.627  72.906  1.00  0.00    -0.121 A  
ATOM     10  N7    A A   1      -9.045   4.484  72.193  1.00  0.00    -0.124 NA 
ATOM     11  C8    A A   1     -10.053   4.814  71.420  1.00  0.00    -0.189 A  
ATOM     12  N9    A A   1     -10.449   6.121  71.604  1.00  0.00    -0.216 NA 
ENDROOT
BRANCH  12  13
ATOM     13  C1*   A A   1     -11.531   6.709  70.847  1.00  0.00    -0.347 C  
ATOM     14  O4*   A A   1     -11.033   6.908  69.503  1.00  0.00    -0.248 OA 
ATOM     15  C4*   A A   1     -10.628   8.297  69.377  1.00  0.00    -0.196 C  
ATOM     16  C3*   A A   1     -11.320   9.086  70.493  1.00  0.00    -0.243 C  
ATOM     17  H2*   A A   1     -12.809   9.138  72.808  1.00  0.00     0.000 HD 
ATOM     18  C2*   A A   1     -12.177   8.047  71.209  1.00  0.00    -0.287 C  
ATOM     19  O3*   A A   1     -12.129  10.135  69.947  1.00  0.00    -0.454 OA 
ATOM     20  H3*   A A   1     -12.559  10.625  70.638  1.00  0.00     0.000 HD 
ATOM     21  O2*   A A   1     -12.407   8.307  72.583  1.00  0.00    -0.338 OA 
BRANCH  15  22
ATOM     22  C5*   A A   1      -9.100   8.388  69.484  1.00  0.00    -0.153 C  
ATOM     23  O5*   A A   1      -8.730   9.384  70.434  1.00  0.00    -0.208 OA 
ATOM     24  H5*   A A   1      -7.784   9.441  70.500  1.00  0.00     0.000 HD 
ENDBRANCH  15  22
ENDBRANCH  12  13
TORSDOF 2
ENDMDL
MODEL      161
REMARK 921   NORMALIZED FREE ENERGY PREDICTED BY IDOCK:   -3.53 KCAL/MOL
REMARK 922        TOTAL FREE ENERGY PREDICTED BY IDOCK:   -4.01 KCAL/MOL
REMARK 923 INTER-LIGAND FREE ENERGY PREDICTED BY IDOCK:   -4.63 KCAL/MOL
REMARK 924 INTRA-LIGAND FREE ENERGY PREDICTED BY IDOCK:    0.62 KCAL/MOL
REMARK 927      BINDING AFFINITY PREDICTED BY RF-SCORE:    0.00 PKD
ROOT
ATOM      1  N6    A A   1      -6.480   7.927  67.367  1.00  0.00    -0.055 NA 
ATOM      2  C6    A A   1      -7.783   8.353  67.137  1.00  0.00    -0.097 A  
ATOM      3  H62   A A   1      -6.246   7.198  66.694  1.00  0.00     0.000 HD 
ATOM      4  H61   A A   1      -5.735   8.624  67.375  1.00  0.00     0.000 HD 
ATOM      5  N1    A A   1      -8.768   7.432  67.127  1.00  0.00    -0.120 NA 
ATOM      6  C2    A A   1     -10.033   7.849  66.903  1.00  0.00    -0.262 A  
ATOM      7  N3    A A   1     -10.481   9.110  66.695  1.00  0.00    -0.214 NA 
ATOM      8  C4    A A   1      -9.464   9.989  66.711  1.00  0.00    -0.168 A  
ATOM      9  C5    A A   1      -8.121   9.701  66.935  1.00  0.00    -0.113 A  
ATOM     10  N7    A A   1      -7.362  10.849  66.932  1.00  0.00    -0.121 NA 
ATOM     11  C8    A A   1      -8.220  11.813  66.695  1.00  0.00    -0.117 A  
ATOM     12  N9    A A   1      -9.506  11.344  66.535  1.00  0.00    -0.195 NA 
ENDROOT
BRANCH  12  13
ATOM     13  C1*   A A   1     -10.620  12.229  66.283  1.00  0.00    -0.251 C  
ATOM     14  O4*   A A   1     -10.061  13.545  66.066  1.00  0.00    -0.297 OA 
ATOM     15  C4*   A A   1     -10.175  14.290  67.306  1.00  0.00    -0.252 C  
ATOM     16  C3*   A A   1     -11.244  13.606  68.163  1.00  0.00    -0.275 C  
ATOM     17  H2*   A A   1     -12.935  11.481  68.620  1.00  0.00     0.000 HD 
ATOM     18  C2*   A A   1     -11.749  12.463  67.287  1.00  0.00    -0.349 C  
ATOM     19  O3*   A A   1     -12.301  14.518  68.483  1.00  0.00    -0.587 OA 
ATOM     20  H3*   A A   1     -12.964  14.094  69.014  1.00  0.00     0.000 HD 
ATOM     21  O2*   A A   1     -12.233  11.336  67.996  1.00  0.00    -0.621 OA 
BRANCH  15  22
ATOM     22  C5*   A A   1      -8.812  14.309  68.011  1.00  0.00    -0.178 C  
ATOM     23  O5*   A A   1      -8.986  14.255  69.424  1.00  0.00    -0.362 OA 
ATOM     24  H5*   A A   1      -8.142  14.267  69.860  1.00  0.00     0.000 HD 
ENDBRANCH  15  22
ENDBRANCH  12  13
TORSDOF 2
ENDMDL
MODEL      162
REMARK 921   NORMALIZED FREE ENERGY PREDICTED BY IDOCK:   -3.50 KCAL/MOL
REMARK 922        TOTAL FREE ENERGY PREDICTED BY IDOCK:   -3.98 KCAL/MOL
REMARK 923 INTER-LIGAND FREE ENERGY PREDICTED BY IDOCK:   -4.04 KCAL/MOL
REMARK 924 INTRA-LIGAND FREE ENERGY PREDICTED BY IDOCK:    0.06 KCAL/MOL
REMARK 927      BINDING AFFINITY PREDICTED BY RF-SCORE:    0.00 PKD
ROOT
ATOM      1  N6    A A   1      -5.902  13.173  71.166  1.00  0.00    -0.520 NA 
ATOM      2  C6    A A   1      -6.411  12.779  69.934  1.00  0.00    -0.030 A  
ATOM      3  H62   A A   1      -6.394  14.011  71.475  1.00  0.00     0.000 HD 
ATOM      4  H61   A A   1      -5.893  12.493  71.927  1.00  0.00     0.000 HD 
ATOM      5  N1    A A   1      -6.423  13.678  68.927  1.00  0.00    -0.095 NA 
ATOM      6  C2    A A   1      -6.918  13.292  67.731  1.00  0.00    -0.153 A  
ATOM      7  N3    A A   1      -7.409  12.082  67.371  1.00  0.00    -0.139 NA 
ATOM      8  C4    A A   1      -7.377  11.226  68.407  1.00  0.00    -0.097 A  
ATOM      9  C5    A A   1      -6.892  11.484  69.684  1.00  0.00    -0.038 A  
ATOM     10  N7    A A   1      -6.967  10.363  70.478  1.00  0.00    -0.308 NA 
ATOM     11  C8    A A   1      -7.502   9.446  69.707  1.00  0.00    -0.087 A  
ATOM     12  N9    A A   1      -7.787   9.921  68.445  1.00  0.00    -0.084 NA 
ENDROOT
BRANCH  12  13
ATOM     13  C1*   A A   1      -8.365   9.083  67.421  1.00  0.00    -0.112 C  
ATOM     14  O4*   A A   1      -9.524   9.786  66.917  1.00  0.00    -0.151 OA 
ATOM     15  C4*   A A   1     -10.700   9.237  67.568  1.00  0.00    -0.203 C  
ATOM     16  C3*   A A   1     -10.323   7.860  68.123  1.00  0.00    -0.200 C  
ATOM     17  H2*   A A   1      -8.413   5.964  68.707  1.00  0.00     0.000 HD 
ATOM     18  C2*   A A   1      -8.874   7.665  67.686  1.00  0.00    -0.125 C  
ATOM     19  O3*   A A   1     -11.169   6.841  67.575  1.00  0.00    -0.558 OA 
ATOM     20  H3*   A A   1     -10.935   5.988  67.919  1.00  0.00     0.000 HD 
ATOM     21  O2*   A A   1      -8.097   6.845  68.542  1.00  0.00    -0.118 OA 
BRANCH  15  22
ATOM     22  C5*   A A   1     -11.152  10.191  68.681  1.00  0.00    -0.205 C  
ATOM     23  O5*   A A   1     -12.405  10.782  68.346  1.00  0.00    -0.813 OA 
ATOM     24  H5*   A A   1     -12.685  11.373  69.035  1.00  0.00     0.000 HD 
ENDBRANCH  15  22
ENDBRANCH  12  13
TORSDOF 2
ENDMDL
MODEL      163
REMARK 921   NORMALIZED FREE ENERGY PREDICTED BY IDOCK:   -3.47 KCAL/MOL
REMARK 922        TOTAL FREE ENERGY PREDICTED BY IDOCK:   -3.94 KCAL/MOL
REMARK 923 INTER-LIGAND FREE ENERGY PREDICTED BY IDOCK:   -4.17 KCAL/MOL
REMARK 924 INTRA-LIGAND FREE ENERGY PREDICTED BY IDOCK:    0.23 KCAL/MOL
REMARK 927      BINDING AFFINITY PREDICTED BY RF-SCORE:    0.00 PKD
ROOT
ATOM      1  N6    A A   1     -11.457   3.987  73.332  1.00  0.00    -0.190 NA 
ATOM      2  C6    A A   1     -10.657   4.910  72.669  1.00  0.00    -0.215 A  
ATOM      3  H62   A A   1     -11.074   3.824  74.262  1.00  0.00     0.000 HD 
ATOM      4  H61   A A   1     -12.455   4.180  73.413  1.00  0.00     0.000 HD 
ATOM      5  N1    A A   1      -9.336   4.655  72.561  1.00  0.00    -0.130 NA 
ATOM      6  C2    A A   1      -8.561   5.554  71.916  1.00  0.00    -0.131 A  
ATOM      7  N3    A A   1      -8.930   6.714  71.322  1.00  0.00    -0.144 NA 
ATOM      8  C4    A A   1     -10.251   6.923  71.458  1.00  0.00    -0.196 A  
ATOM      9  C5    A A   1     -11.164   6.083  72.089  1.00  0.00    -0.291 A  
ATOM     10  N7    A A   1     -12.442   6.586  71.997  1.00  0.00    -0.292 NA 
ATOM     11  C8    A A   1     -12.309   7.714  71.340  1.00  0.00    -0.333 A  
ATOM     12  N9    A A   1     -10.997   7.975  71.005  1.00  0.00    -0.236 NA 
ENDROOT
BRANCH  12  13
ATOM     13  C1*   A A   1     -10.615   9.155  70.264  1.00  0.00    -0.223 C  
ATOM     14  O4*   A A   1     -11.151   8.995  68.930  1.00  0.00    -0.021 OA 
ATOM     15  C4*   A A   1     -10.084   8.511  68.073  1.00  0.00    -0.200 C  
ATOM     16  C3*   A A   1      -8.753   8.827  68.764  1.00  0.00    -0.137 C  
ATOM     17  H2*   A A   1      -7.360   9.674  70.982  1.00  0.00     0.000 HD 
ATOM     18  C2*   A A   1      -9.160   9.565  70.036  1.00  0.00    -0.227 C  
ATOM     19  O3*   A A   1      -7.929   9.649  67.929  1.00  0.00    -0.097 OA 
ATOM     20  H3*   A A   1      -7.104   9.845  68.357  1.00  0.00     0.000 HD 
ATOM     21  O2*   A A   1      -8.264   9.418  71.124  1.00  0.00    -0.314 OA 
BRANCH  15  22
ATOM     22  C5*   A A   1     -10.262   7.004  67.848  1.00  0.00    -0.183 C  
ATOM     23  O5*   A A   1     -11.639   6.650  67.937  1.00  0.00    -0.608 OA 
ATOM     24  H5*   A A   1     -11.749   5.717  67.799  1.00  0.00     0.000 HD 
ENDBRANCH  15  22
ENDBRANCH  12  13
TORSDOF 2
ENDMDL
MODEL      164
REMARK 921   NORMALIZED FREE ENERGY PREDICTED BY IDOCK:   -3.45 KCAL/MOL
REMARK 922        TOTAL FREE ENERGY PREDICTED BY IDOCK:   -3.92 KCAL/MOL
REMARK 923 INTER-LIGAND FREE ENERGY PREDICTED BY IDOCK:   -3.71 KCAL/MOL
REMARK 924 INTRA-LIGAND FREE ENERGY PREDICTED BY IDOCK:   -0.21 KCAL/MOL
REMARK 927      BINDING AFFINITY PREDICTED BY RF-SCORE:    0.00 PKD
ROOT
ATOM      1  N6    A A   1      -7.552   4.617  68.613  1.00  0.00    -0.068 NA 
ATOM      2  C6    A A   1      -8.611   5.360  68.104  1.00  0.00    -0.096 A  
ATOM      3  H62   A A   1      -7.240   3.956  67.903  1.00  0.00     0.000 HD 
ATOM      4  H61   A A   1      -6.742   5.116  68.981  1.00  0.00     0.000 HD 
ATOM      5  N1    A A   1      -9.683   4.701  67.617  1.00  0.00    -0.166 NA 
ATOM      6  C2    A A   1     -10.711   5.425  67.123  1.00  0.00    -0.123 A  
ATOM      7  N3    A A   1     -10.838   6.772  67.056  1.00  0.00    -0.376 NA 
ATOM      8  C4    A A   1      -9.746   7.381  67.550  1.00  0.00    -0.148 A  
ATOM      9  C5    A A   1      -8.624   6.764  68.094  1.00  0.00    -0.120 A  
ATOM     10  N7    A A   1      -7.719   7.695  68.549  1.00  0.00    -0.116 NA 
ATOM     11  C8    A A   1      -8.269   8.854  68.274  1.00  0.00    -0.121 A  
ATOM     12  N9    A A   1      -9.492   8.721  67.652  1.00  0.00    -0.139 NA 
ENDROOT
BRANCH  12  13
ATOM     13  C1*   A A   1     -10.288   9.865  67.271  1.00  0.00    -0.245 C  
ATOM     14  O4*   A A   1     -10.518   9.752  65.847  1.00  0.00    -0.148 OA 
ATOM     15  C4*   A A   1      -9.560  10.608  65.170  1.00  0.00    -0.251 C  
ATOM     16  C3*   A A   1      -9.046  11.628  66.190  1.00  0.00    -0.203 C  
ATOM     17  H2*   A A   1      -8.865  12.520  68.789  1.00  0.00     0.000 HD 
ATOM     18  C2*   A A   1      -9.825  11.310  67.462  1.00  0.00    -0.178 C  
ATOM     19  O3*   A A   1      -9.304  12.966  65.747  1.00  0.00    -0.461 OA 
ATOM     20  H3*   A A   1      -8.985  13.598  66.379  1.00  0.00     0.000 HD 
ATOM     21  O2*   A A   1      -9.152  11.623  68.670  1.00  0.00    -0.173 OA 
BRANCH  15  22
ATOM     22  C5*   A A   1      -8.422   9.745  64.609  1.00  0.00    -0.172 C  
ATOM     23  O5*   A A   1      -8.812   8.375  64.573  1.00  0.00    -0.413 OA 
ATOM     24  H5*   A A   1      -8.108   7.841  64.226  1.00  0.00     0.000 HD 
ENDBRANCH  15  22
ENDBRANCH  12  13
TORSDOF 2
ENDMDL
MODEL      165
REMARK 921   NORMALIZED FREE ENERGY PREDICTED BY IDOCK:   -3.38 KCAL/MOL
REMARK 922        TOTAL FREE ENERGY PREDICTED BY IDOCK:   -3.84 KCAL/MOL
REMARK 923 INTER-LIGAND FREE ENERGY PREDICTED BY IDOCK:   -4.59 KCAL/MOL
REMARK 924 INTRA-LIGAND FREE ENERGY PREDICTED BY IDOCK:    0.75 KCAL/MOL
REMARK 927      BINDING AFFINITY PREDICTED BY RF-SCORE:    0.00 PKD
ROOT
ATOM      1  N6    A A   1     -11.273  14.941  66.548  1.00  0.00    -0.343 NA 
ATOM      2  C6    A A   1     -10.280  14.072  66.983  1.00  0.00    -0.261 A  
ATOM      3  H62   A A   1     -11.002  15.330  65.646  1.00  0.00     0.000 HD 
ATOM      4  H61   A A   1     -12.230  14.592  66.485  1.00  0.00     0.000 HD 
ATOM      5  N1    A A   1      -9.014  14.533  67.067  1.00  0.00    -0.229 NA 
ATOM      6  C2    A A   1      -8.051  13.686  67.490  1.00  0.00    -0.184 A  
ATOM      7  N3    A A   1      -8.174  12.393  67.875  1.00  0.00    -0.152 NA 
ATOM      8  C4    A A   1      -9.450  11.981  67.771  1.00  0.00    -0.190 A  
ATOM      9  C5    A A   1     -10.538  12.744  67.358  1.00  0.00    -0.229 A  
ATOM     10  N7    A A   1     -11.704  12.016  67.421  1.00  0.00    -0.541 NA 
ATOM     11  C8    A A   1     -11.333  10.831  67.846  1.00  0.00    -0.299 A  
ATOM     12  N9    A A   1      -9.973  10.751  68.057  1.00  0.00    -0.161 NA 
ENDROOT
BRANCH  12  13
ATOM     13  C1*   A A   1      -9.341   9.546  68.543  1.00  0.00    -0.137 C  
ATOM     14  O4*   A A   1     -10.408   8.655  68.947  1.00  0.00    -0.208 OA 
ATOM     15  C4*   A A   1     -10.560   8.763  70.386  1.00  0.00    -0.221 C  
ATOM     16  C3*   A A   1      -9.266   9.361  70.947  1.00  0.00    -0.173 C  
ATOM     17  H2*   A A   1      -6.826  10.570  70.544  1.00  0.00     0.000 HD 
ATOM     18  C2*   A A   1      -8.370   9.526  69.724  1.00  0.00    -0.164 C  
ATOM     19  O3*   A A   1      -8.672   8.479  71.908  1.00  0.00    -0.176 OA 
ATOM     20  H3*   A A   1      -7.870   8.850  72.256  1.00  0.00     0.000 HD 
ATOM     21  O2*   A A   1      -7.429  10.583  69.810  1.00  0.00    -0.154 OA 
BRANCH  15  22
ATOM     22  C5*   A A   1     -11.775   9.646  70.700  1.00  0.00    -0.280 C  
ATOM     23  O5*   A A   1     -12.901   8.838  71.029  1.00  0.00    -0.492 OA 
ATOM     24  H5*   A A   1     -13.653   9.385  71.223  1.00  0.00     0.000 HD 
ENDBRANCH  15  22
ENDBRANCH  12  13
TORSDOF 2
ENDMDL
MODEL      166
REMARK 921   NORMALIZED FREE ENERGY PREDICTED BY IDOCK:   -3.36 KCAL/MOL
REMARK 922        TOTAL FREE ENERGY PREDICTED BY IDOCK:   -3.82 KCAL/MOL
REMARK 923 INTER-LIGAND FREE ENERGY PREDICTED BY IDOCK:   -4.10 KCAL/MOL
REMARK 924 INTRA-LIGAND FREE ENERGY PREDICTED BY IDOCK:    0.28 KCAL/MOL
REMARK 927      BINDING AFFINITY PREDICTED BY RF-SCORE:    0.00 PKD
ROOT
ATOM      1  N6    A A   1      -7.328  17.420  66.207  1.00  0.00    -0.292 NA 
ATOM      2  C6    A A   1      -7.535  16.373  67.097  1.00  0.00    -0.192 A  
ATOM      3  H62   A A   1      -6.396  17.332  65.802  1.00  0.00     0.000 HD 
ATOM      4  H61   A A   1      -8.004  17.560  65.456  1.00  0.00     0.000 HD 
ATOM      5  N1    A A   1      -6.641  16.188  68.091  1.00  0.00    -0.119 NA 
ATOM      6  C2    A A   1      -6.845  15.170  68.954  1.00  0.00    -0.120 A  
ATOM      7  N3    A A   1      -7.865  14.280  68.983  1.00  0.00    -0.091 NA 
ATOM      8  C4    A A   1      -8.725  14.504  67.974  1.00  0.00    -0.167 A  
ATOM      9  C5    A A   1      -8.642  15.514  67.021  1.00  0.00    -0.233 A  
ATOM     10  N7    A A   1      -9.721  15.478  66.167  1.00  0.00    -0.293 NA 
ATOM     11  C8    A A   1     -10.437  14.458  66.581  1.00  0.00    -0.274 A  
ATOM     12  N9    A A   1      -9.868  13.821  67.663  1.00  0.00    -0.229 NA 
ENDROOT
BRANCH  12  13
ATOM     13  C1*   A A   1     -10.490  12.682  68.297  1.00  0.00    -0.239 C  
ATOM     14  O4*   A A   1      -9.421  11.898  68.876  1.00  0.00    -0.056 OA 
ATOM     15  C4*   A A   1      -9.119  10.810  67.963  1.00  0.00    -0.150 C  
ATOM     16  C3*   A A   1     -10.327  10.630  67.038  1.00  0.00    -0.231 C  
ATOM     17  H2*   A A   1     -12.750  11.517  66.080  1.00  0.00     0.000 HD 
ATOM     18  C2*   A A   1     -11.336  11.659  67.538  1.00  0.00    -0.298 C  
ATOM     19  O3*   A A   1     -10.851   9.300  67.138  1.00  0.00    -0.293 OA 
ATOM     20  H3*   A A   1     -11.599   9.189  66.564  1.00  0.00     0.000 HD 
ATOM     21  O2*   A A   1     -12.224  12.153  66.551  1.00  0.00    -0.584 OA 
BRANCH  15  22
ATOM     22  C5*   A A   1      -7.847  11.151  67.175  1.00  0.00    -0.139 C  
ATOM     23  O5*   A A   1      -7.530  10.097  66.269  1.00  0.00    -0.102 OA 
ATOM     24  H5*   A A   1      -6.743  10.308  65.781  1.00  0.00     0.000 HD 
ENDBRANCH  15  22
ENDBRANCH  12  13
TORSDOF 2
ENDMDL
MODEL      167
REMARK 921   NORMALIZED FREE ENERGY PREDICTED BY IDOCK:   -3.36 KCAL/MOL
REMARK 922        TOTAL FREE ENERGY PREDICTED BY IDOCK:   -3.82 KCAL/MOL
REMARK 923 INTER-LIGAND FREE ENERGY PREDICTED BY IDOCK:   -4.08 KCAL/MOL
REMARK 924 INTRA-LIGAND FREE ENERGY PREDICTED BY IDOCK:    0.26 KCAL/MOL
REMARK 927      BINDING AFFINITY PREDICTED BY RF-SCORE:    0.00 PKD
ROOT
ATOM      1  N6    A A   1      -7.990   4.819  68.141  1.00  0.00    -0.085 NA 
ATOM      2  C6    A A   1      -8.779   5.902  67.775  1.00  0.00    -0.104 A  
ATOM      3  H62   A A   1      -8.110   4.074  67.455  1.00  0.00     0.000 HD 
ATOM      4  H61   A A   1      -6.993   4.973  68.294  1.00  0.00     0.000 HD 
ATOM      5  N1    A A   1     -10.098   5.698  67.574  1.00  0.00    -0.158 NA 
ATOM      6  C2    A A   1     -10.863   6.753  67.218  1.00  0.00    -0.373 A  
ATOM      7  N3    A A   1     -10.490   8.043  67.041  1.00  0.00    -0.340 NA 
ATOM      8  C4    A A   1      -9.170   8.194  67.250  1.00  0.00    -0.138 A  
ATOM      9  C5    A A   1      -8.270   7.202  67.625  1.00  0.00    -0.114 A  
ATOM     10  N7    A A   1      -7.008   7.721  67.800  1.00  0.00    -0.078 NA 
ATOM     11  C8    A A   1      -7.132   8.997  67.522  1.00  0.00    -0.076 A  
ATOM     12  N9    A A   1      -8.420   9.334  67.164  1.00  0.00    -0.123 NA 
ENDROOT
BRANCH  12  13
ATOM     13  C1*   A A   1      -8.795  10.689  66.832  1.00  0.00    -0.138 C  
ATOM     14  O4*   A A   1      -8.961  11.390  68.087  1.00  0.00    -0.156 OA 
ATOM     15  C4*   A A   1     -10.379  11.423  68.397  1.00  0.00    -0.195 C  
ATOM     16  C3*   A A   1     -11.146  11.164  67.096  1.00  0.00    -0.287 C  
ATOM     17  H2*   A A   1     -11.163  10.426  64.444  1.00  0.00     0.000 HD 
ATOM     18  C2*   A A   1     -10.054  11.039  66.038  1.00  0.00    -0.247 C  
ATOM     19  O3*   A A   1     -12.030  12.252  66.801  1.00  0.00    -0.586 OA 
ATOM     20  H3*   A A   1     -12.505  12.092  65.995  1.00  0.00     0.000 HD 
ATOM     21  O2*   A A   1     -10.381  10.208  64.937  1.00  0.00    -0.236 OA 
BRANCH  15  22
ATOM     22  C5*   A A   1     -10.688  10.358  69.458  1.00  0.00    -0.251 C  
ATOM     23  O5*   A A   1      -9.555  10.154  70.297  1.00  0.00    -0.394 OA 
ATOM     24  H5*   A A   1      -9.746   9.495  70.954  1.00  0.00     0.000 HD 
ENDBRANCH  15  22
ENDBRANCH  12  13
TORSDOF 2
ENDMDL
MODEL      168
REMARK 921   NORMALIZED FREE ENERGY PREDICTED BY IDOCK:   -3.34 KCAL/MOL
REMARK 922        TOTAL FREE ENERGY PREDICTED BY IDOCK:   -3.80 KCAL/MOL
REMARK 923 INTER-LIGAND FREE ENERGY PREDICTED BY IDOCK:   -3.92 KCAL/MOL
REMARK 924 INTRA-LIGAND FREE ENERGY PREDICTED BY IDOCK:    0.13 KCAL/MOL
REMARK 927      BINDING AFFINITY PREDICTED BY RF-SCORE:    0.00 PKD
ROOT
ATOM      1  N6    A A   1      -8.383   6.472  64.388  1.00  0.00    -0.326 NA 
ATOM      2  C6    A A   1      -8.346   7.855  64.259  1.00  0.00     0.035 A  
ATOM      3  H62   A A   1      -7.428   6.115  64.399  1.00  0.00     0.000 HD 
ATOM      4  H61   A A   1      -8.897   6.071  65.173  1.00  0.00     0.000 HD 
ATOM      5  N1    A A   1      -7.667   8.387  63.221  1.00  0.00    -0.133 NA 
ATOM      6  C2    A A   1      -7.634   9.731  63.099  1.00  0.00    -0.122 A  
ATOM      7  N3    A A   1      -8.219  10.665  63.886  1.00  0.00    -0.059 NA 
ATOM      8  C4    A A   1      -8.880  10.087  64.904  1.00  0.00    -0.192 A  
ATOM      9  C5    A A   1      -9.002   8.723  65.147  1.00  0.00    -0.100 A  
ATOM     10  N7    A A   1      -9.792   8.485  66.249  1.00  0.00    -0.246 NA 
ATOM     11  C8    A A   1     -10.130   9.679  66.678  1.00  0.00    -0.239 A  
ATOM     12  N9    A A   1      -9.589  10.686  65.909  1.00  0.00    -0.195 NA 
ENDROOT
BRANCH  12  13
ATOM     13  C1*   A A   1      -9.840  12.082  66.184  1.00  0.00    -0.235 C  
ATOM     14  O4*   A A   1      -8.668  12.586  66.867  1.00  0.00    -0.200 OA 
ATOM     15  C4*   A A   1      -8.949  12.593  68.291  1.00  0.00    -0.176 C  
ATOM     16  C3*   A A   1     -10.470  12.549  68.466  1.00  0.00    -0.231 C  
ATOM     17  H2*   A A   1     -12.986  12.226  67.394  1.00  0.00     0.000 HD 
ATOM     18  C2*   A A   1     -11.010  12.570  67.039  1.00  0.00    -0.267 C  
ATOM     19  O3*   A A   1     -10.931  13.684  69.210  1.00  0.00    -0.358 OA 
ATOM     20  H3*   A A   1     -11.874  13.656  69.318  1.00  0.00     0.000 HD 
ATOM     21  O2*   A A   1     -12.259  11.923  66.863  1.00  0.00    -0.493 OA 
BRANCH  15  22
ATOM     22  C5*   A A   1      -8.269  11.383  68.946  1.00  0.00    -0.052 C  
ATOM     23  O5*   A A   1      -7.065  11.785  69.594  1.00  0.00    -0.334 OA 
ATOM     24  H5*   A A   1      -6.644  11.036  70.000  1.00  0.00     0.000 HD 
ENDBRANCH  15  22
ENDBRANCH  12  13
TORSDOF 2
ENDMDL
MODEL      169
REMARK 921   NORMALIZED FREE ENERGY PREDICTED BY IDOCK:   -3.34 KCAL/MOL
REMARK 922        TOTAL FREE ENERGY PREDICTED BY IDOCK:   -3.79 KCAL/MOL
REMARK 923 INTER-LIGAND FREE ENERGY PREDICTED BY IDOCK:   -4.40 KCAL/MOL
REMARK 924 INTRA-LIGAND FREE ENERGY PREDICTED BY IDOCK:    0.60 KCAL/MOL
REMARK 927      BINDING AFFINITY PREDICTED BY RF-SCORE:    0.00 PKD
ROOT
ATOM      1  N6    A A   1      -5.126  13.672  68.147  1.00  0.00    -0.100 NA 
ATOM      2  C6    A A   1      -6.320  14.345  67.922  1.00  0.00    -0.162 A  
ATOM      3  H62   A A   1      -4.595  14.168  68.862  1.00  0.00     0.000 HD 
ATOM      4  H61   A A   1      -5.164  12.682  68.388  1.00  0.00     0.000 HD 
ATOM      5  N1    A A   1      -6.270  15.655  67.601  1.00  0.00    -0.151 NA 
ATOM      6  C2    A A   1      -7.432  16.307  67.384  1.00  0.00    -0.161 A  
ATOM      7  N3    A A   1      -8.695  15.817  67.425  1.00  0.00    -0.178 NA 
ATOM      8  C4    A A   1      -8.692  14.512  67.750  1.00  0.00    -0.174 A  
ATOM      9  C5    A A   1      -7.575  13.719  67.993  1.00  0.00    -0.145 A  
ATOM     10  N7    A A   1      -7.939  12.417  68.248  1.00  0.00    -0.154 NA 
ATOM     11  C8    A A   1      -9.250  12.420  68.179  1.00  0.00    -0.205 A  
ATOM     12  N9    A A   1      -9.758  13.669  67.897  1.00  0.00    -0.226 NA 
ENDROOT
BRANCH  12  13
ATOM     13  C1*   A A   1     -11.176  13.907  67.755  1.00  0.00    -0.293 C  
ATOM     14  O4*   A A   1     -11.359  15.343  67.783  1.00  0.00    -0.328 OA 
ATOM     15  C4*   A A   1     -11.763  15.717  69.126  1.00  0.00    -0.390 C  
ATOM     16  C3*   A A   1     -12.303  14.460  69.816  1.00  0.00    -0.285 C  
ATOM     17  H2*   A A   1     -12.685  11.733  69.848  1.00  0.00     0.000 HD 
ATOM     18  C2*   A A   1     -12.217  13.379  68.743  1.00  0.00    -0.115 C  
ATOM     19  O3*   A A   1     -13.656  14.656  70.245  1.00  0.00    -0.424 OA 
ATOM     20  H3*   A A   1     -13.991  13.877  70.673  1.00  0.00     0.000 HD 
ATOM     21  O2*   A A   1     -12.038  12.062  69.234  1.00  0.00    -0.271 OA 
BRANCH  15  22
ATOM     22  C5*   A A   1     -10.556  16.298  69.874  1.00  0.00    -0.280 C  
ATOM     23  O5*   A A   1      -9.857  15.264  70.562  1.00  0.00    -0.357 OA 
ATOM     24  H5*   A A   1      -9.109  15.624  71.025  1.00  0.00     0.000 HD 
ENDBRANCH  15  22
ENDBRANCH  12  13
TORSDOF 2
ENDMDL
MODEL      170
REMARK 921   NORMALIZED FREE ENERGY PREDICTED BY IDOCK:   -3.33 KCAL/MOL
REMARK 922        TOTAL FREE ENERGY PREDICTED BY IDOCK:   -3.79 KCAL/MOL
REMARK 923 INTER-LIGAND FREE ENERGY PREDICTED BY IDOCK:   -4.50 KCAL/MOL
REMARK 924 INTRA-LIGAND FREE ENERGY PREDICTED BY IDOCK:    0.71 KCAL/MOL
REMARK 927      BINDING AFFINITY PREDICTED BY RF-SCORE:    0.00 PKD
ROOT
ATOM      1  N6    A A   1     -11.316  13.914  66.070  1.00  0.00    -0.318 NA 
ATOM      2  C6    A A   1     -10.878  12.618  65.828  1.00  0.00    -0.274 A  
ATOM      3  H62   A A   1     -12.002  14.171  65.361  1.00  0.00     0.000 HD 
ATOM      4  H61   A A   1     -11.693  14.135  66.992  1.00  0.00     0.000 HD 
ATOM      5  N1    A A   1     -10.379  12.325  64.609  1.00  0.00    -0.291 NA 
ATOM      6  C2    A A   1      -9.954  11.064  64.376  1.00  0.00    -0.312 A  
ATOM      7  N3    A A   1      -9.939  10.009  65.225  1.00  0.00    -0.324 NA 
ATOM      8  C4    A A   1     -10.447  10.350  66.422  1.00  0.00    -0.177 A  
ATOM      9  C5    A A   1     -10.912  11.606  66.800  1.00  0.00    -0.290 A  
ATOM     10  N7    A A   1     -11.315  11.608  68.116  1.00  0.00    -0.266 NA 
ATOM     11  C8    A A   1     -11.114  10.378  68.526  1.00  0.00    -0.266 A  
ATOM     12  N9    A A   1     -10.606   9.569  67.533  1.00  0.00    -0.275 NA 
ENDROOT
BRANCH  12  13
ATOM     13  C1*   A A   1     -10.290   8.178  67.762  1.00  0.00    -0.233 C  
ATOM     14  O4*   A A   1     -10.758   7.863  69.095  1.00  0.00    -0.204 OA 
ATOM     15  C4*   A A   1      -9.621   7.929  69.996  1.00  0.00    -0.168 C  
ATOM     16  C3*   A A   1      -8.350   7.813  69.149  1.00  0.00    -0.134 C  
ATOM     17  H2*   A A   1      -7.119   7.767  66.687  1.00  0.00     0.000 HD 
ATOM     18  C2*   A A   1      -8.865   7.625  67.726  1.00  0.00    -0.125 C  
ATOM     19  O3*   A A   1      -7.561   6.691  69.566  1.00  0.00    -0.091 OA 
ATOM     20  H3*   A A   1      -6.773   6.619  69.041  1.00  0.00     0.000 HD 
ATOM     21  O2*   A A   1      -8.004   8.111  66.710  1.00  0.00    -0.100 OA 
BRANCH  15  22
ATOM     22  C5*   A A   1      -9.667   9.253  70.769  1.00  0.00    -0.282 C  
ATOM     23  O5*   A A   1      -9.160   9.072  72.089  1.00  0.00    -0.372 OA 
ATOM     24  H5*   A A   1      -9.188   9.892  72.568  1.00  0.00     0.000 HD 
ENDBRANCH  15  22
ENDBRANCH  12  13
TORSDOF 2
ENDMDL
MODEL      171
REMARK 921   NORMALIZED FREE ENERGY PREDICTED BY IDOCK:   -3.33 KCAL/MOL
REMARK 922        TOTAL FREE ENERGY PREDICTED BY IDOCK:   -3.78 KCAL/MOL
REMARK 923 INTER-LIGAND FREE ENERGY PREDICTED BY IDOCK:   -3.96 KCAL/MOL
REMARK 924 INTRA-LIGAND FREE ENERGY PREDICTED BY IDOCK:    0.18 KCAL/MOL
REMARK 927      BINDING AFFINITY PREDICTED BY RF-SCORE:    0.00 PKD
ROOT
ATOM      1  N6    A A   1     -11.676   7.480  72.896  1.00  0.00    -0.598 NA 
ATOM      2  C6    A A   1     -10.680   7.146  71.986  1.00  0.00    -0.214 A  
ATOM      3  H62   A A   1     -11.254   7.621  73.813  1.00  0.00     0.000 HD 
ATOM      4  H61   A A   1     -12.281   8.273  72.683  1.00  0.00     0.000 HD 
ATOM      5  N1    A A   1      -9.879   6.096  72.267  1.00  0.00    -0.160 NA 
ATOM      6  C2    A A   1      -8.912   5.774  71.381  1.00  0.00    -0.140 A  
ATOM      7  N3    A A   1      -8.624   6.362  70.195  1.00  0.00    -0.134 NA 
ATOM      8  C4    A A   1      -9.446   7.400  69.963  1.00  0.00    -0.161 A  
ATOM      9  C5    A A   1     -10.483   7.837  70.781  1.00  0.00    -0.210 A  
ATOM     10  N7    A A   1     -11.150   8.896  70.209  1.00  0.00    -0.244 NA 
ATOM     11  C8    A A   1     -10.523   9.111  69.076  1.00  0.00    -0.221 A  
ATOM     12  N9    A A   1      -9.470   8.242  68.886  1.00  0.00    -0.151 NA 
ENDROOT
BRANCH  12  13
ATOM     13  C1*   A A   1      -8.647   8.281  67.700  1.00  0.00    -0.130 C  
ATOM     14  O4*   A A   1      -9.493   7.877  66.597  1.00  0.00    -0.184 OA 
ATOM     15  C4*   A A   1      -9.238   6.473  66.330  1.00  0.00    -0.133 C  
ATOM     16  C3*   A A   1      -7.881   6.120  66.948  1.00  0.00    -0.104 C  
ATOM     17  H2*   A A   1      -5.743   6.789  68.547  1.00  0.00     0.000 HD 
ATOM     18  C2*   A A   1      -7.382   7.439  67.529  1.00  0.00    -0.102 C  
ATOM     19  O3*   A A   1      -6.982   5.621  65.950  1.00  0.00    -0.062 OA 
ATOM     20  H3*   A A   1      -6.141   5.402  66.333  1.00  0.00     0.000 HD 
ATOM     21  O2*   A A   1      -6.529   7.312  68.653  1.00  0.00    -0.037 OA 
BRANCH  15  22
ATOM     22  C5*   A A   1     -10.371   5.631  66.932  1.00  0.00    -0.259 C  
ATOM     23  O5*   A A   1     -11.529   6.435  67.137  1.00  0.00    -0.720 OA 
ATOM     24  H5*   A A   1     -12.230   5.914  67.510  1.00  0.00     0.000 HD 
ENDBRANCH  15  22
ENDBRANCH  12  13
TORSDOF 2
ENDMDL
MODEL      172
REMARK 921   NORMALIZED FREE ENERGY PREDICTED BY IDOCK:   -3.26 KCAL/MOL
REMARK 922        TOTAL FREE ENERGY PREDICTED BY IDOCK:   -3.71 KCAL/MOL
REMARK 923 INTER-LIGAND FREE ENERGY PREDICTED BY IDOCK:   -3.94 KCAL/MOL
REMARK 924 INTRA-LIGAND FREE ENERGY PREDICTED BY IDOCK:    0.23 KCAL/MOL
REMARK 927      BINDING AFFINITY PREDICTED BY RF-SCORE:    0.00 PKD
ROOT
ATOM      1  N6    A A   1      -6.100   7.838  74.557  1.00  0.00    -0.088 NA 
ATOM      2  C6    A A   1      -6.792   8.160  73.396  1.00  0.00    -0.116 A  
ATOM      3  H62   A A   1      -5.596   8.662  74.883  1.00  0.00     0.000 HD 
ATOM      4  H61   A A   1      -6.621   7.437  75.337  1.00  0.00     0.000 HD 
ATOM      5  N1    A A   1      -6.102   8.690  72.363  1.00  0.00    -0.074 NA 
ATOM      6  C2    A A   1      -6.777   9.002  71.236  1.00  0.00    -0.085 A  
ATOM      7  N3    A A   1      -8.095   8.841  70.970  1.00  0.00    -0.141 NA 
ATOM      8  C4    A A   1      -8.737   8.314  72.027  1.00  0.00    -0.182 A  
ATOM      9  C5    A A   1      -8.169   7.940  73.241  1.00  0.00    -0.182 A  
ATOM     10  N7    A A   1      -9.112   7.389  74.078  1.00  0.00    -0.238 NA 
ATOM     11  C8    A A   1     -10.232   7.440  73.396  1.00  0.00    -0.351 A  
ATOM     12  N9    A A   1     -10.064   8.009  72.152  1.00  0.00    -0.214 NA 
ENDROOT
BRANCH  12  13
ATOM     13  C1*   A A   1     -11.158   8.153  71.220  1.00  0.00    -0.248 C  
ATOM     14  O4*   A A   1     -11.613   6.816  70.907  1.00  0.00    -0.311 OA 
ATOM     15  C4*   A A   1     -11.019   6.424  69.642  1.00  0.00    -0.358 C  
ATOM     16  C3*   A A   1     -10.574   7.702  68.922  1.00  0.00    -0.159 C  
ATOM     17  H2*   A A   1     -10.129  10.418  68.941  1.00  0.00     0.000 HD 
ATOM     18  C2*   A A   1     -11.012   8.827  69.855  1.00  0.00    -0.179 C  
ATOM     19  O3*   A A   1     -11.210   7.813  67.643  1.00  0.00    -0.467 OA 
ATOM     20  H3*   A A   1     -10.934   8.604  67.197  1.00  0.00     0.000 HD 
ATOM     21  O2*   A A   1     -10.219  10.000  69.789  1.00  0.00    -0.223 OA 
BRANCH  15  22
ATOM     22  C5*   A A   1      -9.836   5.484  69.910  1.00  0.00    -0.194 C  
ATOM     23  O5*   A A   1      -8.606   6.195  69.797  1.00  0.00    -0.129 OA 
ATOM     24  H5*   A A   1      -7.873   5.613  69.963  1.00  0.00     0.000 HD 
ENDBRANCH  15  22
ENDBRANCH  12  13
TORSDOF 2
ENDMDL
MODEL      173
REMARK 921   NORMALIZED FREE ENERGY PREDICTED BY IDOCK:   -3.23 KCAL/MOL
REMARK 922        TOTAL FREE ENERGY PREDICTED BY IDOCK:   -3.68 KCAL/MOL
REMARK 923 INTER-LIGAND FREE ENERGY PREDICTED BY IDOCK:   -3.56 KCAL/MOL
REMARK 924 INTRA-LIGAND FREE ENERGY PREDICTED BY IDOCK:   -0.12 KCAL/MOL
REMARK 927      BINDING AFFINITY PREDICTED BY RF-SCORE:    0.00 PKD
ROOT
ATOM      1  N6    A A   1      -7.555  10.594  63.649  1.00  0.00    -0.352 NA 
ATOM      2  C6    A A   1      -7.335   9.969  64.870  1.00  0.00    -0.140 A  
ATOM      3  H62   A A   1      -7.292   9.956  62.898  1.00  0.00     0.000 HD 
ATOM      4  H61   A A   1      -8.484  10.969  63.455  1.00  0.00     0.000 HD 
ATOM      5  N1    A A   1      -6.106   9.473  65.127  1.00  0.00    -0.068 NA 
ATOM      6  C2    A A   1      -5.895   8.867  66.315  1.00  0.00    -0.050 A  
ATOM      7  N3    A A   1      -6.766   8.690  67.338  1.00  0.00    -0.062 NA 
ATOM      8  C4    A A   1      -7.973   9.198  67.033  1.00  0.00    -0.102 A  
ATOM      9  C5    A A   1      -8.326   9.850  65.857  1.00  0.00    -0.123 A  
ATOM     10  N7    A A   1      -9.631  10.284  65.906  1.00  0.00    -0.195 NA 
ATOM     11  C8    A A   1     -10.068   9.890  67.079  1.00  0.00    -0.218 A  
ATOM     12  N9    A A   1      -9.108   9.211  67.796  1.00  0.00    -0.127 NA 
ENDROOT
BRANCH  12  13
ATOM     13  C1*   A A   1      -9.359   8.698  69.123  1.00  0.00    -0.153 C  
ATOM     14  O4*   A A   1      -9.052   7.285  69.085  1.00  0.00    -0.138 OA 
ATOM     15  C4*   A A   1     -10.299   6.559  68.925  1.00  0.00    -0.196 C  
ATOM     16  C3*   A A   1     -11.438   7.493  69.348  1.00  0.00     0.350 C  
ATOM     17  H2*   A A   1     -12.327   9.999  70.062  1.00  0.00     0.000 HD 
ATOM     18  C2*   A A   1     -10.728   8.765  69.802  1.00  0.00    -0.218 C  
ATOM     19  O3*   A A   1     -12.199   6.916  70.416  1.00  0.00    -0.600 OA 
ATOM     20  H3*   A A   1     -12.905   7.495  70.677  1.00  0.00     0.000 HD 
ATOM     21  O2*   A A   1     -11.477   9.958  69.640  1.00  0.00    -0.205 OA 
BRANCH  15  22
ATOM     22  C5*   A A   1     -10.442   6.119  67.462  1.00  0.00    -0.240 C  
ATOM     23  O5*   A A   1     -11.633   6.660  66.898  1.00  0.00    -0.726 OA 
ATOM     24  H5*   A A   1     -11.722   6.388  65.992  1.00  0.00     0.000 HD 
ENDBRANCH  15  22
ENDBRANCH  12  13
TORSDOF 2
ENDMDL
MODEL      174
REMARK 921   NORMALIZED FREE ENERGY PREDICTED BY IDOCK:   -3.20 KCAL/MOL
REMARK 922        TOTAL FREE ENERGY PREDICTED BY IDOCK:   -3.64 KCAL/MOL
REMARK 923 INTER-LIGAND FREE ENERGY PREDICTED BY IDOCK:   -3.95 KCAL/MOL
REMARK 924 INTRA-LIGAND FREE ENERGY PREDICTED BY IDOCK:    0.30 KCAL/MOL
REMARK 927      BINDING AFFINITY PREDICTED BY RF-SCORE:    0.00 PKD
ROOT
ATOM      1  N6    A A   1     -12.019  13.260  69.111  1.00  0.00    -0.312 NA 
ATOM      2  C6    A A   1     -11.595  12.001  69.519  1.00  0.00    -0.321 A  
ATOM      3  H62   A A   1     -12.160  13.846  69.933  1.00  0.00     0.000 HD 
ATOM      4  H61   A A   1     -11.450  13.769  68.434  1.00  0.00     0.000 HD 
ATOM      5  N1    A A   1     -12.349  11.328  70.413  1.00  0.00    -0.331 NA 
ATOM      6  C2    A A   1     -11.935  10.105  70.808  1.00  0.00    -0.348 A  
ATOM      7  N3    A A   1     -10.837   9.417  70.412  1.00  0.00    -0.248 NA 
ATOM      8  C4    A A   1     -10.120  10.130  69.525  1.00  0.00    -0.235 A  
ATOM      9  C5    A A   1     -10.431  11.391  69.028  1.00  0.00    -0.168 A  
ATOM     10  N7    A A   1      -9.501  11.798  68.098  1.00  0.00    -0.188 NA 
ATOM     11  C8    A A   1      -8.635  10.814  68.043  1.00  0.00    -0.128 A  
ATOM     12  N9    A A   1      -8.953   9.785  68.901  1.00  0.00    -0.138 NA 
ENDROOT
BRANCH  12  13
ATOM     13  C1*   A A   1      -8.150   8.588  68.997  1.00  0.00    -0.115 C  
ATOM     14  O4*   A A   1      -8.359   7.852  67.768  1.00  0.00    -0.126 OA 
ATOM     15  C4*   A A   1      -9.343   6.817  68.029  1.00  0.00    -0.118 C  
ATOM     16  C3*   A A   1      -9.394   6.594  69.544  1.00  0.00    -0.145 C  
ATOM     17  H2*   A A   1      -8.692   7.362  72.092  1.00  0.00     0.000 HD 
ATOM     18  C2*   A A   1      -8.333   7.541  70.096  1.00  0.00    -0.134 C  
ATOM     19  O3*   A A   1      -9.092   5.232  69.868  1.00  0.00    -0.125 OA 
ATOM     20  H3*   A A   1      -9.123   5.094  70.808  1.00  0.00     0.000 HD 
ATOM     21  O2*   A A   1      -8.578   8.013  71.410  1.00  0.00    -0.119 OA 
BRANCH  15  22
ATOM     22  C5*   A A   1     -10.703   7.263  67.476  1.00  0.00    -0.256 C  
ATOM     23  O5*   A A   1     -10.530   7.966  66.248  1.00  0.00    -0.393 OA 
ATOM     24  H5*   A A   1     -11.372   8.242  65.906  1.00  0.00     0.000 HD 
ENDBRANCH  15  22
ENDBRANCH  12  13
TORSDOF 2
ENDMDL
MODEL      175
REMARK 921   NORMALIZED FREE ENERGY PREDICTED BY IDOCK:   -3.20 KCAL/MOL
REMARK 922        TOTAL FREE ENERGY PREDICTED BY IDOCK:   -3.64 KCAL/MOL
REMARK 923 INTER-LIGAND FREE ENERGY PREDICTED BY IDOCK:   -4.08 KCAL/MOL
REMARK 924 INTRA-LIGAND FREE ENERGY PREDICTED BY IDOCK:    0.44 KCAL/MOL
REMARK 927      BINDING AFFINITY PREDICTED BY RF-SCORE:    0.00 PKD
ROOT
ATOM      1  N6    A A   1      -9.145   8.259  66.230  1.00  0.00    -0.177 NA 
ATOM      2  C6    A A   1      -8.952   9.619  66.439  1.00  0.00    -0.152 A  
ATOM      3  H62   A A   1      -8.283   7.763  66.455  1.00  0.00     0.000 HD 
ATOM      4  H61   A A   1      -9.925   7.800  66.702  1.00  0.00     0.000 HD 
ATOM      5  N1    A A   1      -7.921  10.225  65.814  1.00  0.00    -0.138 NA 
ATOM      6  C2    A A   1      -7.737  11.547  66.019  1.00  0.00     0.252 A  
ATOM      7  N3    A A   1      -8.473  12.394  66.778  1.00  0.00    -0.143 NA 
ATOM      8  C4    A A   1      -9.484  11.743  67.379  1.00  0.00    -0.173 A  
ATOM      9  C5    A A   1      -9.794  10.393  67.253  1.00  0.00    -0.178 A  
ATOM     10  N7    A A   1     -10.925  10.077  67.970  1.00  0.00    -0.260 NA 
ATOM     11  C8    A A   1     -11.287  11.206  68.534  1.00  0.00    -0.282 A  
ATOM     12  N9    A A   1     -10.436  12.245  68.223  1.00  0.00    -0.220 NA 
ENDROOT
BRANCH  12  13
ATOM     13  C1*   A A   1     -10.648  13.585  68.718  1.00  0.00    -0.218 C  
ATOM     14  O4*   A A   1     -11.867  14.064  68.103  1.00  0.00    -0.338 OA 
ATOM     15  C4*   A A   1     -11.500  14.894  66.969  1.00  0.00    -0.326 C  
ATOM     16  C3*   A A   1     -10.044  15.328  67.163  1.00  0.00    -0.240 C  
ATOM     17  H2*   A A   1      -7.653  15.124  68.513  1.00  0.00     0.000 HD 
ATOM     18  C2*   A A   1      -9.650  14.724  68.507  1.00  0.00    -0.218 C  
ATOM     19  O3*   A A   1      -9.937  16.757  67.187  1.00  0.00    -0.260 OA 
ATOM     20  H3*   A A   1      -9.035  17.026  67.307  1.00  0.00     0.000 HD 
ATOM     21  O2*   A A   1      -8.273  14.416  68.644  1.00  0.00    -0.147 OA 
BRANCH  15  22
ATOM     22  C5*   A A   1     -11.684  14.090  65.675  1.00  0.00    -0.354 C  
ATOM     23  O5*   A A   1     -11.727  14.965  64.552  1.00  0.00    -0.506 OA 
ATOM     24  H5*   A A   1     -11.841  14.468  63.751  1.00  0.00     0.000 HD 
ENDBRANCH  15  22
ENDBRANCH  12  13
TORSDOF 2
ENDMDL
MODEL      176
REMARK 921   NORMALIZED FREE ENERGY PREDICTED BY IDOCK:   -3.15 KCAL/MOL
REMARK 922        TOTAL FREE ENERGY PREDICTED BY IDOCK:   -3.59 KCAL/MOL
REMARK 923 INTER-LIGAND FREE ENERGY PREDICTED BY IDOCK:   -3.82 KCAL/MOL
REMARK 924 INTRA-LIGAND FREE ENERGY PREDICTED BY IDOCK:    0.23 KCAL/MOL
REMARK 927      BINDING AFFINITY PREDICTED BY RF-SCORE:    0.00 PKD
ROOT
ATOM      1  N6    A A   1     -11.387   5.117  73.174  1.00  0.00    -0.397 NA 
ATOM      2  C6    A A   1     -11.186   6.315  72.500  1.00  0.00    -0.279 A  
ATOM      3  H62   A A   1     -12.206   5.207  73.774  1.00  0.00     0.000 HD 
ATOM      4  H61   A A   1     -11.469   4.259  72.627  1.00  0.00     0.000 HD 
ATOM      5  N1    A A   1     -11.077   7.449  73.223  1.00  0.00    -0.333 NA 
ATOM      6  C2    A A   1     -10.881   8.612  72.566  1.00  0.00    -0.140 A  
ATOM      7  N3    A A   1     -10.757   8.816  71.232  1.00  0.00    -0.246 NA 
ATOM      8  C4    A A   1     -10.875   7.660  70.557  1.00  0.00    -0.241 A  
ATOM      9  C5    A A   1     -11.070   6.396  71.103  1.00  0.00    -0.291 A  
ATOM     10  N7    A A   1     -11.094   5.431  70.122  1.00  0.00    -0.030 NA 
ATOM     11  C8    A A   1     -10.933   6.095  69.001  1.00  0.00    -0.367 A  
ATOM     12  N9    A A   1     -10.814   7.453  69.207  1.00  0.00    -0.183 NA 
ENDROOT
BRANCH  12  13
ATOM     13  C1*   A A   1     -10.611   8.380  68.118  1.00  0.00    -0.118 C  
ATOM     14  O4*   A A   1      -9.284   8.126  67.601  1.00  0.00    -0.136 OA 
ATOM     15  C4*   A A   1      -8.384   9.111  68.173  1.00  0.00    -0.120 C  
ATOM     16  C3*   A A   1      -9.235  10.283  68.672  1.00  0.00    -0.159 C  
ATOM     17  H2*   A A   1     -11.701  11.368  69.241  1.00  0.00     0.000 HD 
ATOM     18  C2*   A A   1     -10.661   9.898  68.289  1.00  0.00    -0.234 C  
ATOM     19  O3*   A A   1      -8.841  11.505  68.038  1.00  0.00    -0.146 OA 
ATOM     20  H3*   A A   1      -9.369  12.232  68.348  1.00  0.00     0.000 HD 
ATOM     21  O2*   A A   1     -11.670  10.425  69.134  1.00  0.00    -0.213 OA 
BRANCH  15  22
ATOM     22  C5*   A A   1      -7.586   8.465  69.312  1.00  0.00    -0.089 C  
ATOM     23  O5*   A A   1      -8.037   8.956  70.572  1.00  0.00    -0.103 OA 
ATOM     24  H5*   A A   1      -7.543   8.556  71.277  1.00  0.00     0.000 HD 
ENDBRANCH  15  22
ENDBRANCH  12  13
TORSDOF 2
ENDMDL
MODEL      177
REMARK 921   NORMALIZED FREE ENERGY PREDICTED BY IDOCK:   -3.10 KCAL/MOL
REMARK 922        TOTAL FREE ENERGY PREDICTED BY IDOCK:   -3.53 KCAL/MOL
REMARK 923 INTER-LIGAND FREE ENERGY PREDICTED BY IDOCK:   -3.53 KCAL/MOL
REMARK 924 INTRA-LIGAND FREE ENERGY PREDICTED BY IDOCK:   -0.00 KCAL/MOL
REMARK 927      BINDING AFFINITY PREDICTED BY RF-SCORE:    0.00 PKD
ROOT
ATOM      1  N6    A A   1      -8.887   8.173  74.120  1.00  0.00    -0.352 NA 
ATOM      2  C6    A A   1      -8.195   7.942  72.938  1.00  0.00    -0.144 A  
ATOM      3  H62   A A   1      -9.271   9.117  74.101  1.00  0.00     0.000 HD 
ATOM      4  H61   A A   1      -9.624   7.520  74.387  1.00  0.00     0.000 HD 
ATOM      5  N1    A A   1      -7.220   8.805  72.584  1.00  0.00    -0.339 NA 
ATOM      6  C2    A A   1      -6.549   8.578  71.435  1.00  0.00    -0.066 A  
ATOM      7  N3    A A   1      -6.705   7.560  70.554  1.00  0.00    -0.046 NA 
ATOM      8  C4    A A   1      -7.687   6.731  70.948  1.00  0.00    -0.093 A  
ATOM      9  C5    A A   1      -8.451   6.840  72.106  1.00  0.00    -0.110 A  
ATOM     10  N7    A A   1      -9.332   5.789  72.217  1.00  0.00    -0.145 NA 
ATOM     11  C8    A A   1      -9.121   5.064  71.143  1.00  0.00    -0.142 A  
ATOM     12  N9    A A   1      -8.146   5.601  70.331  1.00  0.00    -0.103 NA 
ENDROOT
BRANCH  12  13
ATOM     13  C1*   A A   1      -7.734   4.963  69.101  1.00  0.00    -0.072 C  
ATOM     14  O4*   A A   1      -8.144   5.840  68.025  1.00  0.00    -0.103 OA 
ATOM     15  C4*   A A   1      -9.393   5.334  67.486  1.00  0.00    -0.117 C  
ATOM     16  C3*   A A   1      -9.519   3.865  67.904  1.00  0.00    -0.173 C  
ATOM     17  H2*   A A   1      -8.638   1.727  69.398  1.00  0.00     0.000 HD 
ATOM     18  C2*   A A   1      -8.228   3.583  68.667  1.00  0.00    -0.068 C  
ATOM     19  O3*   A A   1      -9.637   3.017  66.756  1.00  0.00    -0.393 OA 
ATOM     20  H3*   A A   1      -9.715   2.107  67.015  1.00  0.00     0.000 HD 
ATOM     21  O2*   A A   1      -8.332   2.585  69.668  1.00  0.00    -0.044 OA 
BRANCH  15  22
ATOM     22  C5*   A A   1     -10.555   6.178  68.025  1.00  0.00    -0.268 C  
ATOM     23  O5*   A A   1     -11.460   6.502  66.973  1.00  0.00    -0.752 OA 
ATOM     24  H5*   A A   1     -12.180   7.024  67.307  1.00  0.00     0.000 HD 
ENDBRANCH  15  22
ENDBRANCH  12  13
TORSDOF 2
ENDMDL
MODEL      178
REMARK 921   NORMALIZED FREE ENERGY PREDICTED BY IDOCK:   -3.09 KCAL/MOL
REMARK 922        TOTAL FREE ENERGY PREDICTED BY IDOCK:   -3.52 KCAL/MOL
REMARK 923 INTER-LIGAND FREE ENERGY PREDICTED BY IDOCK:   -4.43 KCAL/MOL
REMARK 924 INTRA-LIGAND FREE ENERGY PREDICTED BY IDOCK:    0.92 KCAL/MOL
REMARK 927      BINDING AFFINITY PREDICTED BY RF-SCORE:    0.00 PKD
ROOT
ATOM      1  N6    A A   1     -10.697  14.851  65.243  1.00  0.00    -0.363 NA 
ATOM      2  C6    A A   1     -10.271  16.148  65.505  1.00  0.00    -0.331 A  
ATOM      3  H62   A A   1     -11.044  14.803  64.286  1.00  0.00     0.000 HD 
ATOM      4  H61   A A   1     -10.042  14.084  65.398  1.00  0.00     0.000 HD 
ATOM      5  N1    A A   1     -11.137  17.163  65.301  1.00  0.00    -0.288 NA 
ATOM      6  C2    A A   1     -10.720  18.422  65.556  1.00  0.00     0.085 A  
ATOM      7  N3    A A   1      -9.517  18.833  66.022  1.00  0.00    -0.482 NA 
ATOM      8  C4    A A   1      -8.691  17.789  66.207  1.00  0.00    -0.176 A  
ATOM      9  C5    A A   1      -8.989  16.447  65.992  1.00  0.00    -0.272 A  
ATOM     10  N7    A A   1      -7.924  15.644  66.332  1.00  0.00    -0.067 NA 
ATOM     11  C8    A A   1      -6.993  16.479  66.730  1.00  0.00    -0.206 A  
ATOM     12  N9    A A   1      -7.400  17.793  66.657  1.00  0.00    -0.208 NA 
ENDROOT
BRANCH  12  13
ATOM     13  C1*   A A   1      -6.545  18.885  67.060  1.00  0.00    -0.195 C  
ATOM     14  O4*   A A   1      -5.426  18.295  67.763  1.00  0.00    -0.153 OA 
ATOM     15  C4*   A A   1      -5.683  18.403  69.187  1.00  0.00    -0.215 C  
ATOM     16  C3*   A A   1      -6.740  19.495  69.387  1.00  0.00    -0.337 C  
ATOM     17  H2*   A A   1      -8.599  21.235  68.341  1.00  0.00     0.000 HD 
ATOM     18  C2*   A A   1      -7.007  20.017  67.979  1.00  0.00    -0.286 C  
ATOM     19  O3*   A A   1      -6.242  20.535  70.238  1.00  0.00    -0.452 OA 
ATOM     20  H3*   A A   1      -6.897  21.211  70.362  1.00  0.00     0.000 HD 
ATOM     21  O2*   A A   1      -8.311  20.532  67.770  1.00  0.00    -0.229 OA 
BRANCH  15  22
ATOM     22  C5*   A A   1      -6.165  17.046  69.718  1.00  0.00    -0.198 C  
ATOM     23  O5*   A A   1      -7.559  16.887  69.473  1.00  0.00    -0.060 OA 
ATOM     24  H5*   A A   1      -7.857  16.047  69.801  1.00  0.00     0.000 HD 
ENDBRANCH  15  22
ENDBRANCH  12  13
TORSDOF 2
ENDMDL
MODEL      179
REMARK 921   NORMALIZED FREE ENERGY PREDICTED BY IDOCK:   -3.06 KCAL/MOL
REMARK 922        TOTAL FREE ENERGY PREDICTED BY IDOCK:   -3.49 KCAL/MOL
REMARK 923 INTER-LIGAND FREE ENERGY PREDICTED BY IDOCK:   -3.54 KCAL/MOL
REMARK 924 INTRA-LIGAND FREE ENERGY PREDICTED BY IDOCK:    0.05 KCAL/MOL
REMARK 927      BINDING AFFINITY PREDICTED BY RF-SCORE:    0.00 PKD
ROOT
ATOM      1  N6    A A   1      -8.920   5.462  64.482  1.00  0.00    -0.355 NA 
ATOM      2  C6    A A   1      -9.150   5.984  65.750  1.00  0.00    -0.067 A  
ATOM      3  H62   A A   1      -9.809   5.175  64.075  1.00  0.00     0.000 HD 
ATOM      4  H61   A A   1      -8.414   6.034  63.806  1.00  0.00     0.000 HD 
ATOM      5  N1    A A   1      -9.819   5.227  66.644  1.00  0.00    -0.161 NA 
ATOM      6  C2    A A   1     -10.042   5.736  67.875  1.00  0.00    -0.162 A  
ATOM      7  N3    A A   1      -9.664   6.939  68.371  1.00  0.00    -0.136 NA 
ATOM      8  C4    A A   1      -9.005   7.654  67.444  1.00  0.00    -0.126 A  
ATOM      9  C5    A A   1      -8.701   7.253  66.147  1.00  0.00    -0.155 A  
ATOM     10  N7    A A   1      -7.972   8.217  65.489  1.00  0.00    -0.113 NA 
ATOM     11  C8    A A   1      -7.848   9.191  66.360  1.00  0.00    -0.100 A  
ATOM     12  N9    A A   1      -8.472   8.908  67.556  1.00  0.00    -0.116 NA 
ENDROOT
BRANCH  12  13
ATOM     13  C1*   A A   1      -8.452   9.829  68.669  1.00  0.00    -0.116 C  
ATOM     14  O4*   A A   1      -9.817   9.941  69.137  1.00  0.00    -0.178 OA 
ATOM     15  C4*   A A   1     -10.386  11.151  68.571  1.00  0.00    -0.193 C  
ATOM     16  C3*   A A   1      -9.226  12.052  68.136  1.00  0.00    -0.195 C  
ATOM     17  H2*   A A   1      -6.536  12.424  67.679  1.00  0.00     0.000 HD 
ATOM     18  C2*   A A   1      -7.977  11.278  68.550  1.00  0.00    -0.145 C  
ATOM     19  O3*   A A   1      -9.291  13.321  68.799  1.00  0.00    -0.390 OA 
ATOM     20  H3*   A A   1      -8.571  13.879  68.529  1.00  0.00     0.000 HD 
ATOM     21  O2*   A A   1      -6.831  11.524  67.753  1.00  0.00    -0.070 OA 
BRANCH  15  22
ATOM     22  C5*   A A   1     -11.288  10.778  67.387  1.00  0.00    -0.160 C  
ATOM     23  O5*   A A   1     -11.817  11.954  66.780  1.00  0.00    -0.598 OA 
ATOM     24  H5*   A A   1     -12.375  11.723  66.047  1.00  0.00     0.000 HD 
ENDBRANCH  15  22
ENDBRANCH  12  13
TORSDOF 2
ENDMDL
MODEL      180
REMARK 921   NORMALIZED FREE ENERGY PREDICTED BY IDOCK:   -2.97 KCAL/MOL
REMARK 922        TOTAL FREE ENERGY PREDICTED BY IDOCK:   -3.39 KCAL/MOL
REMARK 923 INTER-LIGAND FREE ENERGY PREDICTED BY IDOCK:   -3.48 KCAL/MOL
REMARK 924 INTRA-LIGAND FREE ENERGY PREDICTED BY IDOCK:    0.09 KCAL/MOL
REMARK 927      BINDING AFFINITY PREDICTED BY RF-SCORE:    0.00 PKD
ROOT
ATOM      1  N6    A A   1     -10.167   5.179  72.834  1.00  0.00    -0.173 NA 
ATOM      2  C6    A A   1     -10.076   5.195  71.448  1.00  0.00    -0.200 A  
ATOM      3  H62   A A   1      -9.288   4.837  73.220  1.00  0.00     0.000 HD 
ATOM      4  H61   A A   1     -10.426   6.041  73.314  1.00  0.00     0.000 HD 
ATOM      5  N1    A A   1      -9.734   4.055  70.813  1.00  0.00    -0.192 NA 
ATOM      6  C2    A A   1      -9.647   4.073  69.465  1.00  0.00    -0.195 A  
ATOM      7  N3    A A   1      -9.878   5.105  68.619  1.00  0.00    -0.151 NA 
ATOM      8  C4    A A   1     -10.213   6.216  69.298  1.00  0.00    -0.201 A  
ATOM      9  C5    A A   1     -10.346   6.338  70.678  1.00  0.00    -0.203 A  
ATOM     10  N7    A A   1     -10.751   7.606  71.025  1.00  0.00    -0.226 NA 
ATOM     11  C8    A A   1     -10.847   8.248  69.885  1.00  0.00    -0.213 A  
ATOM     12  N9    A A   1     -10.514   7.456  68.807  1.00  0.00    -0.206 NA 
ENDROOT
BRANCH  12  13
ATOM     13  C1*   A A   1     -10.564   7.947  67.449  1.00  0.00    -0.272 C  
ATOM     14  O4*   A A   1      -9.461   7.327  66.746  1.00  0.00    -0.156 OA 
ATOM     15  C4*   A A   1      -8.366   8.279  66.702  1.00  0.00    -0.111 C  
ATOM     16  C3*   A A   1      -8.951   9.673  66.955  1.00  0.00    -0.134 C  
ATOM     17  H2*   A A   1     -11.065  11.274  67.694  1.00  0.00     0.000 HD 
ATOM     18  C2*   A A   1     -10.451   9.429  67.089  1.00  0.00    -0.244 C  
ATOM     19  O3*   A A   1      -8.665  10.551  65.860  1.00  0.00    -0.155 OA 
ATOM     20  H3*   A A   1      -9.028  11.415  66.017  1.00  0.00     0.000 HD 
ATOM     21  O2*   A A   1     -11.135  10.353  67.917  1.00  0.00    -0.284 OA 
BRANCH  15  22
ATOM     22  C5*   A A   1      -7.325   7.901  67.764  1.00  0.00    -0.096 C  
ATOM     23  O5*   A A   1      -6.992   9.038  68.555  1.00  0.00    -0.063 OA 
ATOM     24  H5*   A A   1      -6.347   8.803  69.213  1.00  0.00     0.000 HD 
ENDBRANCH  15  22
ENDBRANCH  12  13
TORSDOF 2
ENDMDL
MODEL      181
REMARK 921   NORMALIZED FREE ENERGY PREDICTED BY IDOCK:   -2.97 KCAL/MOL
REMARK 922        TOTAL FREE ENERGY PREDICTED BY IDOCK:   -3.38 KCAL/MOL
REMARK 923 INTER-LIGAND FREE ENERGY PREDICTED BY IDOCK:   -4.20 KCAL/MOL
REMARK 924 INTRA-LIGAND FREE ENERGY PREDICTED BY IDOCK:    0.81 KCAL/MOL
REMARK 927      BINDING AFFINITY PREDICTED BY RF-SCORE:    0.00 PKD
ROOT
ATOM      1  N6    A A   1     -11.734  14.102  65.834  1.00  0.00    -0.353 NA 
ATOM      2  C6    A A   1     -11.127  12.959  65.329  1.00  0.00    -0.284 A  
ATOM      3  H62   A A   1     -12.474  14.394  65.197  1.00  0.00     0.000 HD 
ATOM      4  H61   A A   1     -12.104  14.075  66.785  1.00  0.00     0.000 HD 
ATOM      5  N1    A A   1     -10.636  12.994  64.072  1.00  0.00    -0.397 NA 
ATOM      6  C2    A A   1     -10.046  11.881  63.584  1.00  0.00    -0.426 A  
ATOM      7  N3    A A   1      -9.851  10.690  64.199  1.00  0.00    -0.311 NA 
ATOM      8  C4    A A   1     -10.358  10.706  65.444  1.00  0.00    -0.233 A  
ATOM      9  C5    A A   1     -10.982  11.778  66.074  1.00  0.00    -0.306 A  
ATOM     10  N7    A A   1     -11.333  11.456  67.365  1.00  0.00    -0.412 NA 
ATOM     11  C8    A A   1     -10.946  10.211  67.514  1.00  0.00    -0.255 A  
ATOM     12  N9    A A   1     -10.365   9.702  66.373  1.00  0.00    -0.214 NA 
ENDROOT
BRANCH  12  13
ATOM     13  C1*   A A   1      -9.848   8.354  66.310  1.00  0.00    -0.187 C  
ATOM     14  O4*   A A   1      -9.543   7.966  67.670  1.00  0.00    -0.144 OA 
ATOM     15  C4*   A A   1      -8.119   8.151  67.880  1.00  0.00    -0.128 C  
ATOM     16  C3*   A A   1      -7.448   8.198  66.504  1.00  0.00    -0.088 C  
ATOM     17  H2*   A A   1      -7.639   8.335  63.761  1.00  0.00     0.000 HD 
ATOM     18  C2*   A A   1      -8.594   7.973  65.522  1.00  0.00    -0.135 C  
ATOM     19  O3*   A A   1      -6.456   7.171  66.385  1.00  0.00    -0.048 OA 
ATOM     20  H3*   A A   1      -6.040   7.200  65.532  1.00  0.00     0.000 HD 
ATOM     21  O2*   A A   1      -8.418   8.572  64.250  1.00  0.00    -0.144 OA 
BRANCH  15  22
ATOM     22  C5*   A A   1      -7.889   9.449  68.666  1.00  0.00    -0.088 C  
ATOM     23  O5*   A A   1      -6.530   9.539  69.085  1.00  0.00    -0.044 OA 
ATOM     24  H5*   A A   1      -6.388  10.342  69.572  1.00  0.00     0.000 HD 
ENDBRANCH  15  22
ENDBRANCH  12  13
TORSDOF 2
ENDMDL
MODEL      182
REMARK 921   NORMALIZED FREE ENERGY PREDICTED BY IDOCK:   -2.97 KCAL/MOL
REMARK 922        TOTAL FREE ENERGY PREDICTED BY IDOCK:   -3.38 KCAL/MOL
REMARK 923 INTER-LIGAND FREE ENERGY PREDICTED BY IDOCK:   -3.31 KCAL/MOL
REMARK 924 INTRA-LIGAND FREE ENERGY PREDICTED BY IDOCK:   -0.08 KCAL/MOL
REMARK 927      BINDING AFFINITY PREDICTED BY RF-SCORE:    0.00 PKD
ROOT
ATOM      1  N6    A A   1     -11.515  13.372  67.368  1.00  0.00    -0.315 NA 
ATOM      2  C6    A A   1     -10.236  12.847  67.226  1.00  0.00    -0.234 A  
ATOM      3  H62   A A   1     -11.619  14.168  66.739  1.00  0.00     0.000 HD 
ATOM      4  H61   A A   1     -12.313  12.748  67.249  1.00  0.00     0.000 HD 
ATOM      5  N1    A A   1      -9.180  13.673  67.384  1.00  0.00    -0.213 NA 
ATOM      6  C2    A A   1      -7.939  13.159  67.245  1.00  0.00    -0.133 A  
ATOM      7  N3    A A   1      -7.580  11.881  66.975  1.00  0.00    -0.151 NA 
ATOM      8  C4    A A   1      -8.665  11.101  66.824  1.00  0.00    -0.157 A  
ATOM      9  C5    A A   1      -9.994  11.493  66.945  1.00  0.00    -0.205 A  
ATOM     10  N7    A A   1     -10.842  10.423  66.777  1.00  0.00    -0.169 NA 
ATOM     11  C8    A A   1     -10.049   9.404  66.541  1.00  0.00    -0.262 A  
ATOM     12  N9    A A   1      -8.718   9.764  66.541  1.00  0.00    -0.127 NA 
ENDROOT
BRANCH  12  13
ATOM     13  C1*   A A   1      -7.663   8.802  66.320  1.00  0.00    -0.098 C  
ATOM     14  O4*   A A   1      -6.803   9.361  65.299  1.00  0.00    -0.079 OA 
ATOM     15  C4*   A A   1      -7.168   8.760  64.029  1.00  0.00    -0.095 C  
ATOM     16  C3*   A A   1      -7.933   7.467  64.329  1.00  0.00    -0.109 C  
ATOM     17  H2*   A A   1      -9.185   5.798  66.125  1.00  0.00     0.000 HD 
ATOM     18  C2*   A A   1      -7.919   7.370  65.851  1.00  0.00    -0.118 C  
ATOM     19  O3*   A A   1      -7.281   6.339  63.732  1.00  0.00    -0.053 OA 
ATOM     20  H3*   A A   1      -7.755   5.538  63.918  1.00  0.00     0.000 HD 
ATOM     21  O2*   A A   1      -9.026   6.688  66.417  1.00  0.00    -0.141 OA 
BRANCH  15  22
ATOM     22  C5*   A A   1      -8.023   9.751  63.229  1.00  0.00    -0.145 C  
ATOM     23  O5*   A A   1      -9.300   9.186  62.947  1.00  0.00    -0.501 OA 
ATOM     24  H5*   A A   1      -9.829   9.800  62.451  1.00  0.00     0.000 HD 
ENDBRANCH  15  22
ENDBRANCH  12  13
TORSDOF 2
ENDMDL
MODEL      183
REMARK 921   NORMALIZED FREE ENERGY PREDICTED BY IDOCK:   -2.94 KCAL/MOL
REMARK 922        TOTAL FREE ENERGY PREDICTED BY IDOCK:   -3.35 KCAL/MOL
REMARK 923 INTER-LIGAND FREE ENERGY PREDICTED BY IDOCK:   -3.36 KCAL/MOL
REMARK 924 INTRA-LIGAND FREE ENERGY PREDICTED BY IDOCK:    0.00 KCAL/MOL
REMARK 927      BINDING AFFINITY PREDICTED BY RF-SCORE:    0.00 PKD
ROOT
ATOM      1  N6    A A   1     -10.886   7.079  71.170  1.00  0.00    -0.234 NA 
ATOM      2  C6    A A   1     -10.668   7.418  69.839  1.00  0.00    -0.243 A  
ATOM      3  H62   A A   1     -10.461   6.172  71.355  1.00  0.00     0.000 HD 
ATOM      4  H61   A A   1     -10.594   7.737  71.892  1.00  0.00     0.000 HD 
ATOM      5  N1    A A   1     -11.054   6.548  68.883  1.00  0.00    -0.312 NA 
ATOM      6  C2    A A   1     -10.841   6.880  67.591  1.00  0.00    -0.263 A  
ATOM      7  N3    A A   1     -10.288   8.011  67.091  1.00  0.00    -0.298 NA 
ATOM      8  C4    A A   1      -9.918   8.842  68.081  1.00  0.00    -0.173 A  
ATOM      9  C5    A A   1     -10.082   8.632  69.447  1.00  0.00    -0.204 A  
ATOM     10  N7    A A   1      -9.635   9.714  70.171  1.00  0.00    -0.243 NA 
ATOM     11  C8    A A   1      -9.192  10.557  69.267  1.00  0.00    -0.148 A  
ATOM     12  N9    A A   1      -9.324  10.070  67.985  1.00  0.00    -0.131 NA 
ENDROOT
BRANCH  12  13
ATOM     13  C1*   A A   1      -8.918  10.834  66.828  1.00  0.00    -0.147 C  
ATOM     14  O4*   A A   1      -8.275   9.905  65.924  1.00  0.00    -0.119 OA 
ATOM     15  C4*   A A   1      -6.839  10.029  66.101  1.00  0.00    -0.102 C  
ATOM     16  C3*   A A   1      -6.569  11.381  66.770  1.00  0.00    -0.136 C  
ATOM     17  H2*   A A   1      -7.494  13.643  68.037  1.00  0.00     0.000 HD 
ATOM     18  C2*   A A   1      -7.950  12.015  66.901  1.00  0.00    -0.112 C  
ATOM     19  O3*   A A   1      -5.705  12.186  65.958  1.00  0.00    -0.257 OA 
ATOM     20  H3*   A A   1      -5.537  13.024  66.373  1.00  0.00     0.000 HD 
ATOM     21  O2*   A A   1      -8.096  12.909  67.991  1.00  0.00    -0.137 OA 
BRANCH  15  22
ATOM     22  C5*   A A   1      -6.333   8.862  66.959  1.00  0.00    -0.060 C  
ATOM     23  O5*   A A   1      -5.686   9.354  68.129  1.00  0.00    -0.038 OA 
ATOM     24  H5*   A A   1      -5.372   8.631  68.660  1.00  0.00     0.000 HD 
ENDBRANCH  15  22
ENDBRANCH  12  13
TORSDOF 2
ENDMDL
MODEL      184
REMARK 921   NORMALIZED FREE ENERGY PREDICTED BY IDOCK:   -2.92 KCAL/MOL
REMARK 922        TOTAL FREE ENERGY PREDICTED BY IDOCK:   -3.33 KCAL/MOL
REMARK 923 INTER-LIGAND FREE ENERGY PREDICTED BY IDOCK:   -3.14 KCAL/MOL
REMARK 924 INTRA-LIGAND FREE ENERGY PREDICTED BY IDOCK:   -0.19 KCAL/MOL
REMARK 927      BINDING AFFINITY PREDICTED BY RF-SCORE:    0.00 PKD
ROOT
ATOM      1  N6    A A   1     -12.278   8.604  73.306  1.00  0.00     0.034 NA 
ATOM      2  C6    A A   1     -11.404   7.959  72.439  1.00  0.00    -0.369 A  
ATOM      3  H62   A A   1     -11.879   8.601  74.243  1.00  0.00     0.000 HD 
ATOM      4  H61   A A   1     -12.579   9.552  73.075  1.00  0.00     0.000 HD 
ATOM      5  N1    A A   1     -11.007   6.706  72.743  1.00  0.00    -0.251 NA 
ATOM      6  C2    A A   1     -10.157   6.081  71.899  1.00  0.00    -0.192 A  
ATOM      7  N3    A A   1      -9.635   6.538  70.736  1.00  0.00    -0.178 NA 
ATOM      8  C4    A A   1     -10.058   7.788  70.480  1.00  0.00    -0.192 A  
ATOM      9  C5    A A   1     -10.933   8.544  71.253  1.00  0.00    -0.256 A  
ATOM     10  N7    A A   1     -11.187   9.762  70.665  1.00  0.00    -0.306 NA 
ATOM     11  C8    A A   1     -10.469   9.756  69.566  1.00  0.00    -0.232 A  
ATOM     12  N9    A A   1      -9.751   8.589  69.414  1.00  0.00    -0.174 NA 
ENDROOT
BRANCH  12  13
ATOM     13  C1*   A A   1      -8.905   8.352  68.268  1.00  0.00    -0.139 C  
ATOM     14  O4*   A A   1      -7.566   8.148  68.779  1.00  0.00    -0.100 OA 
ATOM     15  C4*   A A   1      -6.840   9.399  68.645  1.00  0.00    -0.061 C  
ATOM     16  C3*   A A   1      -7.573  10.252  67.605  1.00  0.00    -0.090 C  
ATOM     17  H2*   A A   1      -9.762  10.692  65.994  1.00  0.00     0.000 HD 
ATOM     18  C2*   A A   1      -8.723   9.365  67.137  1.00  0.00    -0.128 C  
ATOM     19  O3*   A A   1      -6.703  10.588  66.517  1.00  0.00    -0.090 OA 
ATOM     20  H3*   A A   1      -7.157  11.117  65.873  1.00  0.00     0.000 HD 
ATOM     21  O2*   A A   1      -9.875  10.063  66.697  1.00  0.00    -0.184 OA 
BRANCH  15  22
ATOM     22  C5*   A A   1      -6.781  10.097  70.010  1.00  0.00    -0.127 C  
ATOM     23  O5*   A A   1      -7.205   9.206  71.039  1.00  0.00    -0.104 OA 
ATOM     24  H5*   A A   1      -7.168   9.638  71.884  1.00  0.00     0.000 HD 
ENDBRANCH  15  22
ENDBRANCH  12  13
TORSDOF 2
ENDMDL
MODEL      185
REMARK 921   NORMALIZED FREE ENERGY PREDICTED BY IDOCK:   -2.92 KCAL/MOL
REMARK 922        TOTAL FREE ENERGY PREDICTED BY IDOCK:   -3.33 KCAL/MOL
REMARK 923 INTER-LIGAND FREE ENERGY PREDICTED BY IDOCK:   -4.09 KCAL/MOL
REMARK 924 INTRA-LIGAND FREE ENERGY PREDICTED BY IDOCK:    0.76 KCAL/MOL
REMARK 927      BINDING AFFINITY PREDICTED BY RF-SCORE:    0.00 PKD
ROOT
ATOM      1  N6    A A   1     -10.278   5.418  69.872  1.00  0.00    -0.256 NA 
ATOM      2  C6    A A   1     -10.600   6.763  70.013  1.00  0.00    -0.220 A  
ATOM      3  H62   A A   1     -11.005   4.855  70.311  1.00  0.00     0.000 HD 
ATOM      4  H61   A A   1     -10.098   5.058  68.935  1.00  0.00     0.000 HD 
ATOM      5  N1    A A   1     -10.837   7.240  71.253  1.00  0.00    -0.234 NA 
ATOM      6  C2    A A   1     -11.150   8.547  71.387  1.00  0.00    -0.265 A  
ATOM      7  N3    A A   1     -11.249   9.494  70.424  1.00  0.00    -0.257 NA 
ATOM      8  C4    A A   1     -11.007   8.969  69.210  1.00  0.00    -0.032 A  
ATOM      9  C5    A A   1     -10.669   7.650  68.927  1.00  0.00    -0.095 A  
ATOM     10  N7    A A   1     -10.442   7.475  67.581  1.00  0.00    -0.241 NA 
ATOM     11  C8    A A   1     -10.654   8.657  67.053  1.00  0.00    -0.223 A  
ATOM     12  N9    A A   1     -11.016   9.596  67.994  1.00  0.00    -0.194 NA 
ENDROOT
BRANCH  12  13
ATOM     13  C1*   A A   1     -11.282  10.972  67.644  1.00  0.00    -0.305 C  
ATOM     14  O4*   A A   1     -11.621  10.981  66.237  1.00  0.00    -0.082 OA 
ATOM     15  C4*   A A   1     -10.435  11.364  65.493  1.00  0.00    -0.268 C  
ATOM     16  C3*   A A   1      -9.481  12.065  66.466  1.00  0.00    -0.228 C  
ATOM     17  H2*   A A   1      -8.791  12.771  69.036  1.00  0.00     0.000 HD 
ATOM     18  C2*   A A   1     -10.246  12.088  67.786  1.00  0.00    -0.202 C  
ATOM     19  O3*   A A   1      -9.182  13.392  66.018  1.00  0.00    -0.475 OA 
ATOM     20  H3*   A A   1      -8.590  13.826  66.621  1.00  0.00     0.000 HD 
ATOM     21  O2*   A A   1      -9.434  12.078  68.947  1.00  0.00    -0.030 OA 
BRANCH  15  22
ATOM     22  C5*   A A   1      -9.798  10.110  64.879  1.00  0.00    -0.319 C  
ATOM     23  O5*   A A   1      -8.383  10.262  64.804  1.00  0.00    -0.164 OA 
ATOM     24  H5*   A A   1      -7.988   9.486  64.424  1.00  0.00     0.000 HD 
ENDBRANCH  15  22
ENDBRANCH  12  13
TORSDOF 2
ENDMDL
MODEL      186
REMARK 921   NORMALIZED FREE ENERGY PREDICTED BY IDOCK:   -2.89 KCAL/MOL
REMARK 922        TOTAL FREE ENERGY PREDICTED BY IDOCK:   -3.29 KCAL/MOL
REMARK 923 INTER-LIGAND FREE ENERGY PREDICTED BY IDOCK:   -3.14 KCAL/MOL
REMARK 924 INTRA-LIGAND FREE ENERGY PREDICTED BY IDOCK:   -0.15 KCAL/MOL
REMARK 927      BINDING AFFINITY PREDICTED BY RF-SCORE:    0.00 PKD
ROOT
ATOM      1  N6    A A   1      -5.789  12.545  70.803  1.00  0.00    -0.451 NA 
ATOM      2  C6    A A   1      -6.525  11.766  69.918  1.00  0.00    -0.063 A  
ATOM      3  H62   A A   1      -6.303  13.404  70.995  1.00  0.00     0.000 HD 
ATOM      4  H61   A A   1      -5.495  12.129  71.687  1.00  0.00     0.000 HD 
ATOM      5  N1    A A   1      -6.914  12.315  68.749  1.00  0.00    -0.094 NA 
ATOM      6  C2    A A   1      -7.629  11.556  67.891  1.00  0.00    -0.113 A  
ATOM      7  N3    A A   1      -8.016  10.265  68.028  1.00  0.00    -0.101 NA 
ATOM      8  C4    A A   1      -7.608   9.765  69.208  1.00  0.00    -0.097 A  
ATOM      9  C5    A A   1      -6.863  10.428  70.178  1.00  0.00    -0.153 A  
ATOM     10  N7    A A   1      -6.579   9.597  71.237  1.00  0.00    -0.305 NA 
ATOM     11  C8    A A   1      -7.152   8.457  70.927  1.00  0.00    -0.057 A  
ATOM     12  N9    A A   1      -7.805   8.510  69.714  1.00  0.00    -0.092 NA 
ENDROOT
BRANCH  12  13
ATOM     13  C1*   A A   1      -8.492   7.366  69.162  1.00  0.00    -0.133 C  
ATOM     14  O4*   A A   1      -9.748   7.855  68.633  1.00  0.00    -0.153 OA 
ATOM     15  C4*   A A   1     -10.782   7.588  69.617  1.00  0.00    -0.230 C  
ATOM     16  C3*   A A   1     -10.259   6.498  70.557  1.00  0.00    -0.190 C  
ATOM     17  H2*   A A   1      -8.195   4.917  71.463  1.00  0.00     0.000 HD 
ATOM     18  C2*   A A   1      -8.887   6.144  69.992  1.00  0.00    -0.144 C  
ATOM     19  O3*   A A   1     -11.130   5.360  70.550  1.00  0.00    -0.139 OA 
ATOM     20  H3*   A A   1     -10.806   4.684  71.133  1.00  0.00     0.000 HD 
ATOM     21  O2*   A A   1      -7.950   5.677  70.947  1.00  0.00    -0.105 OA 
BRANCH  15  22
ATOM     22  C5*   A A   1     -11.103   8.883  70.375  1.00  0.00    -0.239 C  
ATOM     23  O5*   A A   1     -10.417   8.907  71.624  1.00  0.00    -0.284 OA 
ATOM     24  H5*   A A   1     -10.616   9.709  72.093  1.00  0.00     0.000 HD 
ENDBRANCH  15  22
ENDBRANCH  12  13
TORSDOF 2
ENDMDL
MODEL      187
REMARK 921   NORMALIZED FREE ENERGY PREDICTED BY IDOCK:   -2.88 KCAL/MOL
REMARK 922        TOTAL FREE ENERGY PREDICTED BY IDOCK:   -3.29 KCAL/MOL
REMARK 923 INTER-LIGAND FREE ENERGY PREDICTED BY IDOCK:   -3.45 KCAL/MOL
REMARK 924 INTRA-LIGAND FREE ENERGY PREDICTED BY IDOCK:    0.17 KCAL/MOL
REMARK 927      BINDING AFFINITY PREDICTED BY RF-SCORE:    0.00 PKD
ROOT
ATOM      1  N6    A A   1     -11.635   8.318  70.522  1.00  0.00    -0.444 NA 
ATOM      2  C6    A A   1     -10.623   8.682  69.642  1.00  0.00    -0.218 A  
ATOM      3  H62   A A   1     -11.226   8.120  71.435  1.00  0.00     0.000 HD 
ATOM      4  H61   A A   1     -12.425   8.953  70.643  1.00  0.00     0.000 HD 
ATOM      5  N1    A A   1      -9.578   7.843  69.482  1.00  0.00    -0.160 NA 
ATOM      6  C2    A A   1      -8.596   8.199  68.626  1.00  0.00    -0.127 A  
ATOM      7  N3    A A   1      -8.507   9.313  67.860  1.00  0.00    -0.117 NA 
ATOM      8  C4    A A   1      -9.567  10.115  68.058  1.00  0.00    -0.145 A  
ATOM      9  C5    A A   1     -10.648   9.872  68.898  1.00  0.00    -0.218 A  
ATOM     10  N7    A A   1     -11.577  10.885  68.815  1.00  0.00    -0.301 NA 
ATOM     11  C8    A A   1     -11.065  11.734  67.955  1.00  0.00    -0.242 A  
ATOM     12  N9    A A   1      -9.838  11.324  67.479  1.00  0.00    -0.177 NA 
ENDROOT
BRANCH  12  13
ATOM     13  C1*   A A   1      -9.096  12.094  66.507  1.00  0.00    -0.199 C  
ATOM     14  O4*   A A   1      -7.701  11.986  66.875  1.00  0.00    -0.146 OA 
ATOM     15  C4*   A A   1      -7.338  13.183  67.613  1.00  0.00    -0.154 C  
ATOM     16  C3*   A A   1      -8.379  14.260  67.291  1.00  0.00    -0.204 C  
ATOM     17  H2*   A A   1     -10.777  14.998  66.158  1.00  0.00     0.000 HD 
ATOM     18  C2*   A A   1      -9.310  13.592  66.284  1.00  0.00    -0.125 C  
ATOM     19  O3*   A A   1      -7.754  15.419  66.727  1.00  0.00    -0.244 OA 
ATOM     20  H3*   A A   1      -8.399  16.087  66.528  1.00  0.00     0.000 HD 
ATOM     21  O2*   A A   1     -10.645  14.067  66.297  1.00  0.00    -0.276 OA 
BRANCH  15  22
ATOM     22  C5*   A A   1      -7.303  12.859  69.112  1.00  0.00     0.147 C  
ATOM     23  O5*   A A   1      -6.072  13.295  69.683  1.00  0.00    -0.106 OA 
ATOM     24  H5*   A A   1      -6.050  13.095  70.611  1.00  0.00     0.000 HD 
ENDBRANCH  15  22
ENDBRANCH  12  13
TORSDOF 2
ENDMDL
MODEL      188
REMARK 921   NORMALIZED FREE ENERGY PREDICTED BY IDOCK:   -2.86 KCAL/MOL
REMARK 922        TOTAL FREE ENERGY PREDICTED BY IDOCK:   -3.27 KCAL/MOL
REMARK 923 INTER-LIGAND FREE ENERGY PREDICTED BY IDOCK:   -3.43 KCAL/MOL
REMARK 924 INTRA-LIGAND FREE ENERGY PREDICTED BY IDOCK:    0.16 KCAL/MOL
REMARK 927      BINDING AFFINITY PREDICTED BY RF-SCORE:    0.00 PKD
ROOT
ATOM      1  N6    A A   1      -9.581   5.059  69.633  1.00  0.00    -0.153 NA 
ATOM      2  C6    A A   1      -8.795   6.203  69.695  1.00  0.00    -0.134 A  
ATOM      3  H62   A A   1      -9.993   4.889  70.551  1.00  0.00     0.000 HD 
ATOM      4  H61   A A   1     -10.315   5.011  68.926  1.00  0.00     0.000 HD 
ATOM      5  N1    A A   1      -7.823   6.265  70.629  1.00  0.00    -0.105 NA 
ATOM      6  C2    A A   1      -7.060   7.378  70.686  1.00  0.00    -0.060 A  
ATOM      7  N3    A A   1      -7.116   8.480  69.901  1.00  0.00    -0.050 NA 
ATOM      8  C4    A A   1      -8.098   8.370  68.990  1.00  0.00    -0.116 A  
ATOM      9  C5    A A   1      -8.951   7.285  68.815  1.00  0.00    -0.129 A  
ATOM     10  N7    A A   1      -9.804   7.492  67.755  1.00  0.00    -0.148 NA 
ATOM     11  C8    A A   1      -9.489   8.684  67.304  1.00  0.00    -0.156 A  
ATOM     12  N9    A A   1      -8.473   9.269  68.029  1.00  0.00    -0.120 NA 
ENDROOT
BRANCH  12  13
ATOM     13  C1*   A A   1      -7.949  10.575  67.703  1.00  0.00    -0.106 C  
ATOM     14  O4*   A A   1      -8.634  11.519  68.559  1.00  0.00    -0.152 OA 
ATOM     15  C4*   A A   1      -9.710  12.121  67.793  1.00  0.00    -0.197 C  
ATOM     16  C3*   A A   1      -9.399  11.908  66.308  1.00  0.00    -0.227 C  
ATOM     17  H2*   A A   1      -7.889  10.724  64.333  1.00  0.00     0.000 HD 
ATOM     18  C2*   A A   1      -8.051  11.194  66.308  1.00  0.00    -0.142 C  
ATOM     19  O3*   A A   1      -9.320  13.162  65.619  1.00  0.00    -0.465 OA 
ATOM     20  H3*   A A   1      -9.127  13.029  64.699  1.00  0.00     0.000 HD 
ATOM     21  O2*   A A   1      -7.827  10.339  65.200  1.00  0.00    -0.138 OA 
BRANCH  15  22
ATOM     22  C5*   A A   1     -11.040  11.468  68.192  1.00  0.00    -0.246 C  
ATOM     23  O5*   A A   1     -12.083  11.902  67.324  1.00  0.00    -0.582 OA 
ATOM     24  H5*   A A   1     -12.907  11.498  67.571  1.00  0.00     0.000 HD 
ENDBRANCH  15  22
ENDBRANCH  12  13
TORSDOF 2
ENDMDL
MODEL      189
REMARK 921   NORMALIZED FREE ENERGY PREDICTED BY IDOCK:   -2.85 KCAL/MOL
REMARK 922        TOTAL FREE ENERGY PREDICTED BY IDOCK:   -3.26 KCAL/MOL
REMARK 923 INTER-LIGAND FREE ENERGY PREDICTED BY IDOCK:   -3.37 KCAL/MOL
REMARK 924 INTRA-LIGAND FREE ENERGY PREDICTED BY IDOCK:    0.11 KCAL/MOL
REMARK 927      BINDING AFFINITY PREDICTED BY RF-SCORE:    0.00 PKD
ROOT
ATOM      1  N6    A A   1      -8.975   6.348  71.090  1.00  0.00    -0.145 NA 
ATOM      2  C6    A A   1      -8.682   6.727  69.785  1.00  0.00    -0.141 A  
ATOM      3  H62   A A   1      -8.104   6.261  71.614  1.00  0.00     0.000 HD 
ATOM      4  H61   A A   1      -9.629   6.919  71.626  1.00  0.00     0.000 HD 
ATOM      5  N1    A A   1      -7.817   5.972  69.076  1.00  0.00    -0.095 NA 
ATOM      6  C2    A A   1      -7.534   6.342  67.808  1.00  0.00    -0.093 A  
ATOM      7  N3    A A   1      -8.022   7.394  67.108  1.00  0.00    -0.112 NA 
ATOM      8  C4    A A   1      -8.875   8.114  67.857  1.00  0.00    -0.131 A  
ATOM      9  C5    A A   1      -9.261   7.846  69.166  1.00  0.00    -0.144 A  
ATOM     10  N7    A A   1     -10.188   8.762  69.606  1.00  0.00    -0.204 NA 
ATOM     11  C8    A A   1     -10.352   9.581  68.593  1.00  0.00    -0.205 A  
ATOM     12  N9    A A   1      -9.566   9.243  67.513  1.00  0.00    -0.145 NA 
ENDROOT
BRANCH  12  13
ATOM     13  C1*   A A   1      -9.593   9.993  66.279  1.00  0.00    -0.202 C  
ATOM     14  O4*   A A   1      -8.216  10.276  65.937  1.00  0.00    -0.135 OA 
ATOM     15  C4*   A A   1      -7.916  11.629  66.370  1.00  0.00     0.005 C  
ATOM     16  C3*   A A   1      -9.247  12.366  66.548  1.00  0.00    -0.215 C  
ATOM     17  H2*   A A   1     -11.997  12.326  66.677  1.00  0.00     0.000 HD 
ATOM     18  C2*   A A   1     -10.299  11.342  66.133  1.00  0.00    -0.251 C  
ATOM     19  O3*   A A   1      -9.301  13.530  65.714  1.00  0.00    -0.491 OA 
ATOM     20  H3*   A A   1     -10.126  13.986  65.825  1.00  0.00     0.000 HD 
ATOM     21  O2*   A A   1     -11.558  11.489  66.767  1.00  0.00    -0.492 OA 
BRANCH  15  22
ATOM     22  C5*   A A   1      -7.119  11.575  67.679  1.00  0.00    -0.098 C  
ATOM     23  O5*   A A   1      -6.928  10.222  68.086  1.00  0.00    -0.072 OA 
ATOM     24  H5*   A A   1      -6.435  10.188  68.897  1.00  0.00     0.000 HD 
ENDBRANCH  15  22
ENDBRANCH  12  13
TORSDOF 2
ENDMDL
MODEL      190
REMARK 921   NORMALIZED FREE ENERGY PREDICTED BY IDOCK:   -2.84 KCAL/MOL
REMARK 922        TOTAL FREE ENERGY PREDICTED BY IDOCK:   -3.24 KCAL/MOL
REMARK 923 INTER-LIGAND FREE ENERGY PREDICTED BY IDOCK:   -3.85 KCAL/MOL
REMARK 924 INTRA-LIGAND FREE ENERGY PREDICTED BY IDOCK:    0.61 KCAL/MOL
REMARK 927      BINDING AFFINITY PREDICTED BY RF-SCORE:    0.00 PKD
ROOT
ATOM      1  N6    A A   1     -11.643   8.894  71.937  1.00  0.00    -0.354 NA 
ATOM      2  C6    A A   1     -10.428   9.190  71.331  1.00  0.00    -0.344 A  
ATOM      3  H62   A A   1     -11.604   9.179  72.915  1.00  0.00     0.000 HD 
ATOM      4  H61   A A   1     -12.497   9.263  71.518  1.00  0.00     0.000 HD 
ATOM      5  N1    A A   1      -9.298   8.702  71.885  1.00  0.00    -0.268 NA 
ATOM      6  C2    A A   1      -8.119   8.991  71.294  1.00  0.00    -0.094 A  
ATOM      7  N3    A A   1      -7.893   9.715  70.171  1.00  0.00    -0.160 NA 
ATOM      8  C4    A A   1      -9.046  10.179  69.660  1.00  0.00    -0.174 A  
ATOM      9  C5    A A   1     -10.325   9.955  70.158  1.00  0.00    -0.282 A  
ATOM     10  N7    A A   1     -11.278  10.539  69.355  1.00  0.00    -0.251 NA 
ATOM     11  C8    A A   1     -10.593  11.120  68.398  1.00  0.00    -0.193 A  
ATOM     12  N9    A A   1      -9.234  10.948  68.545  1.00  0.00    -0.174 NA 
ENDROOT
BRANCH  12  13
ATOM     13  C1*   A A   1      -8.285  11.487  67.598  1.00  0.00    -0.131 C  
ATOM     14  O4*   A A   1      -9.051  11.929  66.453  1.00  0.00    -0.211 OA 
ATOM     15  C4*   A A   1      -8.977  10.894  65.438  1.00  0.00    -0.193 C  
ATOM     16  C3*   A A   1      -7.766  10.012  65.760  1.00  0.00    -0.122 C  
ATOM     17  H2*   A A   1      -5.748   9.266  67.477  1.00  0.00     0.000 HD 
ATOM     18  C2*   A A   1      -7.147  10.664  66.992  1.00  0.00    -0.100 C  
ATOM     19  O3*   A A   1      -6.843   9.995  64.664  1.00  0.00    -0.122 OA 
ATOM     20  H3*   A A   1      -6.093   9.449  64.864  1.00  0.00     0.000 HD 
ATOM     21  O2*   A A   1      -6.455   9.777  67.854  1.00  0.00    -0.059 OA 
BRANCH  15  22
ATOM     22  C5*   A A   1     -10.283  10.087  65.445  1.00  0.00    -0.156 C  
ATOM     23  O5*   A A   1     -10.023   8.731  65.794  1.00  0.00    -0.459 OA 
ATOM     24  H5*   A A   1     -10.831   8.231  65.799  1.00  0.00     0.000 HD 
ENDBRANCH  15  22
ENDBRANCH  12  13
TORSDOF 2
ENDMDL
MODEL      191
REMARK 921   NORMALIZED FREE ENERGY PREDICTED BY IDOCK:   -2.83 KCAL/MOL
REMARK 922        TOTAL FREE ENERGY PREDICTED BY IDOCK:   -3.23 KCAL/MOL
REMARK 923 INTER-LIGAND FREE ENERGY PREDICTED BY IDOCK:   -3.64 KCAL/MOL
REMARK 924 INTRA-LIGAND FREE ENERGY PREDICTED BY IDOCK:    0.41 KCAL/MOL
REMARK 927      BINDING AFFINITY PREDICTED BY RF-SCORE:    0.00 PKD
ROOT
ATOM      1  N6    A A   1      -9.483  16.506  67.052  1.00  0.00    -0.233 NA 
ATOM      2  C6    A A   1      -9.002  15.265  67.452  1.00  0.00    -0.183 A  
ATOM      3  H62   A A   1      -8.697  17.088  66.763  1.00  0.00     0.000 HD 
ATOM      4  H61   A A   1     -10.203  16.537  66.330  1.00  0.00     0.000 HD 
ATOM      5  N1    A A   1      -8.050  15.222  68.408  1.00  0.00    -0.133 NA 
ATOM      6  C2    A A   1      -7.585  14.015  68.795  1.00  0.00    -0.113 A  
ATOM      7  N3    A A   1      -7.959  12.788  68.361  1.00  0.00    -0.149 NA 
ATOM      8  C4    A A   1      -8.905  12.884  67.411  1.00  0.00    -0.199 A  
ATOM      9  C5    A A   1      -9.477  14.054  66.923  1.00  0.00    -0.265 A  
ATOM     10  N7    A A   1     -10.450  13.778  65.990  1.00  0.00    -0.291 NA 
ATOM     11  C8    A A   1     -10.460  12.469  65.899  1.00  0.00    -0.265 A  
ATOM     12  N9    A A   1      -9.529  11.878  66.726  1.00  0.00    -0.195 NA 
ENDROOT
BRANCH  12  13
ATOM     13  C1*   A A   1      -9.373  10.444  66.805  1.00  0.00    -0.156 C  
ATOM     14  O4*   A A   1     -10.563   9.934  67.451  1.00  0.00    -0.253 OA 
ATOM     15  C4*   A A   1     -10.254   9.715  68.853  1.00  0.00    -0.201 C  
ATOM     16  C3*   A A   1      -8.730   9.631  68.984  1.00  0.00    -0.142 C  
ATOM     17  H2*   A A   1      -6.221   9.922  67.888  1.00  0.00     0.000 HD 
ATOM     18  C2*   A A   1      -8.223   9.766  67.552  1.00  0.00    -0.114 C  
ATOM     19  O3*   A A   1      -8.337   8.377  69.556  1.00  0.00    -0.116 OA 
ATOM     20  H3*   A A   1      -7.392   8.325  69.638  1.00  0.00     0.000 HD 
ATOM     21  O2*   A A   1      -6.935  10.343  67.425  1.00  0.00    -0.082 OA 
BRANCH  15  22
ATOM     22  C5*   A A   1     -10.831  10.869  69.683  1.00  0.00    -0.216 C  
ATOM     23  O5*   A A   1     -11.287  10.389  70.945  1.00  0.00    -0.335 OA 
ATOM     24  H5*   A A   1     -11.644  11.104  71.459  1.00  0.00     0.000 HD 
ENDBRANCH  15  22
ENDBRANCH  12  13
TORSDOF 2
ENDMDL
MODEL      192
REMARK 921   NORMALIZED FREE ENERGY PREDICTED BY IDOCK:   -2.79 KCAL/MOL
REMARK 922        TOTAL FREE ENERGY PREDICTED BY IDOCK:   -3.18 KCAL/MOL
REMARK 923 INTER-LIGAND FREE ENERGY PREDICTED BY IDOCK:   -3.32 KCAL/MOL
REMARK 924 INTRA-LIGAND FREE ENERGY PREDICTED BY IDOCK:    0.14 KCAL/MOL
REMARK 927      BINDING AFFINITY PREDICTED BY RF-SCORE:    0.00 PKD
ROOT
ATOM      1  N6    A A   1     -10.762  15.741  65.952  1.00  0.00    -0.325 NA 
ATOM      2  C6    A A   1      -9.795  15.107  66.722  1.00  0.00    -0.241 A  
ATOM      3  H62   A A   1     -10.309  16.200  65.163  1.00  0.00     0.000 HD 
ATOM      4  H61   A A   1     -11.548  15.189  65.608  1.00  0.00     0.000 HD 
ATOM      5  N1    A A   1      -8.756  15.837  67.178  1.00  0.00    -0.192 NA 
ATOM      6  C2    A A   1      -7.817  15.217  67.926  1.00  0.00    -0.139 A  
ATOM      7  N3    A A   1      -7.771  13.922  68.318  1.00  0.00    -0.126 NA 
ATOM      8  C4    A A   1      -8.825  13.238  67.839  1.00  0.00    -0.192 A  
ATOM      9  C5    A A   1      -9.863  13.747  67.065  1.00  0.00    -0.251 A  
ATOM     10  N7    A A   1     -10.799  12.776  66.794  1.00  0.00    -0.260 NA 
ATOM     11  C8    A A   1     -10.334  11.695  67.375  1.00  0.00    -0.205 A  
ATOM     12  N9    A A   1      -9.130  11.916  68.008  1.00  0.00    -0.183 NA 
ENDROOT
BRANCH  12  13
ATOM     13  C1*   A A   1      -8.439  10.872  68.730  1.00  0.00    -0.150 C  
ATOM     14  O4*   A A   1      -7.398  10.383  67.852  1.00  0.00    -0.085 OA 
ATOM     15  C4*   A A   1      -7.881   9.170  67.216  1.00  0.00    -0.099 C  
ATOM     16  C3*   A A   1      -9.041   8.633  68.061  1.00  0.00    -0.140 C  
ATOM     17  H2*   A A   1     -10.851   8.960  70.110  1.00  0.00     0.000 HD 
ATOM     18  C2*   A A   1      -9.129   9.604  69.234  1.00  0.00    -0.172 C  
ATOM     19  O3*   A A   1      -8.768   7.301  68.512  1.00  0.00    -0.124 OA 
ATOM     20  H3*   A A   1      -9.487   6.968  69.035  1.00  0.00     0.000 HD 
ATOM     21  O2*   A A   1     -10.422   9.747  69.796  1.00  0.00    -0.215 OA 
BRANCH  15  22
ATOM     22  C5*   A A   1      -8.327   9.494  65.784  1.00  0.00    -0.128 C  
ATOM     23  O5*   A A   1      -7.290   9.174  64.860  1.00  0.00    -0.097 OA 
ATOM     24  H5*   A A   1      -7.566   9.374  63.973  1.00  0.00     0.000 HD 
ENDBRANCH  15  22
ENDBRANCH  12  13
TORSDOF 2
ENDMDL
MODEL      193
REMARK 921   NORMALIZED FREE ENERGY PREDICTED BY IDOCK:   -2.77 KCAL/MOL
REMARK 922        TOTAL FREE ENERGY PREDICTED BY IDOCK:   -3.16 KCAL/MOL
REMARK 923 INTER-LIGAND FREE ENERGY PREDICTED BY IDOCK:   -3.03 KCAL/MOL
REMARK 924 INTRA-LIGAND FREE ENERGY PREDICTED BY IDOCK:   -0.14 KCAL/MOL
REMARK 927      BINDING AFFINITY PREDICTED BY RF-SCORE:    0.00 PKD
ROOT
ATOM      1  N6    A A   1      -6.763   5.567  72.551  1.00  0.00    -0.072 NA 
ATOM      2  C6    A A   1      -6.835   6.007  71.235  1.00  0.00    -0.067 A  
ATOM      3  H62   A A   1      -7.191   6.264  73.159  1.00  0.00     0.000 HD 
ATOM      4  H61   A A   1      -7.146   4.649  72.778  1.00  0.00     0.000 HD 
ATOM      5  N1    A A   1      -6.328   7.221  70.935  1.00  0.00    -0.036 NA 
ATOM      6  C2    A A   1      -6.400   7.646  69.655  1.00  0.00    -0.031 A  
ATOM      7  N3    A A   1      -6.913   7.002  68.579  1.00  0.00    -0.073 NA 
ATOM      8  C4    A A   1      -7.406   5.801  68.930  1.00  0.00    -0.083 A  
ATOM      9  C5    A A   1      -7.393   5.238  70.202  1.00  0.00    -0.067 A  
ATOM     10  N7    A A   1      -7.937   3.974  70.188  1.00  0.00    -0.051 NA 
ATOM     11  C8    A A   1      -8.290   3.778  68.938  1.00  0.00    -0.073 A  
ATOM     12  N9    A A   1      -8.006   4.863  68.137  1.00  0.00    -0.086 NA 
ENDROOT
BRANCH  12  13
ATOM     13  C1*   A A   1      -8.291   4.866  66.721  1.00  0.00    -0.107 C  
ATOM     14  O4*   A A   1      -8.743   6.202  66.394  1.00  0.00    -0.128 OA 
ATOM     15  C4*   A A   1     -10.194   6.186  66.352  1.00  0.00    -0.046 C  
ATOM     16  C3*   A A   1     -10.638   4.730  66.177  1.00  0.00    -0.234 C  
ATOM     17  H2*   A A   1     -10.039   2.043  66.129  1.00  0.00     0.000 HD 
ATOM     18  C2*   A A   1      -9.330   3.951  66.073  1.00  0.00    -0.171 C  
ATOM     19  O3*   A A   1     -11.427   4.577  64.991  1.00  0.00    -1.101 OA 
ATOM     20  H3*   A A   1     -11.702   3.675  64.883  1.00  0.00     0.000 HD 
ATOM     21  O2*   A A   1      -9.394   2.612  66.532  1.00  0.00    -0.103 OA 
BRANCH  15  22
ATOM     22  C5*   A A   1     -10.743   6.793  67.650  1.00  0.00    -0.288 C  
ATOM     23  O5*   A A   1     -11.135   5.761  68.551  1.00  0.00    -0.210 OA 
ATOM     24  H5*   A A   1     -11.475   6.136  69.354  1.00  0.00     0.000 HD 
ENDBRANCH  15  22
ENDBRANCH  12  13
TORSDOF 2
ENDMDL
MODEL      194
REMARK 921   NORMALIZED FREE ENERGY PREDICTED BY IDOCK:   -2.74 KCAL/MOL
REMARK 922        TOTAL FREE ENERGY PREDICTED BY IDOCK:   -3.13 KCAL/MOL
REMARK 923 INTER-LIGAND FREE ENERGY PREDICTED BY IDOCK:   -3.24 KCAL/MOL
REMARK 924 INTRA-LIGAND FREE ENERGY PREDICTED BY IDOCK:    0.11 KCAL/MOL
REMARK 927      BINDING AFFINITY PREDICTED BY RF-SCORE:    0.00 PKD
ROOT
ATOM      1  N6    A A   1      -6.355   3.070  64.834  1.00  0.00    -0.023 NA 
ATOM      2  C6    A A   1      -7.458   3.690  65.410  1.00  0.00    -0.077 A  
ATOM      3  H62   A A   1      -6.442   3.115  63.819  1.00  0.00     0.000 HD 
ATOM      4  H61   A A   1      -5.424   3.389  65.103  1.00  0.00     0.000 HD 
ATOM      5  N1    A A   1      -8.690   3.268  65.056  1.00  0.00    -0.112 NA 
ATOM      6  C2    A A   1      -9.759   3.872  65.617  1.00  0.00    -0.170 A  
ATOM      7  N3    A A   1      -9.781   4.869  66.534  1.00  0.00    -0.166 NA 
ATOM      8  C4    A A   1      -8.533   5.254  66.852  1.00  0.00    -0.106 A  
ATOM      9  C5    A A   1      -7.347   4.719  66.358  1.00  0.00    -0.082 A  
ATOM     10  N7    A A   1      -6.254   5.320  66.939  1.00  0.00    -0.030 NA 
ATOM     11  C8    A A   1      -6.762   6.214  67.755  1.00  0.00    -0.061 A  
ATOM     12  N9    A A   1      -8.140   6.228  67.728  1.00  0.00    -0.113 NA 
ENDROOT
BRANCH  12  13
ATOM     13  C1*   A A   1      -8.915   7.120  68.558  1.00  0.00    -0.127 C  
ATOM     14  O4*   A A   1      -8.804   6.622  69.913  1.00  0.00    -0.142 OA 
ATOM     15  C4*   A A   1      -9.996   5.845  70.204  1.00  0.00    -0.191 C  
ATOM     16  C3*   A A   1     -11.076   6.257  69.198  1.00  0.00    -0.390 C  
ATOM     17  H2*   A A   1     -11.822   7.607  66.917  1.00  0.00     0.000 HD 
ATOM     18  C2*   A A   1     -10.414   7.352  68.367  1.00  0.00    -0.185 C  
ATOM     19  O3*   A A   1     -12.239   6.752  69.874  1.00  0.00    -0.634 OA 
ATOM     20  H3*   A A   1     -12.908   7.007  69.250  1.00  0.00     0.000 HD 
ATOM     21  O2*   A A   1     -10.891   7.463  67.037  1.00  0.00    -0.354 OA 
BRANCH  15  22
ATOM     22  C5*   A A   1      -9.663   4.352  70.097  1.00  0.00    -0.218 C  
ATOM     23  O5*   A A   1      -8.256   4.151  70.205  1.00  0.00    -0.060 OA 
ATOM     24  H5*   A A   1      -8.049   3.226  70.139  1.00  0.00     0.000 HD 
ENDBRANCH  15  22
ENDBRANCH  12  13
TORSDOF 2
ENDMDL
MODEL      195
REMARK 921   NORMALIZED FREE ENERGY PREDICTED BY IDOCK:   -2.74 KCAL/MOL
REMARK 922        TOTAL FREE ENERGY PREDICTED BY IDOCK:   -3.12 KCAL/MOL
REMARK 923 INTER-LIGAND FREE ENERGY PREDICTED BY IDOCK:   -3.36 KCAL/MOL
REMARK 924 INTRA-LIGAND FREE ENERGY PREDICTED BY IDOCK:    0.24 KCAL/MOL
REMARK 927      BINDING AFFINITY PREDICTED BY RF-SCORE:    0.00 PKD
ROOT
ATOM      1  N6    A A   1      -6.117  13.825  71.568  1.00  0.00    -0.566 NA 
ATOM      2  C6    A A   1      -6.044  13.522  70.213  1.00  0.00    -0.110 A  
ATOM      3  H62   A A   1      -6.700  14.652  71.691  1.00  0.00     0.000 HD 
ATOM      4  H61   A A   1      -6.431  13.098  72.211  1.00  0.00     0.000 HD 
ATOM      5  N1    A A   1      -5.628  14.483  69.362  1.00  0.00    -0.089 NA 
ATOM      6  C2    A A   1      -5.557  14.186  68.046  1.00  0.00    -0.122 A  
ATOM      7  N3    A A   1      -5.837  13.013  67.430  1.00  0.00    -0.325 NA 
ATOM      8  C4    A A   1      -6.248  12.091  68.318  1.00  0.00    -0.051 A  
ATOM      9  C5    A A   1      -6.361  12.257  69.695  1.00  0.00    -0.111 A  
ATOM     10  N7    A A   1      -6.763  11.089  70.302  1.00  0.00    -0.235 NA 
ATOM     11  C8    A A   1      -6.907  10.235  69.315  1.00  0.00    -0.068 A  
ATOM     12  N9    A A   1      -6.624  10.797  68.089  1.00  0.00    -0.062 NA 
ENDROOT
BRANCH  12  13
ATOM     13  C1*   A A   1      -6.699  10.039  66.861  1.00  0.00    -0.079 C  
ATOM     14  O4*   A A   1      -7.109  10.965  65.828  1.00  0.00    -0.094 OA 
ATOM     15  C4*   A A   1      -8.538  10.808  65.627  1.00  0.00    -0.180 C  
ATOM     16  C3*   A A   1      -8.940   9.443  66.194  1.00  0.00    -0.161 C  
ATOM     17  H2*   A A   1      -8.320   7.185  67.643  1.00  0.00     0.000 HD 
ATOM     18  C2*   A A   1      -7.625   8.836  66.674  1.00  0.00    -0.089 C  
ATOM     19  O3*   A A   1      -9.546   8.630  65.182  1.00  0.00    -0.363 OA 
ATOM     20  H3*   A A   1      -9.795   7.783  65.534  1.00  0.00     0.000 HD 
ATOM     21  O2*   A A   1      -7.745   7.932  67.759  1.00  0.00    -0.116 OA 
BRANCH  15  22
ATOM     22  C5*   A A   1      -9.276  11.954  66.333  1.00  0.00    -0.215 C  
ATOM     23  O5*   A A   1     -10.033  12.707  65.390  1.00  0.00    -0.324 OA 
ATOM     24  H5*   A A   1     -10.490  13.417  65.826  1.00  0.00     0.000 HD 
ENDBRANCH  15  22
ENDBRANCH  12  13
TORSDOF 2
ENDMDL
MODEL      196
REMARK 921   NORMALIZED FREE ENERGY PREDICTED BY IDOCK:   -2.72 KCAL/MOL
REMARK 922        TOTAL FREE ENERGY PREDICTED BY IDOCK:   -3.11 KCAL/MOL
REMARK 923 INTER-LIGAND FREE ENERGY PREDICTED BY IDOCK:   -3.62 KCAL/MOL
REMARK 924 INTRA-LIGAND FREE ENERGY PREDICTED BY IDOCK:    0.52 KCAL/MOL
REMARK 927      BINDING AFFINITY PREDICTED BY RF-SCORE:    0.00 PKD
ROOT
ATOM      1  N6    A A   1      -8.149   1.887  72.682  1.00  0.00    -0.052 NA 
ATOM      2  C6    A A   1      -9.069   2.928  72.703  1.00  0.00    -0.087 A  
ATOM      3  H62   A A   1      -8.647   1.002  72.770  1.00  0.00     0.000 HD 
ATOM      4  H61   A A   1      -7.502   1.827  71.895  1.00  0.00     0.000 HD 
ATOM      5  N1    A A   1      -9.925   3.008  73.744  1.00  0.00    -0.105 NA 
ATOM      6  C2    A A   1     -10.818   4.021  73.762  1.00  0.00    -0.253 A  
ATOM      7  N3    A A   1     -10.978   5.020  72.862  1.00  0.00    -0.260 NA 
ATOM      8  C4    A A   1     -10.107   4.895  71.846  1.00  0.00    -0.199 A  
ATOM      9  C5    A A   1      -9.134   3.911  71.703  1.00  0.00    -0.116 A  
ATOM     10  N7    A A   1      -8.384   4.118  70.568  1.00  0.00    -0.065 NA 
ATOM     11  C8    A A   1      -8.900   5.195  70.022  1.00  0.00    -0.111 A  
ATOM     12  N9    A A   1      -9.959   5.696  70.748  1.00  0.00    -0.186 NA 
ENDROOT
BRANCH  12  13
ATOM     13  C1*   A A   1     -10.670   6.888  70.346  1.00  0.00    -0.246 C  
ATOM     14  O4*   A A   1     -11.593   6.486  69.307  1.00  0.00    -0.309 OA 
ATOM     15  C4*   A A   1     -10.993   6.808  68.025  1.00  0.00    -0.209 C  
ATOM     16  C3*   A A   1      -9.901   7.853  68.272  1.00  0.00    -0.169 C  
ATOM     17  H2*   A A   1      -8.323   9.288  70.013  1.00  0.00     0.000 HD 
ATOM     18  C2*   A A   1      -9.976   8.124  69.772  1.00  0.00    -0.191 C  
ATOM     19  O3*   A A   1     -10.156   9.045  67.518  1.00  0.00    -0.196 OA 
ATOM     20  H3*   A A   1      -9.479   9.693  67.672  1.00  0.00     0.000 HD 
ATOM     21  O2*   A A   1      -8.754   8.520  70.370  1.00  0.00    -0.136 OA 
BRANCH  15  22
ATOM     22  C5*   A A   1     -10.421   5.529  67.400  1.00  0.00    -0.219 C  
ATOM     23  O5*   A A   1     -10.716   5.486  66.006  1.00  0.00    -0.515 OA 
ATOM     24  H5*   A A   1     -10.363   4.694  65.619  1.00  0.00     0.000 HD 
ENDBRANCH  15  22
ENDBRANCH  12  13
TORSDOF 2
ENDMDL
MODEL      197
REMARK 921   NORMALIZED FREE ENERGY PREDICTED BY IDOCK:   -2.71 KCAL/MOL
REMARK 922        TOTAL FREE ENERGY PREDICTED BY IDOCK:   -3.10 KCAL/MOL
REMARK 923 INTER-LIGAND FREE ENERGY PREDICTED BY IDOCK:   -3.59 KCAL/MOL
REMARK 924 INTRA-LIGAND FREE ENERGY PREDICTED BY IDOCK:    0.49 KCAL/MOL
REMARK 927      BINDING AFFINITY PREDICTED BY RF-SCORE:    0.00 PKD
ROOT
ATOM      1  N6    A A   1      -9.491  16.910  66.652  1.00  0.00    -0.253 NA 
ATOM      2  C6    A A   1      -9.246  15.542  66.645  1.00  0.00    -0.271 A  
ATOM      3  H62   A A   1      -8.631  17.402  66.411  1.00  0.00     0.000 HD 
ATOM      4  H61   A A   1     -10.252  17.270  66.076  1.00  0.00     0.000 HD 
ATOM      5  N1    A A   1      -8.240  15.065  67.406  1.00  0.00    -0.179 NA 
ATOM      6  C2    A A   1      -8.005  13.735  67.398  1.00  0.00    -0.162 A  
ATOM      7  N3    A A   1      -8.667  12.766  66.722  1.00  0.00    -0.168 NA 
ATOM      8  C4    A A   1      -9.656  13.291  65.978  1.00  0.00    -0.160 A  
ATOM      9  C5    A A   1     -10.012  14.633  65.898  1.00  0.00    -0.328 A  
ATOM     10  N7    A A   1     -11.105  14.806  65.079  1.00  0.00    -0.381 NA 
ATOM     11  C8    A A   1     -11.398  13.599  64.657  1.00  0.00    -0.366 A  
ATOM     12  N9    A A   1     -10.539  12.644  65.158  1.00  0.00    -0.291 NA 
ENDROOT
BRANCH  12  13
ATOM     13  C1*   A A   1     -10.681  11.242  64.842  1.00  0.00    -0.271 C  
ATOM     14  O4*   A A   1     -11.692  10.718  65.734  1.00  0.00     0.519 OA 
ATOM     15  C4*   A A   1     -11.017  10.063  66.841  1.00  0.00    -0.000 C  
ATOM     16  C3*   A A   1      -9.584   9.755  66.395  1.00  0.00    -0.200 C  
ATOM     17  H2*   A A   1      -7.541  10.039  64.572  1.00  0.00     0.000 HD 
ATOM     18  C2*   A A   1      -9.532  10.238  64.948  1.00  0.00    -0.279 C  
ATOM     19  O3*   A A   1      -9.315   8.351  66.481  1.00  0.00    -0.172 OA 
ATOM     20  H3*   A A   1      -8.427   8.160  66.205  1.00  0.00     0.000 HD 
ATOM     21  O2*   A A   1      -8.254  10.663  64.506  1.00  0.00    -0.118 OA 
BRANCH  15  22
ATOM     22  C5*   A A   1     -11.043  10.987  68.065  1.00  0.00    -0.286 C  
ATOM     23  O5*   A A   1     -11.096  10.217  69.263  1.00  0.00    -0.227 OA 
ATOM     24  H5*   A A   1     -11.112  10.789  70.022  1.00  0.00     0.000 HD 
ENDBRANCH  15  22
ENDBRANCH  12  13
TORSDOF 2
ENDMDL
MODEL      198
REMARK 921   NORMALIZED FREE ENERGY PREDICTED BY IDOCK:   -2.71 KCAL/MOL
REMARK 922        TOTAL FREE ENERGY PREDICTED BY IDOCK:   -3.10 KCAL/MOL
REMARK 923 INTER-LIGAND FREE ENERGY PREDICTED BY IDOCK:   -2.99 KCAL/MOL
REMARK 924 INTRA-LIGAND FREE ENERGY PREDICTED BY IDOCK:   -0.11 KCAL/MOL
REMARK 927      BINDING AFFINITY PREDICTED BY RF-SCORE:    0.00 PKD
ROOT
ATOM      1  N6    A A   1     -11.407   2.682  73.491  1.00  0.00    -0.210 NA 
ATOM      2  C6    A A   1     -10.328   3.118  72.731  1.00  0.00    -0.157 A  
ATOM      3  H62   A A   1     -11.064   2.345  74.390  1.00  0.00     0.000 HD 
ATOM      4  H61   A A   1     -12.180   3.328  73.651  1.00  0.00     0.000 HD 
ATOM      5  N1    A A   1      -9.304   2.265  72.519  1.00  0.00    -0.080 NA 
ATOM      6  C2    A A   1      -8.258   2.691  71.780  1.00  0.00    -0.057 A  
ATOM      7  N3    A A   1      -8.082   3.894  71.182  1.00  0.00    -0.063 NA 
ATOM      8  C4    A A   1      -9.124   4.707  71.424  1.00  0.00    -0.131 A  
ATOM      9  C5    A A   1     -10.265   4.398  72.158  1.00  0.00    -0.177 A  
ATOM     10  N7    A A   1     -11.151   5.451  72.161  1.00  0.00    -0.207 NA 
ATOM     11  C8    A A   1     -10.557   6.387  71.458  1.00  0.00    -0.231 A  
ATOM     12  N9    A A   1      -9.317   5.993  71.003  1.00  0.00    -0.160 NA 
ENDROOT
BRANCH  12  13
ATOM     13  C1*   A A   1      -8.488   6.855  70.192  1.00  0.00    -0.140 C  
ATOM     14  O4*   A A   1      -7.326   7.180  70.991  1.00  0.00    -0.073 OA 
ATOM     15  C4*   A A   1      -7.540   8.490  71.581  1.00  0.00    -0.108 C  
ATOM     16  C3*   A A   1      -8.627   9.196  70.764  1.00  0.00    -0.219 C  
ATOM     17  H2*   A A   1     -10.580   9.121  68.825  1.00  0.00     0.000 HD 
ATOM     18  C2*   A A   1      -8.959   8.206  69.652  1.00  0.00    -0.154 C  
ATOM     19  O3*   A A   1      -8.139  10.431  70.228  1.00  0.00    -0.397 OA 
ATOM     20  H3*   A A   1      -8.813  10.869  69.721  1.00  0.00     0.000 HD 
ATOM     21  O2*   A A   1     -10.287   8.282  69.161  1.00  0.00    -0.212 OA 
BRANCH  15  22
ATOM     22  C5*   A A   1      -7.955   8.320  73.048  1.00  0.00    -0.140 C  
ATOM     23  O5*   A A   1      -7.312   7.181  73.615  1.00  0.00    -0.079 OA 
ATOM     24  H5*   A A   1      -7.569   7.076  74.523  1.00  0.00     0.000 HD 
ENDBRANCH  15  22
ENDBRANCH  12  13
TORSDOF 2
ENDMDL
MODEL      199
REMARK 921   NORMALIZED FREE ENERGY PREDICTED BY IDOCK:   -2.69 KCAL/MOL
REMARK 922        TOTAL FREE ENERGY PREDICTED BY IDOCK:   -3.07 KCAL/MOL
REMARK 923 INTER-LIGAND FREE ENERGY PREDICTED BY IDOCK:   -2.97 KCAL/MOL
REMARK 924 INTRA-LIGAND FREE ENERGY PREDICTED BY IDOCK:   -0.10 KCAL/MOL
REMARK 927      BINDING AFFINITY PREDICTED BY RF-SCORE:    0.00 PKD
ROOT
ATOM      1  N6    A A   1      -6.237   5.578  74.001  1.00  0.00    -0.061 NA 
ATOM      2  C6    A A   1      -6.499   6.511  73.005  1.00  0.00    -0.067 A  
ATOM      3  H62   A A   1      -6.652   5.899  74.874  1.00  0.00     0.000 HD 
ATOM      4  H61   A A   1      -6.509   4.608  73.841  1.00  0.00     0.000 HD 
ATOM      5  N1    A A   1      -6.139   7.794  73.215  1.00  0.00    -0.060 NA 
ATOM      6  C2    A A   1      -6.395   8.699  72.246  1.00  0.00    -0.071 A  
ATOM      7  N3    A A   1      -6.969   8.498  71.035  1.00  0.00    -0.055 NA 
ATOM      8  C4    A A   1      -7.311   7.208  70.875  1.00  0.00    -0.075 A  
ATOM      9  C5    A A   1      -7.102   6.175  71.782  1.00  0.00    -0.085 A  
ATOM     10  N7    A A   1      -7.532   4.972  71.269  1.00  0.00    -0.079 NA 
ATOM     11  C8    A A   1      -8.007   5.269  70.082  1.00  0.00    -0.080 A  
ATOM     12  N9    A A   1      -7.914   6.615  69.801  1.00  0.00    -0.118 NA 
ENDROOT
BRANCH  12  13
ATOM     13  C1*   A A   1      -8.359   7.168  68.543  1.00  0.00    -0.125 C  
ATOM     14  O4*   A A   1      -9.264   8.251  68.866  1.00  0.00    -0.147 OA 
ATOM     15  C4*   A A   1     -10.621   7.750  68.751  1.00  0.00    -0.135 C  
ATOM     16  C3*   A A   1     -10.579   6.486  67.885  1.00  0.00    -0.252 C  
ATOM     17  H2*   A A   1      -9.139   4.523  66.600  1.00  0.00     0.000 HD 
ATOM     18  C2*   A A   1      -9.111   6.355  67.489  1.00  0.00    -0.114 C  
ATOM     19  O3*   A A   1     -11.416   6.631  66.732  1.00  0.00    -0.776 OA 
ATOM     20  H3*   A A   1     -11.389   5.848  66.195  1.00  0.00     0.000 HD 
ATOM     21  O2*   A A   1      -8.672   5.028  67.255  1.00  0.00    -0.105 OA 
BRANCH  15  22
ATOM     22  C5*   A A   1     -11.172   7.458  70.153  1.00  0.00    -0.218 C  
ATOM     23  O5*   A A   1     -11.416   6.063  70.306  1.00  0.00    -0.339 OA 
ATOM     24  H5*   A A   1     -11.757   5.881  71.174  1.00  0.00     0.000 HD 
ENDBRANCH  15  22
ENDBRANCH  12  13
TORSDOF 2
ENDMDL
MODEL      200
REMARK 921   NORMALIZED FREE ENERGY PREDICTED BY IDOCK:   -2.68 KCAL/MOL
REMARK 922        TOTAL FREE ENERGY PREDICTED BY IDOCK:   -3.06 KCAL/MOL
REMARK 923 INTER-LIGAND FREE ENERGY PREDICTED BY IDOCK:   -2.79 KCAL/MOL
REMARK 924 INTRA-LIGAND FREE ENERGY PREDICTED BY IDOCK:   -0.26 KCAL/MOL
REMARK 927      BINDING AFFINITY PREDICTED BY RF-SCORE:    0.00 PKD
ROOT
ATOM      1  N6    A A   1      -8.404   3.970  64.083  1.00  0.00    -0.091 NA 
ATOM      2  C6    A A   1      -8.660   4.273  65.415  1.00  0.00    -0.120 A  
ATOM      3  H62   A A   1      -9.289   3.820  63.600  1.00  0.00     0.000 HD 
ATOM      4  H61   A A   1      -7.834   4.619  63.538  1.00  0.00     0.000 HD 
ATOM      5  N1    A A   1      -9.412   3.415  66.135  1.00  0.00    -0.150 NA 
ATOM      6  C2    A A   1      -9.659   3.712  67.429  1.00  0.00    -0.149 A  
ATOM      7  N3    A A   1      -9.233   4.779  68.147  1.00  0.00    -0.118 NA 
ATOM      8  C4    A A   1      -8.492   5.602  67.386  1.00  0.00    -0.106 A  
ATOM      9  C5    A A   1      -8.154   5.419  66.049  1.00  0.00    -0.107 A  
ATOM     10  N7    A A   1      -7.341   6.434  65.600  1.00  0.00    -0.077 NA 
ATOM     11  C8    A A   1      -7.199   7.228  66.636  1.00  0.00    -0.080 A  
ATOM     12  N9    A A   1      -7.892   6.779  67.740  1.00  0.00    -0.111 NA 
ENDROOT
BRANCH  12  13
ATOM     13  C1*   A A   1      -7.867   7.484  69.001  1.00  0.00    -0.120 C  
ATOM     14  O4*   A A   1      -9.230   7.885  69.276  1.00  0.00    -0.148 OA 
ATOM     15  C4*   A A   1      -9.377   9.273  68.877  1.00  0.00    -0.150 C  
ATOM     16  C3*   A A   1      -7.975   9.886  68.800  1.00  0.00    -0.093 C  
ATOM     17  H2*   A A   1      -5.238   9.591  68.823  1.00  0.00     0.000 HD 
ATOM     18  C2*   A A   1      -7.049   8.755  69.234  1.00  0.00    -0.062 C  
ATOM     19  O3*   A A   1      -7.863  11.013  69.678  1.00  0.00    -0.369 OA 
ATOM     20  H3*   A A   1      -6.994  11.393  69.630  1.00  0.00     0.000 HD 
ATOM     21  O2*   A A   1      -5.747   8.801  68.678  1.00  0.00    -0.040 OA 
BRANCH  15  22
ATOM     22  C5*   A A   1     -10.098   9.336  67.523  1.00  0.00    -0.218 C  
ATOM     23  O5*   A A   1     -10.823   8.131  67.294  1.00  0.00    -0.484 OA 
ATOM     24  H5*   A A   1     -11.269   8.170  66.456  1.00  0.00     0.000 HD 
ENDBRANCH  15  22
ENDBRANCH  12  13
TORSDOF 2
ENDMDL
MODEL      201
REMARK 921   NORMALIZED FREE ENERGY PREDICTED BY IDOCK:   -2.67 KCAL/MOL
REMARK 922        TOTAL FREE ENERGY PREDICTED BY IDOCK:   -3.05 KCAL/MOL
REMARK 923 INTER-LIGAND FREE ENERGY PREDICTED BY IDOCK:   -3.74 KCAL/MOL
REMARK 924 INTRA-LIGAND FREE ENERGY PREDICTED BY IDOCK:    0.69 KCAL/MOL
REMARK 927      BINDING AFFINITY PREDICTED BY RF-SCORE:    0.00 PKD
ROOT
ATOM      1  N6    A A   1     -11.617   2.450  73.501  1.00  0.00    -0.189 NA 
ATOM      2  C6    A A   1     -10.707   3.486  73.671  1.00  0.00    -0.219 A  
ATOM      3  H62   A A   1     -11.792   2.011  74.405  1.00  0.00     0.000 HD 
ATOM      4  H61   A A   1     -12.510   2.657  73.054  1.00  0.00     0.000 HD 
ATOM      5  N1    A A   1      -9.525   3.213  74.262  1.00  0.00    -0.088 NA 
ATOM      6  C2    A A   1      -8.642   4.222  74.426  1.00  0.00    -0.095 A  
ATOM      7  N3    A A   1      -8.765   5.518  74.054  1.00  0.00    -0.120 NA 
ATOM      8  C4    A A   1      -9.957   5.740  73.473  1.00  0.00    -0.180 A  
ATOM      9  C5    A A   1     -10.953   4.798  73.236  1.00  0.00    -0.316 A  
ATOM     10  N7    A A   1     -12.020   5.363  72.576  1.00  0.00    -0.083 NA 
ATOM     11  C8    A A   1     -11.689   6.625  72.429  1.00  0.00    -0.225 A  
ATOM     12  N9    A A   1     -10.455   6.910  72.972  1.00  0.00    -0.240 NA 
ENDROOT
BRANCH  12  13
ATOM     13  C1*   A A   1      -9.878   8.233  72.912  1.00  0.00    -0.233 C  
ATOM     14  O4*   A A   1     -10.836   9.071  72.222  1.00  0.00    -0.278 OA 
ATOM     15  C4*   A A   1     -10.417   9.183  70.837  1.00  0.00    -0.278 C  
ATOM     16  C3*   A A   1      -8.932   8.811  70.768  1.00  0.00    -0.192 C  
ATOM     17  H2*   A A   1      -6.670   7.794  71.963  1.00  0.00     0.000 HD 
ATOM     18  C2*   A A   1      -8.549   8.537  72.219  1.00  0.00    -0.165 C  
ATOM     19  O3*   A A   1      -8.162   9.890  70.224  1.00  0.00    -0.243 OA 
ATOM     20  H3*   A A   1      -7.242   9.659  70.181  1.00  0.00     0.000 HD 
ATOM     21  O2*   A A   1      -7.496   7.605  72.393  1.00  0.00    -0.072 OA 
BRANCH  15  22
ATOM     22  C5*   A A   1     -11.275   8.248  69.973  1.00  0.00    -0.081 C  
ATOM     23  O5*   A A   1     -11.014   8.476  68.591  1.00  0.00    -0.439 OA 
ATOM     24  H5*   A A   1     -11.545   7.897  68.056  1.00  0.00     0.000 HD 
ENDBRANCH  15  22
ENDBRANCH  12  13
TORSDOF 2
ENDMDL
MODEL      202
REMARK 921   NORMALIZED FREE ENERGY PREDICTED BY IDOCK:   -2.57 KCAL/MOL
REMARK 922        TOTAL FREE ENERGY PREDICTED BY IDOCK:   -2.94 KCAL/MOL
REMARK 923 INTER-LIGAND FREE ENERGY PREDICTED BY IDOCK:   -3.67 KCAL/MOL
REMARK 924 INTRA-LIGAND FREE ENERGY PREDICTED BY IDOCK:    0.73 KCAL/MOL
REMARK 927      BINDING AFFINITY PREDICTED BY RF-SCORE:    0.00 PKD
ROOT
ATOM      1  N6    A A   1     -11.719  13.630  67.313  1.00  0.00    -0.358 NA 
ATOM      2  C6    A A   1     -10.506  12.956  67.378  1.00  0.00    -0.233 A  
ATOM      3  H62   A A   1     -11.644  14.385  66.632  1.00  0.00     0.000 HD 
ATOM      4  H61   A A   1     -12.564  13.091  67.120  1.00  0.00     0.000 HD 
ATOM      5  N1    A A   1      -9.388  13.668  67.634  1.00  0.00    -0.207 NA 
ATOM      6  C2    A A   1      -8.210  13.010  67.697  1.00  0.00    -0.171 A  
ATOM      7  N3    A A   1      -7.975  11.684  67.550  1.00  0.00    -0.133 NA 
ATOM      8  C4    A A   1      -9.116  11.021  67.295  1.00  0.00    -0.138 A  
ATOM      9  C5    A A   1     -10.393  11.567  67.210  1.00  0.00    -0.206 A  
ATOM     10  N7    A A   1     -11.335  10.589  66.985  1.00  0.00    -0.226 NA 
ATOM     11  C8    A A   1     -10.646   9.474  66.918  1.00  0.00    -0.171 A  
ATOM     12  N9    A A   1      -9.293   9.682  67.082  1.00  0.00    -0.137 NA 
ENDROOT
BRANCH  12  13
ATOM     13  C1*   A A   1      -8.341   8.595  67.063  1.00  0.00    -0.106 C  
ATOM     14  O4*   A A   1      -8.991   7.490  66.392  1.00  0.00    -0.153 OA 
ATOM     15  C4*   A A   1      -9.503   6.588  67.409  1.00  0.00    -0.124 C  
ATOM     16  C3*   A A   1      -8.753   6.883  68.712  1.00  0.00    -0.129 C  
ATOM     17  H2*   A A   1      -7.036   8.464  70.171  1.00  0.00     0.000 HD 
ATOM     18  C2*   A A   1      -7.756   7.972  68.330  1.00  0.00    -0.117 C  
ATOM     19  O3*   A A   1      -8.082   5.710  69.188  1.00  0.00    -0.094 OA 
ATOM     20  H3*   A A   1      -7.617   5.893  69.996  1.00  0.00     0.000 HD 
ATOM     21  O2*   A A   1      -7.400   8.852  69.383  1.00  0.00    -0.072 OA 
BRANCH  15  22
ATOM     22  C5*   A A   1     -11.014   6.808  67.563  1.00  0.00    -0.303 C  
ATOM     23  O5*   A A   1     -11.422   6.515  68.896  1.00  0.00    -0.596 OA 
ATOM     24  H5*   A A   1     -12.357   6.651  68.992  1.00  0.00     0.000 HD 
ENDBRANCH  15  22
ENDBRANCH  12  13
TORSDOF 2
ENDMDL
MODEL      203
REMARK 921   NORMALIZED FREE ENERGY PREDICTED BY IDOCK:   -2.57 KCAL/MOL
REMARK 922        TOTAL FREE ENERGY PREDICTED BY IDOCK:   -2.94 KCAL/MOL
REMARK 923 INTER-LIGAND FREE ENERGY PREDICTED BY IDOCK:   -3.45 KCAL/MOL
REMARK 924 INTRA-LIGAND FREE ENERGY PREDICTED BY IDOCK:    0.51 KCAL/MOL
REMARK 927      BINDING AFFINITY PREDICTED BY RF-SCORE:    0.00 PKD
ROOT
ATOM      1  N6    A A   1      -7.968  11.071  66.810  1.00  0.00    -0.145 NA 
ATOM      2  C6    A A   1      -8.788  10.042  67.258  1.00  0.00    -0.135 A  
ATOM      3  H62   A A   1      -8.536  11.753  66.308  1.00  0.00     0.000 HD 
ATOM      4  H61   A A   1      -7.386  11.560  67.490  1.00  0.00     0.000 HD 
ATOM      5  N1    A A   1      -9.557   9.395  66.358  1.00  0.00    -0.204 NA 
ATOM      6  C2    A A   1     -10.352   8.395  66.797  1.00  0.00    -0.287 A  
ATOM      7  N3    A A   1     -10.486   7.915  68.056  1.00  0.00    -0.207 NA 
ATOM      8  C4    A A   1      -9.703   8.592  68.913  1.00  0.00    -0.170 A  
ATOM      9  C5    A A   1      -8.835   9.633  68.600  1.00  0.00    -0.128 A  
ATOM     10  N7    A A   1      -8.152  10.060  69.716  1.00  0.00    -0.174 NA 
ATOM     11  C8    A A   1      -8.606   9.307  70.691  1.00  0.00    -0.225 A  
ATOM     12  N9    A A   1      -9.562   8.412  70.262  1.00  0.00    -0.164 NA 
ENDROOT
BRANCH  12  13
ATOM     13  C1*   A A   1     -10.191   7.471  71.159  1.00  0.00    -0.193 C  
ATOM     14  O4*   A A   1      -9.204   7.137  72.163  1.00  0.00    -0.131 OA 
ATOM     15  C4*   A A   1      -8.595   5.872  71.790  1.00  0.00    -0.131 C  
ATOM     16  C3*   A A   1      -9.540   5.174  70.807  1.00  0.00    -0.179 C  
ATOM     17  H2*   A A   1     -11.765   5.232  69.187  1.00  0.00     0.000 HD 
ATOM     18  C2*   A A   1     -10.736   6.116  70.706  1.00  0.00    -0.266 C  
ATOM     19  O3*   A A   1      -9.934   3.890  71.306  1.00  0.00    -0.179 OA 
ATOM     20  H3*   A A   1     -10.520   3.457  70.696  1.00  0.00     0.000 HD 
ATOM     21  O2*   A A   1     -11.426   6.074  69.469  1.00  0.00    -0.384 OA 
BRANCH  15  22
ATOM     22  C5*   A A   1      -7.221   6.140  71.161  1.00  0.00    -0.079 C  
ATOM     23  O5*   A A   1      -7.312   6.097  69.740  1.00  0.00    -0.075 OA 
ATOM     24  H5*   A A   1      -6.462   6.263  69.350  1.00  0.00     0.000 HD 
ENDBRANCH  15  22
ENDBRANCH  12  13
TORSDOF 2
ENDMDL
MODEL      204
REMARK 921   NORMALIZED FREE ENERGY PREDICTED BY IDOCK:   -2.55 KCAL/MOL
REMARK 922        TOTAL FREE ENERGY PREDICTED BY IDOCK:   -2.91 KCAL/MOL
REMARK 923 INTER-LIGAND FREE ENERGY PREDICTED BY IDOCK:   -2.74 KCAL/MOL
REMARK 924 INTRA-LIGAND FREE ENERGY PREDICTED BY IDOCK:   -0.17 KCAL/MOL
REMARK 927      BINDING AFFINITY PREDICTED BY RF-SCORE:    0.00 PKD
ROOT
ATOM      1  N6    A A   1      -9.763   1.753  71.933  1.00  0.00    -0.117 NA 
ATOM      2  C6    A A   1      -9.304   3.022  72.265  1.00  0.00    -0.107 A  
ATOM      3  H62   A A   1     -10.525   1.501  72.562  1.00  0.00     0.000 HD 
ATOM      4  H61   A A   1     -10.055   1.578  70.971  1.00  0.00     0.000 HD 
ATOM      5  N1    A A   1      -8.918   3.254  73.537  1.00  0.00    -0.082 NA 
ATOM      6  C2    A A   1      -8.472   4.488  73.856  1.00  0.00    -0.103 A  
ATOM      7  N3    A A   1      -8.334   5.569  73.052  1.00  0.00    -0.118 NA 
ATOM      8  C4    A A   1      -8.734   5.289  71.800  1.00  0.00    -0.134 A  
ATOM      9  C5    A A   1      -9.205   4.067  71.332  1.00  0.00    -0.129 A  
ATOM     10  N7    A A   1      -9.475   4.124  69.984  1.00  0.00    -0.172 NA 
ATOM     11  C8    A A   1      -9.190   5.358  69.641  1.00  0.00    -0.118 A  
ATOM     12  N9    A A   1      -8.753   6.113  70.708  1.00  0.00    -0.135 NA 
ENDROOT
BRANCH  12  13
ATOM     13  C1*   A A   1      -8.366   7.497  70.563  1.00  0.00    -0.131 C  
ATOM     14  O4*   A A   1      -9.295   8.271  71.358  1.00  0.00    -0.149 OA 
ATOM     15  C4*   A A   1     -10.311   8.803  70.468  1.00  0.00    -0.203 C  
ATOM     16  C3*   A A   1      -9.749   8.763  69.044  1.00  0.00    -0.172 C  
ATOM     17  H2*   A A   1      -7.808   7.952  67.267  1.00  0.00     0.000 HD 
ATOM     18  C2*   A A   1      -8.333   8.221  69.216  1.00  0.00    -0.122 C  
ATOM     19  O3*   A A   1      -9.733  10.074  68.465  1.00  0.00    -0.150 OA 
ATOM     20  H3*   A A   1      -9.385  10.049  67.582  1.00  0.00     0.000 HD 
ATOM     21  O2*   A A   1      -7.829   7.502  68.104  1.00  0.00    -0.117 OA 
BRANCH  15  22
ATOM     22  C5*   A A   1     -11.586   7.960  70.597  1.00  0.00    -0.204 C  
ATOM     23  O5*   A A   1     -11.692   7.423  71.913  1.00  0.00    -0.271 OA 
ATOM     24  H5*   A A   1     -12.482   6.902  71.994  1.00  0.00     0.000 HD 
ENDBRANCH  15  22
ENDBRANCH  12  13
TORSDOF 2
ENDMDL
MODEL      205
REMARK 921   NORMALIZED FREE ENERGY PREDICTED BY IDOCK:   -2.51 KCAL/MOL
REMARK 922        TOTAL FREE ENERGY PREDICTED BY IDOCK:   -2.87 KCAL/MOL
REMARK 923 INTER-LIGAND FREE ENERGY PREDICTED BY IDOCK:   -2.75 KCAL/MOL
REMARK 924 INTRA-LIGAND FREE ENERGY PREDICTED BY IDOCK:   -0.13 KCAL/MOL
REMARK 927      BINDING AFFINITY PREDICTED BY RF-SCORE:    0.00 PKD
ROOT
ATOM      1  N6    A A   1      -6.376  10.694  63.563  1.00  0.00    -0.365 NA 
ATOM      2  C6    A A   1      -6.194   9.701  64.519  1.00  0.00    -0.090 A  
ATOM      3  H62   A A   1      -6.921  10.314  62.790  1.00  0.00     0.000 HD 
ATOM      4  H61   A A   1      -6.789  11.580  63.856  1.00  0.00     0.000 HD 
ATOM      5  N1    A A   1      -5.648   8.529  64.132  1.00  0.00    -0.063 NA 
ATOM      6  C2    A A   1      -5.471   7.567  65.063  1.00  0.00    -0.033 A  
ATOM      7  N3    A A   1      -5.758   7.610  66.386  1.00  0.00    -0.035 NA 
ATOM      8  C4    A A   1      -6.301   8.794  66.720  1.00  0.00    -0.059 A  
ATOM      9  C5    A A   1      -6.532   9.871  65.871  1.00  0.00    -0.087 A  
ATOM     10  N7    A A   1      -7.053  10.941  66.561  1.00  0.00    -0.133 NA 
ATOM     11  C8    A A   1      -7.153  10.520  67.800  1.00  0.00    -0.083 A  
ATOM     12  N9    A A   1      -6.726   9.218  67.948  1.00  0.00    -0.070 NA 
ENDROOT
BRANCH  12  13
ATOM     13  C1*   A A   1      -6.729   8.551  69.229  1.00  0.00    -0.050 C  
ATOM     14  O4*   A A   1      -7.694   7.477  69.133  1.00  0.00    -0.108 OA 
ATOM     15  C4*   A A   1      -8.933   7.933  69.737  1.00  0.00    -0.146 C  
ATOM     16  C3*   A A   1      -8.598   9.121  70.645  1.00  0.00    -0.226 C  
ATOM     17  H2*   A A   1      -6.802  11.005  71.543  1.00  0.00     0.000 HD 
ATOM     18  C2*   A A   1      -7.082   9.254  70.540  1.00  0.00    -0.100 C  
ATOM     19  O3*   A A   1      -9.002   8.860  71.995  1.00  0.00    -0.365 OA 
ATOM     20  H3*   A A   1      -8.795   9.596  72.557  1.00  0.00     0.000 HD 
ATOM     21  O2*   A A   1      -6.583  10.568  70.728  1.00  0.00    -0.343 OA 
BRANCH  15  22
ATOM     22  C5*   A A   1      -9.919   8.327  68.630  1.00  0.00    -0.190 C  
ATOM     23  O5*   A A   1     -10.465   9.617  68.892  1.00  0.00    -0.203 OA 
ATOM     24  H5*   A A   1     -11.076   9.862  68.206  1.00  0.00     0.000 HD 
ENDBRANCH  15  22
ENDBRANCH  12  13
TORSDOF 2
ENDMDL
MODEL      206
REMARK 921   NORMALIZED FREE ENERGY PREDICTED BY IDOCK:   -2.48 KCAL/MOL
REMARK 922        TOTAL FREE ENERGY PREDICTED BY IDOCK:   -2.83 KCAL/MOL
REMARK 923 INTER-LIGAND FREE ENERGY PREDICTED BY IDOCK:   -2.62 KCAL/MOL
REMARK 924 INTRA-LIGAND FREE ENERGY PREDICTED BY IDOCK:   -0.22 KCAL/MOL
REMARK 927      BINDING AFFINITY PREDICTED BY RF-SCORE:    0.00 PKD
ROOT
ATOM      1  N6    A A   1      -9.641   8.949  66.265  1.00  0.00    -0.240 NA 
ATOM      2  C6    A A   1      -9.776   7.972  67.243  1.00  0.00    -0.177 A  
ATOM      3  H62   A A   1     -10.497   9.501  66.226  1.00  0.00     0.000 HD 
ATOM      4  H61   A A   1      -8.841   9.581  66.317  1.00  0.00     0.000 HD 
ATOM      5  N1    A A   1     -10.834   7.136  67.174  1.00  0.00    -0.347 NA 
ATOM      6  C2    A A   1     -10.963   6.187  68.126  1.00  0.00    -0.307 A  
ATOM      7  N3    A A   1     -10.146   5.927  69.175  1.00  0.00    -0.174 NA 
ATOM      8  C4    A A   1      -9.112   6.786  69.201  1.00  0.00    -0.138 A  
ATOM      9  C5    A A   1      -8.853   7.802  68.286  1.00  0.00    -0.129 A  
ATOM     10  N7    A A   1      -7.680   8.454  68.591  1.00  0.00    -0.105 NA 
ATOM     11  C8    A A   1      -7.243   7.860  69.677  1.00  0.00    -0.070 A  
ATOM     12  N9    A A   1      -8.083   6.852  70.099  1.00  0.00    -0.125 NA 
ENDROOT
BRANCH  12  13
ATOM     13  C1*   A A   1      -7.794   6.049  71.265  1.00  0.00    -0.112 C  
ATOM     14  O4*   A A   1      -8.841   6.325  72.226  1.00  0.00    -0.136 OA 
ATOM     15  C4*   A A   1      -8.331   7.298  73.175  1.00  0.00    -0.114 C  
ATOM     16  C3*   A A   1      -6.802   7.271  73.094  1.00  0.00    -0.065 C  
ATOM     17  H2*   A A   1      -4.494   6.433  71.848  1.00  0.00     0.000 HD 
ATOM     18  C2*   A A   1      -6.502   6.178  72.072  1.00  0.00    -0.057 C  
ATOM     19  O3*   A A   1      -6.230   6.957  74.369  1.00  0.00    -0.074 OA 
ATOM     20  H3*   A A   1      -5.281   6.940  74.319  1.00  0.00     0.000 HD 
ATOM     21  O2*   A A   1      -5.297   6.353  71.347  1.00  0.00    -0.024 OA 
BRANCH  15  22
ATOM     22  C5*   A A   1      -8.892   8.684  72.828  1.00  0.00     0.015 C  
ATOM     23  O5*   A A   1      -9.915   8.569  71.842  1.00  0.00    -0.237 OA 
ATOM     24  H5*   A A   1     -10.262   9.427  71.627  1.00  0.00     0.000 HD 
ENDBRANCH  15  22
ENDBRANCH  12  13
TORSDOF 2
ENDMDL
MODEL      207
REMARK 921   NORMALIZED FREE ENERGY PREDICTED BY IDOCK:   -2.38 KCAL/MOL
REMARK 922        TOTAL FREE ENERGY PREDICTED BY IDOCK:   -2.72 KCAL/MOL
REMARK 923 INTER-LIGAND FREE ENERGY PREDICTED BY IDOCK:   -2.83 KCAL/MOL
REMARK 924 INTRA-LIGAND FREE ENERGY PREDICTED BY IDOCK:    0.11 KCAL/MOL
REMARK 927      BINDING AFFINITY PREDICTED BY RF-SCORE:    0.00 PKD
ROOT
ATOM      1  N6    A A   1     -12.375  14.057  67.191  1.00  0.00    -0.539 NA 
ATOM      2  C6    A A   1     -10.986  14.016  67.138  1.00  0.00    -0.296 A  
ATOM      3  H62   A A   1     -12.735  14.298  66.268  1.00  0.00     0.000 HD 
ATOM      4  H61   A A   1     -12.871  13.236  67.537  1.00  0.00     0.000 HD 
ATOM      5  N1    A A   1     -10.329  15.102  66.680  1.00  0.00    -0.268 NA 
ATOM      6  C2    A A   1      -8.980  15.060  66.630  1.00  0.00    -0.281 A  
ATOM      7  N3    A A   1      -8.153  14.054  67.002  1.00  0.00    -0.086 NA 
ATOM      8  C4    A A   1      -8.854  12.997  67.447  1.00  0.00    -0.203 A  
ATOM      9  C5    A A   1     -10.238  12.906  67.558  1.00  0.00    -0.213 A  
ATOM     10  N7    A A   1     -10.612  11.697  68.100  1.00  0.00    -0.193 NA 
ATOM     11  C8    A A   1      -9.482  11.059  68.299  1.00  0.00    -0.172 A  
ATOM     12  N9    A A   1      -8.386  11.796  67.903  1.00  0.00    -0.141 NA 
ENDROOT
BRANCH  12  13
ATOM     13  C1*   A A   1      -7.037  11.300  68.044  1.00  0.00    -0.070 C  
ATOM     14  O4*   A A   1      -6.325  11.694  66.847  1.00  0.00    -0.134 OA 
ATOM     15  C4*   A A   1      -6.299  10.556  65.946  1.00  0.00    -0.128 C  
ATOM     16  C3*   A A   1      -6.574   9.299  66.778  1.00  0.00    -0.068 C  
ATOM     17  H2*   A A   1      -7.334   8.127  69.150  1.00  0.00     0.000 HD 
ATOM     18  C2*   A A   1      -6.701   9.817  68.207  1.00  0.00    -0.060 C  
ATOM     19  O3*   A A   1      -5.494   8.365  66.660  1.00  0.00    -0.031 OA 
ATOM     20  H3*   A A   1      -5.664   7.586  67.176  1.00  0.00     0.000 HD 
ATOM     21  O2*   A A   1      -7.543   9.048  69.049  1.00  0.00    -0.076 OA 
BRANCH  15  22
ATOM     22  C5*   A A   1      -7.357  10.753  64.852  1.00  0.00     0.238 C  
ATOM     23  O5*   A A   1      -7.542   9.545  64.121  1.00  0.00    -0.113 OA 
ATOM     24  H5*   A A   1      -8.197   9.666  63.443  1.00  0.00     0.000 HD 
ENDBRANCH  15  22
ENDBRANCH  12  13
TORSDOF 2
ENDMDL
MODEL      208
REMARK 921   NORMALIZED FREE ENERGY PREDICTED BY IDOCK:   -2.37 KCAL/MOL
REMARK 922        TOTAL FREE ENERGY PREDICTED BY IDOCK:   -2.71 KCAL/MOL
REMARK 923 INTER-LIGAND FREE ENERGY PREDICTED BY IDOCK:   -2.44 KCAL/MOL
REMARK 924 INTRA-LIGAND FREE ENERGY PREDICTED BY IDOCK:   -0.27 KCAL/MOL
REMARK 927      BINDING AFFINITY PREDICTED BY RF-SCORE:    0.00 PKD
ROOT
ATOM      1  N6    A A   1      -8.983   5.411  71.979  1.00  0.00    -0.134 NA 
ATOM      2  C6    A A   1      -8.033   5.985  71.142  1.00  0.00    -0.116 A  
ATOM      3  H62   A A   1      -8.790   5.690  72.940  1.00  0.00     0.000 HD 
ATOM      4  H61   A A   1      -9.970   5.575  71.777  1.00  0.00     0.000 HD 
ATOM      5  N1    A A   1      -6.728   5.769  71.408  1.00  0.00    -0.059 NA 
ATOM      6  C2    A A   1      -5.807   6.328  70.594  1.00  0.00    -0.019 A  
ATOM      7  N3    A A   1      -6.008   7.093  69.494  1.00  0.00    -0.026 NA 
ATOM      8  C4    A A   1      -7.320   7.280  69.273  1.00  0.00    -0.087 A  
ATOM      9  C5    A A   1      -8.371   6.762  70.023  1.00  0.00    -0.135 A  
ATOM     10  N7    A A   1      -9.586   7.115  69.481  1.00  0.00    -0.154 NA 
ATOM     11  C8    A A   1      -9.283   7.846  68.435  1.00  0.00    -0.134 A  
ATOM     12  N9    A A   1      -7.922   7.993  68.273  1.00  0.00    -0.126 NA 
ENDROOT
BRANCH  12  13
ATOM     13  C1*   A A   1      -7.356   8.744  67.177  1.00  0.00    -0.080 C  
ATOM     14  O4*   A A   1      -6.757   9.928  67.754  1.00  0.00    -0.070 OA 
ATOM     15  C4*   A A   1      -7.692  11.027  67.592  1.00  0.00    -0.112 C  
ATOM     16  C3*   A A   1      -8.675  10.642  66.483  1.00  0.00    -0.146 C  
ATOM     17  H2*   A A   1      -9.710   8.759  64.761  1.00  0.00     0.000 HD 
ATOM     18  C2*   A A   1      -8.186   9.277  66.008  1.00  0.00    -0.111 C  
ATOM     19  O3*   A A   1      -8.645  11.601  65.420  1.00  0.00    -0.389 OA 
ATOM     20  H3*   A A   1      -9.255  11.362  64.732  1.00  0.00     0.000 HD 
ATOM     21  O2*   A A   1      -9.195   8.428  65.487  1.00  0.00    -0.120 OA 
BRANCH  15  22
ATOM     22  C5*   A A   1      -8.410  11.278  68.925  1.00  0.00    -0.071 C  
ATOM     23  O5*   A A   1      -7.674  10.700  69.999  1.00  0.00    -0.351 OA 
ATOM     24  H5*   A A   1      -8.119  10.854  70.824  1.00  0.00     0.000 HD 
ENDBRANCH  15  22
ENDBRANCH  12  13
TORSDOF 2
ENDMDL
MODEL      209
REMARK 921   NORMALIZED FREE ENERGY PREDICTED BY IDOCK:   -2.33 KCAL/MOL
REMARK 922        TOTAL FREE ENERGY PREDICTED BY IDOCK:   -2.67 KCAL/MOL
REMARK 923 INTER-LIGAND FREE ENERGY PREDICTED BY IDOCK:   -3.51 KCAL/MOL
REMARK 924 INTRA-LIGAND FREE ENERGY PREDICTED BY IDOCK:    0.84 KCAL/MOL
REMARK 927      BINDING AFFINITY PREDICTED BY RF-SCORE:    0.00 PKD
ROOT
ATOM      1  N6    A A   1      -7.705  18.175  69.097  1.00  0.00    -0.104 NA 
ATOM      2  C6    A A   1      -8.693  17.325  68.614  1.00  0.00    -0.268 A  
ATOM      3  H62   A A   1      -8.090  18.733  69.858  1.00  0.00     0.000 HD 
ATOM      4  H61   A A   1      -6.819  17.769  69.398  1.00  0.00     0.000 HD 
ATOM      5  N1    A A   1      -9.865  17.863  68.215  1.00  0.00    -0.328 NA 
ATOM      6  C2    A A   1     -10.823  17.034  67.746  1.00  0.00    -0.269 A  
ATOM      7  N3    A A   1     -10.774  15.689  67.595  1.00  0.00    -0.296 NA 
ATOM      8  C4    A A   1      -9.591  15.202  68.008  1.00  0.00    -0.204 A  
ATOM      9  C5    A A   1      -8.519  15.937  68.503  1.00  0.00    -0.184 A  
ATOM     10  N7    A A   1      -7.447  15.120  68.781  1.00  0.00    -0.123 NA 
ATOM     11  C8    A A   1      -7.862  13.912  68.478  1.00  0.00    -0.139 A  
ATOM     12  N9    A A   1      -9.163  13.904  68.020  1.00  0.00    -0.187 NA 
ENDROOT
BRANCH  12  13
ATOM     13  C1*   A A   1      -9.824  12.687  67.611  1.00  0.00    -0.210 C  
ATOM     14  O4*   A A   1      -9.046  11.592  68.149  1.00  0.00    -0.170 OA 
ATOM     15  C4*   A A   1      -8.186  11.092  67.092  1.00  0.00    -0.137 C  
ATOM     16  C3*   A A   1      -8.772  11.558  65.756  1.00  0.00    -0.007 C  
ATOM     17  H2*   A A   1     -10.564  13.100  64.345  1.00  0.00     0.000 HD 
ATOM     18  C2*   A A   1     -10.044  12.305  66.146  1.00  0.00    -0.245 C  
ATOM     19  O3*   A A   1      -9.068  10.438  64.912  1.00  0.00    -0.179 OA 
ATOM     20  H3*   A A   1      -9.432  10.727  64.084  1.00  0.00     0.000 HD 
ATOM     21  O2*   A A   1     -10.428  13.337  65.255  1.00  0.00    -0.294 OA 
BRANCH  15  22
ATOM     22  C5*   A A   1      -6.763  11.627  67.304  1.00  0.00    -0.124 C  
ATOM     23  O5*   A A   1      -6.211  11.100  68.507  1.00  0.00    -0.043 OA 
ATOM     24  H5*   A A   1      -5.331  11.431  68.638  1.00  0.00     0.000 HD 
ENDBRANCH  15  22
ENDBRANCH  12  13
TORSDOF 2
ENDMDL
MODEL      210
REMARK 921   NORMALIZED FREE ENERGY PREDICTED BY IDOCK:   -2.32 KCAL/MOL
REMARK 922        TOTAL FREE ENERGY PREDICTED BY IDOCK:   -2.66 KCAL/MOL
REMARK 923 INTER-LIGAND FREE ENERGY PREDICTED BY IDOCK:   -2.56 KCAL/MOL
REMARK 924 INTRA-LIGAND FREE ENERGY PREDICTED BY IDOCK:   -0.09 KCAL/MOL
REMARK 927      BINDING AFFINITY PREDICTED BY RF-SCORE:    0.00 PKD
ROOT
ATOM      1  N6    A A   1      -6.298   8.936  65.737  1.00  0.00    -0.056 NA 
ATOM      2  C6    A A   1      -6.982   7.968  66.463  1.00  0.00    -0.071 A  
ATOM      3  H62   A A   1      -6.930   9.343  65.049  1.00  0.00     0.000 HD 
ATOM      4  H61   A A   1      -5.833   9.687  66.247  1.00  0.00     0.000 HD 
ATOM      5  N1    A A   1      -7.596   6.973  65.789  1.00  0.00    -0.090 NA 
ATOM      6  C2    A A   1      -8.260   6.034  66.497  1.00  0.00    -0.107 A  
ATOM      7  N3    A A   1      -8.393   5.929  67.841  1.00  0.00    -0.111 NA 
ATOM      8  C4    A A   1      -7.768   6.942  68.465  1.00  0.00    -0.113 A  
ATOM      9  C5    A A   1      -7.045   7.968  67.865  1.00  0.00    -0.086 A  
ATOM     10  N7    A A   1      -6.496   8.804  68.810  1.00  0.00    -0.052 NA 
ATOM     11  C8    A A   1      -6.890   8.309  69.960  1.00  0.00    -0.043 A  
ATOM     12  N9    A A   1      -7.679   7.189  69.808  1.00  0.00    -0.106 NA 
ENDROOT
BRANCH  12  13
ATOM     13  C1*   A A   1      -8.212   6.465  70.938  1.00  0.00    -0.125 C  
ATOM     14  O4*   A A   1      -9.652   6.476  70.793  1.00  0.00    -0.177 OA 
ATOM     15  C4*   A A   1     -10.179   7.532  71.638  1.00  0.00    -0.184 C  
ATOM     16  C3*   A A   1      -9.111   7.868  72.684  1.00  0.00    -0.197 C  
ATOM     17  H2*   A A   1      -6.539   7.613  73.634  1.00  0.00     0.000 HD 
ATOM     18  C2*   A A   1      -7.979   6.888  72.389  1.00  0.00    -0.096 C  
ATOM     19  O3*   A A   1      -9.621   7.686  74.010  1.00  0.00    -0.387 OA 
ATOM     20  H3*   A A   1      -8.959   7.894  74.658  1.00  0.00     0.000 HD 
ATOM     21  O2*   A A   1      -6.684   7.351  72.732  1.00  0.00    -0.062 OA 
BRANCH  15  22
ATOM     22  C5*   A A   1     -10.524   8.749  70.770  1.00  0.00    -0.219 C  
ATOM     23  O5*   A A   1      -9.658   9.838  71.080  1.00  0.00    -0.279 OA 
ATOM     24  H5*   A A   1      -9.871  10.591  70.542  1.00  0.00     0.000 HD 
ENDBRANCH  15  22
ENDBRANCH  12  13
TORSDOF 2
ENDMDL
MODEL      211
REMARK 921   NORMALIZED FREE ENERGY PREDICTED BY IDOCK:   -2.24 KCAL/MOL
REMARK 922        TOTAL FREE ENERGY PREDICTED BY IDOCK:   -2.57 KCAL/MOL
REMARK 923 INTER-LIGAND FREE ENERGY PREDICTED BY IDOCK:   -2.63 KCAL/MOL
REMARK 924 INTRA-LIGAND FREE ENERGY PREDICTED BY IDOCK:    0.06 KCAL/MOL
REMARK 927      BINDING AFFINITY PREDICTED BY RF-SCORE:    0.00 PKD
ROOT
ATOM      1  N6    A A   1      -7.440   8.052  73.511  1.00  0.00    -0.138 NA 
ATOM      2  C6    A A   1      -7.349   8.790  72.338  1.00  0.00     0.113 A  
ATOM      3  H62   A A   1      -7.292   8.672  74.306  1.00  0.00     0.000 HD 
ATOM      4  H61   A A   1      -8.282   7.499  73.673  1.00  0.00     0.000 HD 
ATOM      5  N1    A A   1      -6.234   9.521  72.123  1.00  0.00    -0.294 NA 
ATOM      6  C2    A A   1      -6.148  10.238  70.982  1.00  0.00     0.020 A  
ATOM      7  N3    A A   1      -7.045  10.324  69.970  1.00  0.00    -0.150 NA 
ATOM      8  C4    A A   1      -8.135   9.582  70.232  1.00  0.00    -0.181 A  
ATOM      9  C5    A A   1      -8.353   8.794  71.357  1.00  0.00    -0.168 A  
ATOM     10  N7    A A   1      -9.557   8.132  71.272  1.00  0.00    -0.156 NA 
ATOM     11  C8    A A   1     -10.068   8.521  70.127  1.00  0.00    -0.190 A  
ATOM     12  N9    A A   1      -9.255   9.415  69.465  1.00  0.00    -0.165 NA 
ENDROOT
BRANCH  12  13
ATOM     13  C1*   A A   1      -9.607   9.964  68.176  1.00  0.00    -0.139 C  
ATOM     14  O4*   A A   1      -9.451   8.894  67.214  1.00  0.00    -0.145 OA 
ATOM     15  C4*   A A   1      -8.162   9.060  66.566  1.00  0.00    -0.114 C  
ATOM     16  C3*   A A   1      -7.719  10.512  66.777  1.00  0.00    -0.118 C  
ATOM     17  H2*   A A   1      -8.058  12.955  67.999  1.00  0.00     0.000 HD 
ATOM     18  C2*   A A   1      -8.876  11.148  67.541  1.00  0.00    -0.139 C  
ATOM     19  O3*   A A   1      -7.507  11.167  65.520  1.00  0.00    -0.363 OA 
ATOM     20  H3*   A A   1      -7.232  12.066  65.651  1.00  0.00     0.000 HD 
ATOM     21  O2*   A A   1      -8.512  12.220  68.393  1.00  0.00    -0.170 OA 
BRANCH  15  22
ATOM     22  C5*   A A   1      -7.161   8.069  67.172  1.00  0.00    -0.082 C  
ATOM     23  O5*   A A   1      -5.925   8.722  67.449  1.00  0.00    -0.046 OA 
ATOM     24  H5*   A A   1      -5.305   8.109  67.824  1.00  0.00     0.000 HD 
ENDBRANCH  15  22
ENDBRANCH  12  13
TORSDOF 2
ENDMDL
MODEL      212
REMARK 921   NORMALIZED FREE ENERGY PREDICTED BY IDOCK:   -2.23 KCAL/MOL
REMARK 922        TOTAL FREE ENERGY PREDICTED BY IDOCK:   -2.55 KCAL/MOL
REMARK 923 INTER-LIGAND FREE ENERGY PREDICTED BY IDOCK:   -3.37 KCAL/MOL
REMARK 924 INTRA-LIGAND FREE ENERGY PREDICTED BY IDOCK:    0.82 KCAL/MOL
REMARK 927      BINDING AFFINITY PREDICTED BY RF-SCORE:    0.00 PKD
ROOT
ATOM      1  N6    A A   1     -10.231  10.557  62.459  1.00  0.00    -0.718 NA 
ATOM      2  C6    A A   1      -9.952  10.594  63.819  1.00  0.00    -0.317 A  
ATOM      3  H62   A A   1     -10.284  11.512  62.105  1.00  0.00     0.000 HD 
ATOM      4  H61   A A   1      -9.619  10.012  61.852  1.00  0.00     0.000 HD 
ATOM      5  N1    A A   1     -10.762  11.315  64.623  1.00  0.00    -0.321 NA 
ATOM      6  C2    A A   1     -10.488  11.348  65.945  1.00  0.00    -0.258 A  
ATOM      7  N3    A A   1      -9.489  10.727  66.615  1.00  0.00    -0.172 NA 
ATOM      8  C4    A A   1      -8.710  10.026  65.773  1.00  0.00    -0.145 A  
ATOM      9  C5    A A   1      -8.878   9.898  64.398  1.00  0.00    -0.217 A  
ATOM     10  N7    A A   1      -7.926   9.064  63.859  1.00  0.00    -0.138 NA 
ATOM     11  C8    A A   1      -7.184   8.704  64.880  1.00  0.00    -0.084 A  
ATOM     12  N9    A A   1      -7.606   9.273  66.062  1.00  0.00    -0.095 NA 
ENDROOT
BRANCH  12  13
ATOM     13  C1*   A A   1      -6.948   9.005  67.320  1.00  0.00    -0.078 C  
ATOM     14  O4*   A A   1      -6.598   7.601  67.312  1.00  0.00    -0.059 OA 
ATOM     15  C4*   A A   1      -7.611   6.882  68.063  1.00  0.00    -0.108 C  
ATOM     16  C3*   A A   1      -8.337   7.896  68.952  1.00  0.00    -0.127 C  
ATOM     17  H2*   A A   1      -8.837  10.504  69.680  1.00  0.00     0.000 HD 
ATOM     18  C2*   A A   1      -7.620   9.214  68.678  1.00  0.00    -0.084 C  
ATOM     19  O3*   A A   1      -8.234   7.529  70.333  1.00  0.00    -0.119 OA 
ATOM     20  H3*   A A   1      -8.684   8.157  70.884  1.00  0.00     0.000 HD 
ATOM     21  O2*   A A   1      -8.420  10.374  68.836  1.00  0.00    -0.126 OA 
BRANCH  15  22
ATOM     22  C5*   A A   1      -8.573   6.195  67.084  1.00  0.00    -0.103 C  
ATOM     23  O5*   A A   1      -8.373   4.785  67.104  1.00  0.00    -0.106 OA 
ATOM     24  H5*   A A   1      -8.969   4.359  66.499  1.00  0.00     0.000 HD 
ENDBRANCH  15  22
ENDBRANCH  12  13
TORSDOF 2
ENDMDL
MODEL      213
REMARK 921   NORMALIZED FREE ENERGY PREDICTED BY IDOCK:   -2.22 KCAL/MOL
REMARK 922        TOTAL FREE ENERGY PREDICTED BY IDOCK:   -2.54 KCAL/MOL
REMARK 923 INTER-LIGAND FREE ENERGY PREDICTED BY IDOCK:   -2.55 KCAL/MOL
REMARK 924 INTRA-LIGAND FREE ENERGY PREDICTED BY IDOCK:    0.01 KCAL/MOL
REMARK 927      BINDING AFFINITY PREDICTED BY RF-SCORE:    0.00 PKD
ROOT
ATOM      1  N6    A A   1     -12.140  13.494  69.474  1.00  0.00    -0.317 NA 
ATOM      2  C6    A A   1     -11.442  13.385  68.278  1.00  0.00    -0.315 A  
ATOM      3  H62   A A   1     -13.130  13.324  69.298  1.00  0.00     0.000 HD 
ATOM      4  H61   A A   1     -11.841  12.924  70.265  1.00  0.00     0.000 HD 
ATOM      5  N1    A A   1     -11.837  14.140  67.231  1.00  0.00    -0.401 NA 
ATOM      6  C2    A A   1     -11.156  14.031  66.070  1.00  0.00    -0.303 A  
ATOM      7  N3    A A   1     -10.080  13.257  65.793  1.00  0.00    -0.292 NA 
ATOM      8  C4    A A   1      -9.727  12.525  66.863  1.00  0.00    -0.232 A  
ATOM      9  C5    A A   1     -10.332  12.541  68.116  1.00  0.00    -0.232 A  
ATOM     10  N7    A A   1      -9.679  11.702  68.991  1.00  0.00    -0.002 NA 
ATOM     11  C8    A A   1      -8.709  11.173  68.282  1.00  0.00    -0.151 A  
ATOM     12  N9    A A   1      -8.704  11.625  66.980  1.00  0.00    -0.167 NA 
ENDROOT
BRANCH  12  13
ATOM     13  C1*   A A   1      -7.714  11.191  66.021  1.00  0.00    -0.001 C  
ATOM     14  O4*   A A   1      -8.413  10.388  65.041  1.00  0.00    -0.169 OA 
ATOM     15  C4*   A A   1      -8.216   8.991  65.384  1.00  0.00    -0.130 C  
ATOM     16  C3*   A A   1      -6.991   8.906  66.301  1.00  0.00    -0.079 C  
ATOM     17  H2*   A A   1      -5.072  10.144  67.839  1.00  0.00     0.000 HD 
ATOM     18  C2*   A A   1      -6.497  10.346  66.397  1.00  0.00    -0.097 C  
ATOM     19  O3*   A A   1      -5.990   8.052  65.735  1.00  0.00    -0.037 OA 
ATOM     20  H3*   A A   1      -5.231   8.000  66.304  1.00  0.00     0.000 HD 
ATOM     21  O2*   A A   1      -5.829  10.669  67.605  1.00  0.00    -0.044 OA 
BRANCH  15  22
ATOM     22  C5*   A A   1      -9.478   8.457  66.074  1.00  0.00    -0.154 C  
ATOM     23  O5*   A A   1      -9.998   7.341  65.357  1.00  0.00     0.567 OA 
ATOM     24  H5*   A A   1     -10.779   7.010  65.784  1.00  0.00     0.000 HD 
ENDBRANCH  15  22
ENDBRANCH  12  13
TORSDOF 2
ENDMDL
MODEL      214
REMARK 921   NORMALIZED FREE ENERGY PREDICTED BY IDOCK:   -2.19 KCAL/MOL
REMARK 922        TOTAL FREE ENERGY PREDICTED BY IDOCK:   -2.51 KCAL/MOL
REMARK 923 INTER-LIGAND FREE ENERGY PREDICTED BY IDOCK:   -2.54 KCAL/MOL
REMARK 924 INTRA-LIGAND FREE ENERGY PREDICTED BY IDOCK:    0.02 KCAL/MOL
REMARK 927      BINDING AFFINITY PREDICTED BY RF-SCORE:    0.00 PKD
ROOT
ATOM      1  N6    A A   1      -5.613  10.700  69.859  1.00  0.00    -0.046 NA 
ATOM      2  C6    A A   1      -6.034   9.387  70.031  1.00  0.00    -0.036 A  
ATOM      3  H62   A A   1      -4.603  10.709  69.720  1.00  0.00     0.000 HD 
ATOM      4  H61   A A   1      -6.054  11.260  69.130  1.00  0.00     0.000 HD 
ATOM      5  N1    A A   1      -5.452   8.646  70.996  1.00  0.00    -0.032 NA 
ATOM      6  C2    A A   1      -5.863   7.370  71.161  1.00  0.00    -0.035 A  
ATOM      7  N3    A A   1      -6.826   6.701  70.483  1.00  0.00    -0.060 NA 
ATOM      8  C4    A A   1      -7.373   7.479  69.533  1.00  0.00    -0.084 A  
ATOM      9  C5    A A   1      -7.052   8.805  69.259  1.00  0.00    -0.062 A  
ATOM     10  N7    A A   1      -7.846   9.308  68.254  1.00  0.00    -0.097 NA 
ATOM     11  C8    A A   1      -8.622   8.306  67.911  1.00  0.00    -0.132 A  
ATOM     12  N9    A A   1      -8.364   7.167  68.644  1.00  0.00    -0.125 NA 
ENDROOT
BRANCH  12  13
ATOM     13  C1*   A A   1      -9.108   5.945  68.450  1.00  0.00    -0.115 C  
ATOM     14  O4*   A A   1      -8.253   5.057  67.692  1.00  0.00    -0.105 OA 
ATOM     15  C4*   A A   1      -8.652   5.134  66.298  1.00  0.00    -0.114 C  
ATOM     16  C3*   A A   1     -10.073   5.704  66.251  1.00  0.00    -0.114 C  
ATOM     17  H2*   A A   1     -12.208   6.895  67.517  1.00  0.00     0.000 HD 
ATOM     18  C2*   A A   1     -10.450   5.887  67.718  1.00  0.00    -0.238 C  
ATOM     19  O3*   A A   1     -10.965   4.794  65.597  1.00  0.00    -0.734 OA 
ATOM     20  H3*   A A   1     -11.846   5.148  65.568  1.00  0.00     0.000 HD 
ATOM     21  O2*   A A   1     -11.374   6.931  67.971  1.00  0.00    -0.062 OA 
BRANCH  15  22
ATOM     22  C5*   A A   1      -7.659   6.023  65.538  1.00  0.00    -0.085 C  
ATOM     23  O5*   A A   1      -8.353   7.054  64.840  1.00  0.00    -0.264 OA 
ATOM     24  H5*   A A   1      -7.739   7.605  64.370  1.00  0.00     0.000 HD 
ENDBRANCH  15  22
ENDBRANCH  12  13
TORSDOF 2
ENDMDL
MODEL      215
REMARK 921   NORMALIZED FREE ENERGY PREDICTED BY IDOCK:   -2.16 KCAL/MOL
REMARK 922        TOTAL FREE ENERGY PREDICTED BY IDOCK:   -2.48 KCAL/MOL
REMARK 923 INTER-LIGAND FREE ENERGY PREDICTED BY IDOCK:   -3.11 KCAL/MOL
REMARK 924 INTRA-LIGAND FREE ENERGY PREDICTED BY IDOCK:    0.63 KCAL/MOL
REMARK 927      BINDING AFFINITY PREDICTED BY RF-SCORE:    0.00 PKD
ROOT
ATOM      1  N6    A A   1      -7.335  11.739  68.583  1.00  0.00    -0.110 NA 
ATOM      2  C6    A A   1      -7.143  10.638  69.407  1.00  0.00    -0.120 A  
ATOM      3  H62   A A   1      -6.427  12.097  68.289  1.00  0.00     0.000 HD 
ATOM      4  H61   A A   1      -7.931  11.633  67.761  1.00  0.00     0.000 HD 
ATOM      5  N1    A A   1      -6.355  10.778  70.494  1.00  0.00    -0.301 NA 
ATOM      6  C2    A A   1      -6.170   9.705  71.294  1.00  0.00    -0.009 A  
ATOM      7  N3    A A   1      -6.693   8.462  71.171  1.00  0.00    -0.047 NA 
ATOM      8  C4    A A   1      -7.466   8.373  70.076  1.00  0.00    -0.063 A  
ATOM      9  C5    A A   1      -7.748   9.393  69.172  1.00  0.00    -0.079 A  
ATOM     10  N7    A A   1      -8.616   8.962  68.196  1.00  0.00    -0.129 NA 
ATOM     11  C8    A A   1      -8.846   7.703  68.488  1.00  0.00    -0.130 A  
ATOM     12  N9    A A   1      -8.159   7.290  69.608  1.00  0.00    -0.127 NA 
ENDROOT
BRANCH  12  13
ATOM     13  C1*   A A   1      -8.272   5.946  70.127  1.00  0.00    -0.118 C  
ATOM     14  O4*   A A   1      -9.275   5.279  69.325  1.00  0.00    -0.108 OA 
ATOM     15  C4*   A A   1     -10.529   5.315  70.056  1.00  0.00    -0.281 C  
ATOM     16  C3*   A A   1     -10.202   5.581  71.529  1.00  0.00    -0.212 C  
ATOM     17  H2*   A A   1      -8.387   6.264  73.483  1.00  0.00     0.000 HD 
ATOM     18  C2*   A A   1      -8.677   5.636  71.568  1.00  0.00    -0.132 C  
ATOM     19  O3*   A A   1     -10.702   4.526  72.360  1.00  0.00    -0.173 OA 
ATOM     20  H3*   A A   1     -10.499   4.691  73.273  1.00  0.00     0.000 HD 
ATOM     21  O2*   A A   1      -8.135   6.457  72.588  1.00  0.00    -0.105 OA 
BRANCH  15  22
ATOM     22  C5*   A A   1     -11.424   6.414  69.468  1.00  0.00    -0.343 C  
ATOM     23  O5*   A A   1     -12.096   7.114  70.512  1.00  0.00    -0.526 OA 
ATOM     24  H5*   A A   1     -12.650   7.795  70.148  1.00  0.00     0.000 HD 
ENDBRANCH  15  22
ENDBRANCH  12  13
TORSDOF 2
ENDMDL
MODEL      216
REMARK 921   NORMALIZED FREE ENERGY PREDICTED BY IDOCK:   -2.08 KCAL/MOL
REMARK 922        TOTAL FREE ENERGY PREDICTED BY IDOCK:   -2.39 KCAL/MOL
REMARK 923 INTER-LIGAND FREE ENERGY PREDICTED BY IDOCK:   -2.96 KCAL/MOL
REMARK 924 INTRA-LIGAND FREE ENERGY PREDICTED BY IDOCK:    0.58 KCAL/MOL
REMARK 927      BINDING AFFINITY PREDICTED BY RF-SCORE:    0.00 PKD
ROOT
ATOM      1  N6    A A   1      -9.377   5.297  64.570  1.00  0.00    -0.344 NA 
ATOM      2  C6    A A   1      -9.650   5.793  65.839  1.00  0.00     0.008 A  
ATOM      3  H62   A A   1     -10.250   5.005  64.133  1.00  0.00     0.000 HD 
ATOM      4  H61   A A   1      -8.860   5.888  63.918  1.00  0.00     0.000 HD 
ATOM      5  N1    A A   1     -10.332   5.011  66.702  1.00  0.00    -0.267 NA 
ATOM      6  C2    A A   1     -10.596   5.495  67.935  1.00  0.00    -0.145 A  
ATOM      7  N3    A A   1     -10.249   6.694  68.462  1.00  0.00    -0.160 NA 
ATOM      8  C4    A A   1      -9.575   7.435  67.565  1.00  0.00    -0.140 A  
ATOM      9  C5    A A   1      -9.230   7.061  66.270  1.00  0.00    -0.126 A  
ATOM     10  N7    A A   1      -8.497   8.047  65.650  1.00  0.00    -0.144 NA 
ATOM     11  C8    A A   1      -8.412   9.007  66.541  1.00  0.00    -0.119 A  
ATOM     12  N9    A A   1      -9.064   8.694  67.714  1.00  0.00    -0.135 NA 
ENDROOT
BRANCH  12  13
ATOM     13  C1*   A A   1      -9.087   9.596  68.843  1.00  0.00    -0.144 C  
ATOM     14  O4*   A A   1      -7.707   9.868  69.182  1.00  0.00    -0.083 OA 
ATOM     15  C4*   A A   1      -7.342   9.009  70.295  1.00  0.00    -0.076 C  
ATOM     16  C3*   A A   1      -8.637   8.543  70.967  1.00  0.00    -0.158 C  
ATOM     17  H2*   A A   1     -11.383   8.340  70.972  1.00  0.00     0.000 HD 
ATOM     18  C2*   A A   1      -9.740   9.246  70.181  1.00  0.00    -0.218 C  
ATOM     19  O3*   A A   1      -8.661   8.926  72.347  1.00  0.00    -0.400 OA 
ATOM     20  H3*   A A   1      -9.464   8.637  72.764  1.00  0.00     0.000 HD 
ATOM     21  O2*   A A   1     -10.978   8.557  70.141  1.00  0.00    -0.241 OA 
BRANCH  15  22
ATOM     22  C5*   A A   1      -6.519   7.826  69.769  1.00  0.00    -0.034 C  
ATOM     23  O5*   A A   1      -6.193   6.939  70.836  1.00  0.00    -0.035 OA 
ATOM     24  H5*   A A   1      -5.684   6.206  70.511  1.00  0.00     0.000 HD 
ENDBRANCH  15  22
ENDBRANCH  12  13
TORSDOF 2
ENDMDL
MODEL      217
REMARK 921   NORMALIZED FREE ENERGY PREDICTED BY IDOCK:   -1.98 KCAL/MOL
REMARK 922        TOTAL FREE ENERGY PREDICTED BY IDOCK:   -2.28 KCAL/MOL
REMARK 923 INTER-LIGAND FREE ENERGY PREDICTED BY IDOCK:   -2.76 KCAL/MOL
REMARK 924 INTRA-LIGAND FREE ENERGY PREDICTED BY IDOCK:    0.48 KCAL/MOL
REMARK 927      BINDING AFFINITY PREDICTED BY RF-SCORE:    0.00 PKD
ROOT
ATOM      1  N6    A A   1      -8.827   6.043  64.892  1.00  0.00    -0.367 NA 
ATOM      2  C6    A A   1      -9.203   5.834  66.214  1.00  0.00    -0.158 A  
ATOM      3  H62   A A   1      -9.642   5.918  64.292  1.00  0.00     0.000 HD 
ATOM      4  H61   A A   1      -8.369   6.922  64.651  1.00  0.00     0.000 HD 
ATOM      5  N1    A A   1      -9.809   4.672  66.534  1.00  0.00    -0.202 NA 
ATOM      6  C2    A A   1     -10.173   4.471  67.819  1.00  0.00     0.088 A  
ATOM      7  N3    A A   1      -9.998   5.291  68.882  1.00  0.00    -0.168 NA 
ATOM      8  C4    A A   1      -9.394   6.434  68.512  1.00  0.00    -0.122 A  
ATOM      9  C5    A A   1      -8.961   6.768  67.233  1.00  0.00    -0.117 A  
ATOM     10  N7    A A   1      -8.339   7.995  67.227  1.00  0.00    -0.121 NA 
ATOM     11  C8    A A   1      -8.405   8.407  68.472  1.00  0.00    -0.131 A  
ATOM     12  N9    A A   1      -9.051   7.506  69.289  1.00  0.00    -0.139 NA 
ENDROOT
BRANCH  12  13
ATOM     13  C1*   A A   1      -9.226   7.741  70.704  1.00  0.00    -0.161 C  
ATOM     14  O4*   A A   1      -8.002   7.314  71.348  1.00  0.00    -0.096 OA 
ATOM     15  C4*   A A   1      -8.217   5.979  71.877  1.00  0.00    -0.115 C  
ATOM     16  C3*   A A   1      -9.729   5.761  71.988  1.00  0.00    -0.154 C  
ATOM     17  H2*   A A   1     -12.303   6.579  71.454  1.00  0.00     0.000 HD 
ATOM     18  C2*   A A   1     -10.332   7.086  71.532  1.00  0.00    -0.203 C  
ATOM     19  O3*   A A   1     -10.103   5.459  73.338  1.00  0.00    -0.167 OA 
ATOM     20  H3*   A A   1     -11.040   5.324  73.406  1.00  0.00     0.000 HD 
ATOM     21  O2*   A A   1     -11.616   6.986  70.940  1.00  0.00    -0.294 OA 
BRANCH  15  22
ATOM     22  C5*   A A   1      -7.563   4.954  70.941  1.00  0.00    -0.073 C  
ATOM     23  O5*   A A   1      -7.872   3.630  71.368  1.00  0.00    -0.058 OA 
ATOM     24  H5*   A A   1      -7.467   2.995  70.788  1.00  0.00     0.000 HD 
ENDBRANCH  15  22
ENDBRANCH  12  13
TORSDOF 2
ENDMDL
MODEL      218
REMARK 921   NORMALIZED FREE ENERGY PREDICTED BY IDOCK:   -1.84 KCAL/MOL
REMARK 922        TOTAL FREE ENERGY PREDICTED BY IDOCK:   -2.13 KCAL/MOL
REMARK 923 INTER-LIGAND FREE ENERGY PREDICTED BY IDOCK:   -2.20 KCAL/MOL
REMARK 924 INTRA-LIGAND FREE ENERGY PREDICTED BY IDOCK:    0.08 KCAL/MOL
REMARK 927      BINDING AFFINITY PREDICTED BY RF-SCORE:    0.00 PKD
ROOT
ATOM      1  N6    A A   1      -7.431  11.050  68.830  1.00  0.00    -0.114 NA 
ATOM      2  C6    A A   1      -7.392   9.697  68.518  1.00  0.00    -0.078 A  
ATOM      3  H62   A A   1      -6.548  11.480  68.556  1.00  0.00     0.000 HD 
ATOM      4  H61   A A   1      -8.201  11.611  68.463  1.00  0.00     0.000 HD 
ATOM      5  N1    A A   1      -6.374   8.955  69.004  1.00  0.00    -0.043 NA 
ATOM      6  C2    A A   1      -6.338   7.640  68.700  1.00  0.00    -0.036 A  
ATOM      7  N3    A A   1      -7.218   6.920  67.962  1.00  0.00    -0.089 NA 
ATOM      8  C4    A A   1      -8.209   7.702  67.501  1.00  0.00    -0.121 A  
ATOM      9  C5    A A   1      -8.373   9.063  67.740  1.00  0.00    -0.117 A  
ATOM     10  N7    A A   1      -9.527   9.532  67.154  1.00  0.00    -0.145 NA 
ATOM     11  C8    A A   1     -10.045   8.484  66.557  1.00  0.00    -0.258 A  
ATOM     12  N9    A A   1      -9.276   7.352  66.721  1.00  0.00    -0.149 NA 
ENDROOT
BRANCH  12  13
ATOM     13  C1*   A A   1      -9.661   6.076  66.165  1.00  0.00    -0.055 C  
ATOM     14  O4*   A A   1     -10.710   5.555  67.014  1.00  0.00    -0.267 OA 
ATOM     15  C4*   A A   1     -10.111   4.604  67.933  1.00  0.00    -0.021 C  
ATOM     16  C3*   A A   1      -8.767   4.168  67.340  1.00  0.00    -0.107 C  
ATOM     17  H2*   A A   1      -6.777   4.473  65.463  1.00  0.00     0.000 HD 
ATOM     18  C2*   A A   1      -8.691   4.904  66.006  1.00  0.00    -0.124 C  
ATOM     19  O3*   A A   1      -8.732   2.748  67.150  1.00  0.00    -0.103 OA 
ATOM     20  H3*   A A   1      -7.899   2.478  66.783  1.00  0.00     0.000 HD 
ATOM     21  O2*   A A   1      -7.379   5.201  65.562  1.00  0.00    -0.070 OA 
BRANCH  15  22
ATOM     22  C5*   A A   1      -9.936   5.269  69.305  1.00  0.00    -0.215 C  
ATOM     23  O5*   A A   1      -8.693   4.883  69.885  1.00  0.00    -0.091 OA 
ATOM     24  H5*   A A   1      -8.584   5.295  70.734  1.00  0.00     0.000 HD 
ENDBRANCH  15  22
ENDBRANCH  12  13
TORSDOF 2
ENDMDL
MODEL      219
REMARK 921   NORMALIZED FREE ENERGY PREDICTED BY IDOCK:   -1.73 KCAL/MOL
REMARK 922        TOTAL FREE ENERGY PREDICTED BY IDOCK:   -2.00 KCAL/MOL
REMARK 923 INTER-LIGAND FREE ENERGY PREDICTED BY IDOCK:   -2.25 KCAL/MOL
REMARK 924 INTRA-LIGAND FREE ENERGY PREDICTED BY IDOCK:    0.24 KCAL/MOL
REMARK 927      BINDING AFFINITY PREDICTED BY RF-SCORE:    0.00 PKD
ROOT
ATOM      1  N6    A A   1      -9.770   1.744  71.929  1.00  0.00    -0.117 NA 
ATOM      2  C6    A A   1      -9.288   3.011  72.235  1.00  0.00    -0.107 A  
ATOM      3  H62   A A   1     -10.525   1.512  72.574  1.00  0.00     0.000 HD 
ATOM      4  H61   A A   1     -10.080   1.560  70.975  1.00  0.00     0.000 HD 
ATOM      5  N1    A A   1      -8.878   3.255  73.498  1.00  0.00    -0.080 NA 
ATOM      6  C2    A A   1      -8.410   4.487  73.792  1.00  0.00    -0.104 A  
ATOM      7  N3    A A   1      -8.270   5.555  72.970  1.00  0.00    -0.118 NA 
ATOM      8  C4    A A   1      -8.693   5.263  71.729  1.00  0.00    -0.134 A  
ATOM      9  C5    A A   1      -9.189   4.041  71.286  1.00  0.00    -0.131 A  
ATOM     10  N7    A A   1      -9.480   4.083  69.942  1.00  0.00    -0.179 NA 
ATOM     11  C8    A A   1      -9.183   5.308  69.576  1.00  0.00    -0.118 A  
ATOM     12  N9    A A   1      -8.718   6.071  70.626  1.00  0.00    -0.137 NA 
ENDROOT
BRANCH  12  13
ATOM     13  C1*   A A   1      -8.314   7.447  70.454  1.00  0.00    -0.129 C  
ATOM     14  O4*   A A   1      -6.987   7.418  69.877  1.00  0.00    -0.057 OA 
ATOM     15  C4*   A A   1      -6.028   7.613  70.949  1.00  0.00    -0.034 C  
ATOM     16  C3*   A A   1      -6.771   8.247  72.128  1.00  0.00    -0.081 C  
ATOM     17  H2*   A A   1      -9.128   9.009  73.331  1.00  0.00     0.000 HD 
ATOM     18  C2*   A A   1      -8.195   8.437  71.614  1.00  0.00    -0.152 C  
ATOM     19  O3*   A A   1      -6.180   9.502  72.488  1.00  0.00    -0.294 OA 
ATOM     20  H3*   A A   1      -6.641   9.895  73.219  1.00  0.00     0.000 HD 
ATOM     21  O2*   A A   1      -9.201   8.394  72.611  1.00  0.00    -0.249 OA 
BRANCH  15  22
ATOM     22  C5*   A A   1      -5.413   6.260  71.328  1.00  0.00    -0.022 C  
ATOM     23  O5*   A A   1      -5.388   5.394  70.197  1.00  0.00    -0.004 OA 
ATOM     24  H5*   A A   1      -5.008   4.556  70.432  1.00  0.00     0.000 HD 
ENDBRANCH  15  22
ENDBRANCH  12  13
TORSDOF 2
ENDMDL
MODEL      220
REMARK 921   NORMALIZED FREE ENERGY PREDICTED BY IDOCK:   -1.72 KCAL/MOL
REMARK 922        TOTAL FREE ENERGY PREDICTED BY IDOCK:   -1.99 KCAL/MOL
REMARK 923 INTER-LIGAND FREE ENERGY PREDICTED BY IDOCK:   -2.42 KCAL/MOL
REMARK 924 INTRA-LIGAND FREE ENERGY PREDICTED BY IDOCK:    0.43 KCAL/MOL
REMARK 927      BINDING AFFINITY PREDICTED BY RF-SCORE:    0.00 PKD
ROOT
ATOM      1  N6    A A   1      -5.829   8.825  73.262  1.00  0.00    -0.105 NA 
ATOM      2  C6    A A   1      -6.739   8.790  72.211  1.00  0.00    -0.003 A  
ATOM      3  H62   A A   1      -5.491   9.779  73.377  1.00  0.00     0.000 HD 
ATOM      4  H61   A A   1      -6.122   8.464  74.170  1.00  0.00     0.000 HD 
ATOM      5  N1    A A   1      -6.351   9.266  71.009  1.00  0.00    -0.070 NA 
ATOM      6  C2    A A   1      -7.237   9.232  69.991  1.00  0.00    -0.078 A  
ATOM      7  N3    A A   1      -8.505   8.755  69.991  1.00  0.00    -0.126 NA 
ATOM      8  C4    A A   1      -8.843   8.296  71.208  1.00  0.00    -0.156 A  
ATOM      9  C5    A A   1      -8.034   8.264  72.339  1.00  0.00    -0.140 A  
ATOM     10  N7    A A   1      -8.688   7.681  73.400  1.00  0.00    -0.178 NA 
ATOM     11  C8    A A   1      -9.876   7.379  72.930  1.00  0.00    -0.204 A  
ATOM     12  N9    A A   1     -10.029   7.747  71.611  1.00  0.00    -0.172 NA 
ENDROOT
BRANCH  12  13
ATOM     13  C1*   A A   1     -11.250   7.497  70.881  1.00  0.00    -0.269 C  
ATOM     14  O4*   A A   1     -11.265   8.425  69.771  1.00  0.00    -0.128 OA 
ATOM     15  C4*   A A   1     -12.103   9.551  70.140  1.00  0.00     0.174 C  
ATOM     16  C3*   A A   1     -13.004   9.101  71.295  1.00  0.00    -0.251 C  
ATOM     17  H2*   A A   1     -13.677   7.242  73.210  1.00  0.00     0.000 HD 
ATOM     18  C2*   A A   1     -12.641   7.634  71.501  1.00  0.00    -0.343 C  
ATOM     19  O3*   A A   1     -14.387   9.249  70.949  1.00  0.00    -0.385 OA 
ATOM     20  H3*   A A   1     -14.945   8.970  71.665  1.00  0.00     0.000 HD 
ATOM     21  O2*   A A   1     -12.813   7.157  72.825  1.00  0.00     0.478 OA 
BRANCH  15  22
ATOM     22  C5*   A A   1     -11.212  10.733  70.545  1.00  0.00    -0.101 C  
ATOM     23  O5*   A A   1     -10.756  11.426  69.387  1.00  0.00    -0.363 OA 
ATOM     24  H5*   A A   1     -10.204  12.158  69.637  1.00  0.00     0.000 HD 
ENDBRANCH  15  22
ENDBRANCH  12  13
TORSDOF 2
ENDMDL
MODEL      221
REMARK 921   NORMALIZED FREE ENERGY PREDICTED BY IDOCK:   -1.68 KCAL/MOL
REMARK 922        TOTAL FREE ENERGY PREDICTED BY IDOCK:   -1.95 KCAL/MOL
REMARK 923 INTER-LIGAND FREE ENERGY PREDICTED BY IDOCK:   -2.04 KCAL/MOL
REMARK 924 INTRA-LIGAND FREE ENERGY PREDICTED BY IDOCK:    0.09 KCAL/MOL
REMARK 927      BINDING AFFINITY PREDICTED BY RF-SCORE:    0.00 PKD
ROOT
ATOM      1  N6    A A   1      -8.860   4.548  72.166  1.00  0.00    -0.120 NA 
ATOM      2  C6    A A   1      -8.231   5.091  71.052  1.00  0.00    -0.109 A  
ATOM      3  H62   A A   1      -9.469   5.253  72.580  1.00  0.00     0.000 HD 
ATOM      4  H61   A A   1      -9.385   3.681  72.053  1.00  0.00     0.000 HD 
ATOM      5  N1    A A   1      -7.536   6.238  71.201  1.00  0.00    -0.084 NA 
ATOM      6  C2    A A   1      -6.926   6.763  70.117  1.00  0.00    -0.066 A  
ATOM      7  N3    A A   1      -6.894   6.281  68.851  1.00  0.00    -0.064 NA 
ATOM      8  C4    A A   1      -7.601   5.142  68.754  1.00  0.00    -0.078 A  
ATOM      9  C5    A A   1      -8.270   4.489  69.784  1.00  0.00    -0.063 A  
ATOM     10  N7    A A   1      -8.847   3.322  69.338  1.00  0.00    -0.084 NA 
ATOM     11  C8    A A   1      -8.550   3.274  68.060  1.00  0.00    -0.096 A  
ATOM     12  N9    A A   1      -7.811   4.362  67.650  1.00  0.00    -0.084 NA 
ENDROOT
BRANCH  12  13
ATOM     13  C1*   A A   1      -7.356   4.512  66.288  1.00  0.00    -0.081 C  
ATOM     14  O4*   A A   1      -8.262   5.443  65.650  1.00  0.00    -0.114 OA 
ATOM     15  C4*   A A   1      -9.234   4.673  64.894  1.00  0.00    -0.143 C  
ATOM     16  C3*   A A   1      -8.646   3.277  64.665  1.00  0.00    -0.098 C  
ATOM     17  H2*   A A   1      -6.710   1.390  65.186  1.00  0.00     0.000 HD 
ATOM     18  C2*   A A   1      -7.261   3.347  65.302  1.00  0.00    -0.067 C  
ATOM     19  O3*   A A   1      -8.557   2.985  63.265  1.00  0.00    -0.085 OA 
ATOM     20  H3*   A A   1      -8.192   2.120  63.124  1.00  0.00     0.000 HD 
ATOM     21  O2*   A A   1      -6.769   2.114  65.798  1.00  0.00    -0.033 OA 
BRANCH  15  22
ATOM     22  C5*   A A   1     -10.551   4.611  65.679  1.00  0.00    -0.203 C  
ATOM     23  O5*   A A   1     -11.469   3.733  65.035  1.00  0.00    -0.364 OA 
ATOM     24  H5*   A A   1     -12.284   3.694  65.522  1.00  0.00     0.000 HD 
ENDBRANCH  15  22
ENDBRANCH  12  13
TORSDOF 2
ENDMDL
MODEL      222
REMARK 921   NORMALIZED FREE ENERGY PREDICTED BY IDOCK:   -1.60 KCAL/MOL
REMARK 922        TOTAL FREE ENERGY PREDICTED BY IDOCK:   -1.85 KCAL/MOL
REMARK 923 INTER-LIGAND FREE ENERGY PREDICTED BY IDOCK:   -2.88 KCAL/MOL
REMARK 924 INTRA-LIGAND FREE ENERGY PREDICTED BY IDOCK:    1.02 KCAL/MOL
REMARK 927      BINDING AFFINITY PREDICTED BY RF-SCORE:    0.00 PKD
ROOT
ATOM      1  N6    A A   1      -7.209   3.893  65.023  1.00  0.00    -0.066 NA 
ATOM      2  C6    A A   1      -8.346   4.523  65.515  1.00  0.00    -0.116 A  
ATOM      3  H62   A A   1      -7.295   3.797  64.012  1.00  0.00     0.000 HD 
ATOM      4  H61   A A   1      -6.298   4.296  65.242  1.00  0.00     0.000 HD 
ATOM      5  N1    A A   1      -9.552   3.990  65.226  1.00  0.00    -0.173 NA 
ATOM      6  C2    A A   1     -10.655   4.604  65.706  1.00  0.00    -0.223 A  
ATOM      7  N3    A A   1     -10.734   5.712  66.480  1.00  0.00    -0.275 NA 
ATOM      8  C4    A A   1      -9.510   6.205  66.738  1.00  0.00    -0.146 A  
ATOM      9  C5    A A   1      -8.295   5.675  66.316  1.00  0.00    -0.114 A  
ATOM     10  N7    A A   1      -7.239   6.408  66.806  1.00  0.00    -0.076 NA 
ATOM     11  C8    A A   1      -7.798   7.374  67.497  1.00  0.00    -0.112 A  
ATOM     12  N9    A A   1      -9.174   7.308  67.473  1.00  0.00    -0.129 NA 
ENDROOT
BRANCH  12  13
ATOM     13  C1*   A A   1     -10.000   8.259  68.180  1.00  0.00    -0.191 C  
ATOM     14  O4*   A A   1      -9.338   9.542  68.072  1.00  0.00    -0.133 OA 
ATOM     15  C4*   A A   1      -8.598   9.768  69.300  1.00  0.00    -0.158 C  
ATOM     16  C3*   A A   1      -9.187   8.848  70.374  1.00  0.00    -0.194 C  
ATOM     17  H2*   A A   1     -10.841   6.765  71.085  1.00  0.00     0.000 HD 
ATOM     18  C2*   A A   1     -10.336   8.136  69.667  1.00  0.00    -0.221 C  
ATOM     19  O3*   A A   1      -9.659   9.608  71.493  1.00  0.00    -0.239 OA 
ATOM     20  H3*   A A   1     -10.024   9.037  72.159  1.00  0.00     0.000 HD 
ATOM     21  O2*   A A   1     -10.632   6.842  70.162  1.00  0.00    -0.202 OA 
BRANCH  15  22
ATOM     22  C5*   A A   1      -7.112   9.475  69.056  1.00  0.00    -0.066 C  
ATOM     23  O5*   A A   1      -6.386  10.693  68.914  1.00  0.00    -0.043 OA 
ATOM     24  H5*   A A   1      -5.466  10.512  68.763  1.00  0.00     0.000 HD 
ENDBRANCH  15  22
ENDBRANCH  12  13
TORSDOF 2
ENDMDL
MODEL      223
REMARK 921   NORMALIZED FREE ENERGY PREDICTED BY IDOCK:   -1.48 KCAL/MOL
REMARK 922        TOTAL FREE ENERGY PREDICTED BY IDOCK:   -1.72 KCAL/MOL
REMARK 923 INTER-LIGAND FREE ENERGY PREDICTED BY IDOCK:   -3.25 KCAL/MOL
REMARK 924 INTRA-LIGAND FREE ENERGY PREDICTED BY IDOCK:    1.52 KCAL/MOL
REMARK 927      BINDING AFFINITY PREDICTED BY RF-SCORE:    0.00 PKD
ROOT
ATOM      1  N6    A A   1      -6.259  20.461  71.927  1.00  0.00    -0.711 NA 
ATOM      2  C6    A A   1      -6.028  19.176  71.451  1.00  0.00     0.215 A  
ATOM      3  H62   A A   1      -5.369  20.879  72.197  1.00  0.00     0.000 HD 
ATOM      4  H61   A A   1      -6.767  21.115  71.333  1.00  0.00     0.000 HD 
ATOM      5  N1    A A   1      -5.356  18.309  72.237  1.00  0.00    -0.265 NA 
ATOM      6  C2    A A   1      -5.133  17.062  71.771  1.00  0.00     0.428 A  
ATOM      7  N3    A A   1      -5.514  16.522  70.589  1.00  0.00    -0.155 NA 
ATOM      8  C4    A A   1      -6.177  17.423  69.843  1.00  0.00    -0.122 A  
ATOM      9  C5    A A   1      -6.481  18.733  70.198  1.00  0.00     0.119 A  
ATOM     10  N7    A A   1      -7.213  19.355  69.213  1.00  0.00    -0.335 NA 
ATOM     11  C8    A A   1      -7.338  18.450  68.271  1.00  0.00    -0.273 A  
ATOM     12  N9    A A   1      -6.713  17.265  68.594  1.00  0.00    -0.182 NA 
ENDROOT
BRANCH  12  13
ATOM     13  C1*   A A   1      -6.734  16.120  67.714  1.00  0.00    -0.148 C  
ATOM     14  O4*   A A   1      -7.352  16.559  66.481  1.00  0.00    -0.240 OA 
ATOM     15  C4*   A A   1      -8.745  16.151  66.509  1.00  0.00    -0.302 C  
ATOM     16  C3*   A A   1      -8.882  15.033  67.547  1.00  0.00    -0.185 C  
ATOM     17  H2*   A A   1      -7.812  13.536  69.595  1.00  0.00     0.000 HD 
ATOM     18  C2*   A A   1      -7.458  14.817  68.052  1.00  0.00    -0.129 C  
ATOM     19  O3*   A A   1      -9.404  13.842  66.946  1.00  0.00    -0.243 OA 
ATOM     20  H3*   A A   1      -9.489  13.149  67.590  1.00  0.00     0.000 HD 
ATOM     21  O2*   A A   1      -7.363  14.346  69.385  1.00  0.00    -0.129 OA 
BRANCH  15  22
ATOM     22  C5*   A A   1      -9.618  17.362  66.862  1.00  0.00    -0.277 C  
ATOM     23  O5*   A A   1      -9.001  18.565  66.412  1.00  0.00    -0.308 OA 
ATOM     24  H5*   A A   1      -9.541  19.315  66.631  1.00  0.00     0.000 HD 
ENDBRANCH  15  22
ENDBRANCH  12  13
TORSDOF 2
ENDMDL
MODEL      224
REMARK 921   NORMALIZED FREE ENERGY PREDICTED BY IDOCK:   -1.36 KCAL/MOL
REMARK 922        TOTAL FREE ENERGY PREDICTED BY IDOCK:   -1.59 KCAL/MOL
REMARK 923 INTER-LIGAND FREE ENERGY PREDICTED BY IDOCK:   -2.29 KCAL/MOL
REMARK 924 INTRA-LIGAND FREE ENERGY PREDICTED BY IDOCK:    0.70 KCAL/MOL
REMARK 927      BINDING AFFINITY PREDICTED BY RF-SCORE:    0.00 PKD
ROOT
ATOM      1  N6    A A   1      -7.491  10.908  69.122  1.00  0.00    -0.124 NA 
ATOM      2  C6    A A   1      -7.410   9.605  69.599  1.00  0.00    -0.093 A  
ATOM      3  H62   A A   1      -6.740  11.459  69.535  1.00  0.00     0.000 HD 
ATOM      4  H61   A A   1      -7.497  11.056  68.113  1.00  0.00     0.000 HD 
ATOM      5  N1    A A   1      -7.404   9.408  70.934  1.00  0.00    -0.250 NA 
ATOM      6  C2    A A   1      -7.325   8.141  71.394  1.00  0.00    -0.076 A  
ATOM      7  N3    A A   1      -7.266   6.988  70.686  1.00  0.00    -0.067 NA 
ATOM      8  C4    A A   1      -7.273   7.237  69.365  1.00  0.00    -0.084 A  
ATOM      9  C5    A A   1      -7.356   8.484  68.755  1.00  0.00    -0.090 A  
ATOM     10  N7    A A   1      -7.389   8.363  67.384  1.00  0.00    -0.088 NA 
ATOM     11  C8    A A   1      -7.310   7.072  67.163  1.00  0.00    -0.090 A  
ATOM     12  N9    A A   1      -7.220   6.344  68.330  1.00  0.00    -0.083 NA 
ENDROOT
BRANCH  12  13
ATOM     13  C1*   A A   1      -7.140   4.902  68.331  1.00  0.00    -0.061 C  
ATOM     14  O4*   A A   1      -7.022   4.494  66.948  1.00  0.00    -0.060 OA 
ATOM     15  C4*   A A   1      -8.339   4.094  66.485  1.00  0.00    -0.104 C  
ATOM     16  C3*   A A   1      -9.194   3.791  67.719  1.00  0.00    -0.173 C  
ATOM     17  H2*   A A   1      -9.547   3.851  70.449  1.00  0.00     0.000 HD 
ATOM     18  C2*   A A   1      -8.242   4.002  68.893  1.00  0.00    -0.073 C  
ATOM     19  O3*   A A   1      -9.681   2.445  67.684  1.00  0.00    -0.388 OA 
ATOM     20  H3*   A A   1     -10.211   2.257  68.449  1.00  0.00     0.000 HD 
ATOM     21  O2*   A A   1      -8.863   4.410  70.100  1.00  0.00    -0.075 OA 
BRANCH  15  22
ATOM     22  C5*   A A   1      -8.942   5.225  65.641  1.00  0.00    -0.158 C  
ATOM     23  O5*   A A   1      -8.667   5.010  64.259  1.00  0.00    -0.149 OA 
ATOM     24  H5*   A A   1      -9.041   5.710  63.737  1.00  0.00     0.000 HD 
ENDBRANCH  15  22
ENDBRANCH  12  13
TORSDOF 2
ENDMDL
MODEL      225
REMARK 921   NORMALIZED FREE ENERGY PREDICTED BY IDOCK:   -1.11 KCAL/MOL
REMARK 922        TOTAL FREE ENERGY PREDICTED BY IDOCK:   -1.31 KCAL/MOL
REMARK 923 INTER-LIGAND FREE ENERGY PREDICTED BY IDOCK:   -1.26 KCAL/MOL
REMARK 924 INTRA-LIGAND FREE ENERGY PREDICTED BY IDOCK:   -0.05 KCAL/MOL
REMARK 927      BINDING AFFINITY PREDICTED BY RF-SCORE:    0.00 PKD
ROOT
ATOM      1  N6    A A   1      -8.670   5.095  72.106  1.00  0.00    -0.129 NA 
ATOM      2  C6    A A   1      -7.620   5.407  71.251  1.00  0.00    -0.101 A  
ATOM      3  H62   A A   1      -9.099   5.960  72.435  1.00  0.00     0.000 HD 
ATOM      4  H61   A A   1      -9.402   4.470  71.768  1.00  0.00     0.000 HD 
ATOM      5  N1    A A   1      -6.651   6.234  71.699  1.00  0.00    -0.053 NA 
ATOM      6  C2    A A   1      -5.632   6.535  70.866  1.00  0.00    -0.023 A  
ATOM      7  N3    A A   1      -5.419   6.100  69.601  1.00  0.00    -0.012 NA 
ATOM      8  C4    A A   1      -6.409   5.283  69.202  1.00  0.00    -0.034 A  
ATOM      9  C5    A A   1      -7.510   4.885  69.953  1.00  0.00    -0.056 A  
ATOM     10  N7    A A   1      -8.297   4.004  69.247  1.00  0.00    -0.064 NA 
ATOM     11  C8    A A   1      -7.699   3.881  68.085  1.00  0.00    -0.066 A  
ATOM     12  N9    A A   1      -6.558   4.650  67.999  1.00  0.00    -0.045 NA 
ENDROOT
BRANCH  12  13
ATOM     13  C1*   A A   1      -5.727   4.660  66.818  1.00  0.00    -0.018 C  
ATOM     14  O4*   A A   1      -5.588   6.046  66.422  1.00  0.00    -0.012 OA 
ATOM     15  C4*   A A   1      -6.539   6.304  65.356  1.00  0.00    -0.043 C  
ATOM     16  C3*   A A   1      -6.938   4.954  64.751  1.00  0.00    -0.050 C  
ATOM     17  H2*   A A   1      -6.916   2.202  64.837  1.00  0.00     0.000 HD 
ATOM     18  C2*   A A   1      -6.101   3.938  65.523  1.00  0.00    -0.024 C  
ATOM     19  O3*   A A   1      -6.636   4.915  63.351  1.00  0.00    -0.026 OA 
ATOM     20  H3*   A A   1      -6.884   4.078  62.976  1.00  0.00     0.000 HD 
ATOM     21  O2*   A A   1      -6.684   2.651  65.641  1.00  0.00    -0.037 OA 
BRANCH  15  22
ATOM     22  C5*   A A   1      -7.752   7.048  65.930  1.00  0.00    -0.101 C  
ATOM     23  O5*   A A   1      -8.957   6.529  65.374  1.00  0.00    -0.360 OA 
ATOM     24  H5*   A A   1      -9.709   6.990  65.729  1.00  0.00     0.000 HD 
ENDBRANCH  15  22
ENDBRANCH  12  13
TORSDOF 2
ENDMDL
MODEL      226
REMARK 921   NORMALIZED FREE ENERGY PREDICTED BY IDOCK:   -1.11 KCAL/MOL
REMARK 922        TOTAL FREE ENERGY PREDICTED BY IDOCK:   -1.31 KCAL/MOL
REMARK 923 INTER-LIGAND FREE ENERGY PREDICTED BY IDOCK:   -2.40 KCAL/MOL
REMARK 924 INTRA-LIGAND FREE ENERGY PREDICTED BY IDOCK:    1.09 KCAL/MOL
REMARK 927      BINDING AFFINITY PREDICTED BY RF-SCORE:    0.00 PKD
ROOT
ATOM      1  N6    A A   1     -12.940  12.494  63.514  1.00  0.00    -0.680 NA 
ATOM      2  C6    A A   1     -12.309  13.190  64.538  1.00  0.00    -0.385 A  
ATOM      3  H62   A A   1     -12.439  12.661  62.642  1.00  0.00     0.000 HD 
ATOM      4  H61   A A   1     -13.084  11.490  63.627  1.00  0.00     0.000 HD 
ATOM      5  N1    A A   1     -12.118  14.518  64.390  1.00  0.00    -0.486 NA 
ATOM      6  C2    A A   1     -11.505  15.192  65.387  1.00  0.00    -0.239 A  
ATOM      7  N3    A A   1     -11.049  14.717  66.570  1.00  0.00    -0.330 NA 
ATOM      8  C4    A A   1     -11.260  13.393  66.668  1.00  0.00    -0.309 A  
ATOM      9  C5    A A   1     -11.882  12.579  65.727  1.00  0.00    -0.437 A  
ATOM     10  N7    A A   1     -11.973  11.282  66.179  1.00  0.00     0.259 NA 
ATOM     11  C8    A A   1     -11.405  11.302  67.362  1.00  0.00    -0.276 A  
ATOM     12  N9    A A   1     -10.939  12.554  67.700  1.00  0.00    -0.233 NA 
ENDROOT
BRANCH  12  13
ATOM     13  C1*   A A   1     -10.293  12.817  68.965  1.00  0.00     0.069 C  
ATOM     14  O4*   A A   1     -11.318  13.319  69.855  1.00  0.00    -0.145 OA 
ATOM     15  C4*   A A   1     -11.221  14.768  69.878  1.00  0.00    -0.257 C  
ATOM     16  C3*   A A   1      -9.824  15.148  69.377  1.00  0.00    -0.212 C  
ATOM     17  H2*   A A   1      -7.431  14.438  68.214  1.00  0.00     0.000 HD 
ATOM     18  C2*   A A   1      -9.139  13.808  69.126  1.00  0.00     0.430 C  
ATOM     19  O3*   A A   1      -9.120  15.912  70.364  1.00  0.00     0.708 OA 
ATOM     20  H3*   A A   1      -8.254  16.148  70.053  1.00  0.00     0.000 HD 
ATOM     21  O2*   A A   1      -8.148  13.823  68.113  1.00  0.00    -0.134 OA 
BRANCH  15  22
ATOM     22  C5*   A A   1     -12.322  15.361  68.989  1.00  0.00    -0.012 C  
ATOM     23  O5*   A A   1     -12.431  16.765  69.209  1.00  0.00     0.275 OA 
ATOM     24  H5*   A A   1     -13.112  17.133  68.659  1.00  0.00     0.000 HD 
ENDBRANCH  15  22
ENDBRANCH  12  13
TORSDOF 2
ENDMDL
MODEL      227
REMARK 921   NORMALIZED FREE ENERGY PREDICTED BY IDOCK:   -0.61 KCAL/MOL
REMARK 922        TOTAL FREE ENERGY PREDICTED BY IDOCK:   -0.75 KCAL/MOL
REMARK 923 INTER-LIGAND FREE ENERGY PREDICTED BY IDOCK:   -0.76 KCAL/MOL
REMARK 924 INTRA-LIGAND FREE ENERGY PREDICTED BY IDOCK:    0.01 KCAL/MOL
REMARK 927      BINDING AFFINITY PREDICTED BY RF-SCORE:    0.00 PKD
ROOT
ATOM      1  N6    A A   1      -7.548   9.558  69.501  1.00  0.00    -0.087 NA 
ATOM      2  C6    A A   1      -7.648   8.175  69.400  1.00  0.00    -0.101 A  
ATOM      3  H62   A A   1      -6.563   9.816  69.557  1.00  0.00     0.000 HD 
ATOM      4  H61   A A   1      -8.002  10.131  68.790  1.00  0.00     0.000 HD 
ATOM      5  N1    A A   1      -7.048   7.417  70.341  1.00  0.00    -0.063 NA 
ATOM      6  C2    A A   1      -7.147   6.074  70.240  1.00  0.00    -0.074 A  
ATOM      7  N3    A A   1      -7.800   5.344  69.304  1.00  0.00    -0.088 NA 
ATOM      8  C4    A A   1      -8.377   6.143  68.391  1.00  0.00    -0.114 A  
ATOM      9  C5    A A   1      -8.362   7.534  68.375  1.00  0.00    -0.125 A  
ATOM     10  N7    A A   1      -9.098   8.025  67.321  1.00  0.00    -0.133 NA 
ATOM     11  C8    A A   1      -9.538   6.957  66.698  1.00  0.00    -0.168 A  
ATOM     12  N9    A A   1      -9.115   5.789  67.295  1.00  0.00    -0.111 NA 
ENDROOT
BRANCH  12  13
ATOM     13  C1*   A A   1      -9.493   4.489  66.791  1.00  0.00    -0.174 C  
ATOM     14  O4*   A A   1      -8.330   3.955  66.116  1.00  0.00    -0.107 OA 
ATOM     15  C4*   A A   1      -8.491   4.190  64.693  1.00  0.00    -0.110 C  
ATOM     16  C3*   A A   1      -9.979   4.440  64.428  1.00  0.00    -0.005 C  
ATOM     17  H2*   A A   1     -12.525   4.901  65.370  1.00  0.00     0.000 HD 
ATOM     18  C2*   A A   1     -10.634   4.275  65.796  1.00  0.00     0.020 C  
ATOM     19  O3*   A A   1     -10.497   3.490  63.489  1.00  0.00    -0.208 OA 
ATOM     20  H3*   A A   1     -11.419   3.646  63.325  1.00  0.00     0.000 HD 
ATOM     21  O2*   A A   1     -11.816   5.034  65.988  1.00  0.00     1.296 OA 
BRANCH  15  22
ATOM     22  C5*   A A   1      -7.632   5.392  64.279  1.00  0.00    -0.076 C  
ATOM     23  O5*   A A   1      -8.434   6.368  63.621  1.00  0.00    -0.331 OA 
ATOM     24  H5*   A A   1      -7.903   7.113  63.365  1.00  0.00     0.000 HD 
ENDBRANCH  15  22
ENDBRANCH  12  13
TORSDOF 2
ENDMDL
MODEL      228
REMARK 921   NORMALIZED FREE ENERGY PREDICTED BY IDOCK:    1.01 KCAL/MOL
REMARK 922        TOTAL FREE ENERGY PREDICTED BY IDOCK:    1.06 KCAL/MOL
REMARK 923 INTER-LIGAND FREE ENERGY PREDICTED BY IDOCK:    0.82 KCAL/MOL
REMARK 924 INTRA-LIGAND FREE ENERGY PREDICTED BY IDOCK:    0.24 KCAL/MOL
REMARK 927      BINDING AFFINITY PREDICTED BY RF-SCORE:    0.00 PKD
ROOT
ATOM      1  N6    A A   1     -11.327  17.933  65.527  1.00  0.00     0.542 NA 
ATOM      2  C6    A A   1     -10.139  17.537  66.129  1.00  0.00    -0.310 A  
ATOM      3  H62   A A   1     -11.147  18.752  64.946  1.00  0.00     0.000 HD 
ATOM      4  H61   A A   1     -11.847  17.246  64.981  1.00  0.00     0.000 HD 
ATOM      5  N1    A A   1      -9.450  18.445  66.852  1.00  0.00    -0.281 NA 
ATOM      6  C2    A A   1      -8.297  18.057  67.437  1.00  0.00    -0.232 A  
ATOM      7  N3    A A   1      -7.711  16.836  67.419  1.00  0.00    -0.162 NA 
ATOM      8  C4    A A   1      -8.432  15.970  66.686  1.00  0.00    -0.288 A  
ATOM      9  C5    A A   1      -9.635  16.230  66.037  1.00  0.00    -0.337 A  
ATOM     10  N7    A A   1     -10.120  15.098  65.423  1.00  0.00    -0.352 NA 
ATOM     11  C8    A A   1      -9.225  14.173  65.677  1.00  0.00     0.398 A  
ATOM     12  N9    A A   1      -8.171  14.653  66.425  1.00  0.00     0.363 NA 
ENDROOT
BRANCH  12  13
ATOM     13  C1*   A A   1      -7.076  13.807  66.839  1.00  0.00     0.909 C  
ATOM     14  O4*   A A   1      -7.647  12.769  67.669  1.00  0.00    -0.126 OA 
ATOM     15  C4*   A A   1      -7.449  13.146  69.057  1.00  0.00     0.093 C  
ATOM     16  C3*   A A   1      -6.324  14.186  69.100  1.00  0.00    -0.106 C  
ATOM     17  H2*   A A   1      -4.610  15.901  67.796  1.00  0.00     0.000 HD 
ATOM     18  C2*   A A   1      -5.882  14.317  67.646  1.00  0.00     0.005 C  
ATOM     19  O3*   A A   1      -5.247  13.737  69.931  1.00  0.00    -0.091 OA 
ATOM     20  H3*   A A   1      -4.550  14.382  69.957  1.00  0.00     0.000 HD 
ATOM     21  O2*   A A   1      -5.352  15.584  67.295  1.00  0.00    -0.339 OA 
BRANCH  15  22
ATOM     22  C5*   A A   1      -8.761  13.707  69.620  1.00  0.00     1.450 C  
ATOM     23  O5*   A A   1      -8.566  15.036  70.097  1.00  0.00    -0.312 OA 
ATOM     24  H5*   A A   1      -9.378  15.384  70.446  1.00  0.00     0.000 HD 
ENDBRANCH  15  22
ENDBRANCH  12  13
TORSDOF 2
ENDMDL
MODEL      229
REMARK 921   NORMALIZED FREE ENERGY PREDICTED BY IDOCK:    1.46 KCAL/MOL
REMARK 922        TOTAL FREE ENERGY PREDICTED BY IDOCK:    1.56 KCAL/MOL
REMARK 923 INTER-LIGAND FREE ENERGY PREDICTED BY IDOCK:    0.74 KCAL/MOL
REMARK 924 INTRA-LIGAND FREE ENERGY PREDICTED BY IDOCK:    0.82 KCAL/MOL
REMARK 927      BINDING AFFINITY PREDICTED BY RF-SCORE:    0.00 PKD
ROOT
ATOM      1  N6    A A   1      -5.126  17.596  72.538  1.00  0.00     0.791 NA 
ATOM      2  C6    A A   1      -5.871  17.099  71.475  1.00  0.00     1.237 A  
ATOM      3  H62   A A   1      -4.248  17.082  72.597  1.00  0.00     0.000 HD 
ATOM      4  H61   A A   1      -4.928  18.596  72.567  1.00  0.00     0.000 HD 
ATOM      5  N1    A A   1      -6.135  15.776  71.437  1.00  0.00     0.785 NA 
ATOM      6  C2    A A   1      -6.859  15.297  70.404  1.00  0.00     0.204 A  
ATOM      7  N3    A A   1      -7.397  15.977  69.363  1.00  0.00    -0.228 NA 
ATOM      8  C4    A A   1      -7.106  17.287  69.445  1.00  0.00    -0.076 A  
ATOM      9  C5    A A   1      -6.380  17.915  70.452  1.00  0.00     0.536 A  
ATOM     10  N7    A A   1      -6.318  19.274  70.243  1.00  0.00    -0.115 NA 
ATOM     11  C8    A A   1      -6.978  19.467  69.125  1.00  0.00    -0.357 A  
ATOM     12  N9    A A   1      -7.461  18.293  68.590  1.00  0.00    -0.290 NA 
ENDROOT
BRANCH  12  13
ATOM     13  C1*   A A   1      -8.234  18.266  67.369  1.00  0.00    -0.237 C  
ATOM     14  O4*   A A   1      -7.320  17.893  66.311  1.00  0.00    -0.246 OA 
ATOM     15  C4*   A A   1      -6.902  19.107  65.632  1.00  0.00    -0.274 C  
ATOM     16  C3*   A A   1      -7.929  20.197  65.956  1.00  0.00    -0.204 C  
ATOM     17  H2*   A A   1     -10.101  21.075  67.402  1.00  0.00     0.000 HD 
ATOM     18  C2*   A A   1      -8.969  19.487  66.816  1.00  0.00    -0.335 C  
ATOM     19  O3*   A A   1      -8.517  20.715  64.756  1.00  0.00     0.243 OA 
ATOM     20  H3*   A A   1      -9.153  21.391  64.956  1.00  0.00     0.000 HD 
ATOM     21  O2*   A A   1      -9.644  20.317  67.746  1.00  0.00    -0.369 OA 
BRANCH  15  22
ATOM     22  C5*   A A   1      -5.496  19.494  66.110  1.00  0.00    -0.158 C  
ATOM     23  O5*   A A   1      -5.578  20.291  67.289  1.00  0.00    -0.165 OA 
ATOM     24  H5*   A A   1      -4.707  20.531  67.585  1.00  0.00     0.000 HD 
ENDBRANCH  15  22
ENDBRANCH  12  13
TORSDOF 2
ENDMDL
MODEL      230
REMARK 921   NORMALIZED FREE ENERGY PREDICTED BY IDOCK:    2.70 KCAL/MOL
REMARK 922        TOTAL FREE ENERGY PREDICTED BY IDOCK:    2.94 KCAL/MOL
REMARK 923 INTER-LIGAND FREE ENERGY PREDICTED BY IDOCK:    2.72 KCAL/MOL
REMARK 924 INTRA-LIGAND FREE ENERGY PREDICTED BY IDOCK:    0.22 KCAL/MOL
REMARK 927      BINDING AFFINITY PREDICTED BY RF-SCORE:    0.00 PKD
ROOT
ATOM      1  N6    A A   1     -11.307  18.635  64.492  1.00  0.00     1.333 NA 
ATOM      2  C6    A A   1     -11.253  17.308  64.902  1.00  0.00     0.562 A  
ATOM      3  H62   A A   1     -12.149  18.776  63.934  1.00  0.00     0.000 HD 
ATOM      4  H61   A A   1     -11.254  19.365  65.203  1.00  0.00     0.000 HD 
ATOM      5  N1    A A   1     -11.323  16.342  63.963  1.00  0.00    -0.902 NA 
ATOM      6  C2    A A   1     -11.271  15.053  64.365  1.00  0.00    -0.161 A  
ATOM      7  N3    A A   1     -11.136  14.566  65.621  1.00  0.00    -0.317 NA 
ATOM      8  C4    A A   1     -11.073  15.566  66.518  1.00  0.00    -0.182 A  
ATOM      9  C5    A A   1     -11.108  16.930  66.246  1.00  0.00     0.344 A  
ATOM     10  N7    A A   1     -10.970  17.667  67.400  1.00  0.00    -0.160 NA 
ATOM     11  C8    A A   1     -10.869  16.773  68.355  1.00  0.00    -0.355 A  
ATOM     12  N9    A A   1     -10.943  15.483  67.877  1.00  0.00    -0.307 NA 
ENDROOT
BRANCH  12  13
ATOM     13  C1*   A A   1     -10.838  14.334  68.747  1.00  0.00    -0.253 C  
ATOM     14  O4*   A A   1     -12.192  13.908  69.033  1.00  0.00    -0.350 OA 
ATOM     15  C4*   A A   1     -12.566  14.444  70.329  1.00  0.00    -0.323 C  
ATOM     16  C3*   A A   1     -11.277  14.805  71.073  1.00  0.00    -0.073 C  
ATOM     17  H2*   A A   1      -8.546  15.158  71.081  1.00  0.00     0.000 HD 
ATOM     18  C2*   A A   1     -10.164  14.381  70.119  1.00  0.00     0.686 C  
ATOM     19  O3*   A A   1     -11.191  14.095  72.315  1.00  0.00     0.794 OA 
ATOM     20  H3*   A A   1     -10.391  14.319  72.777  1.00  0.00     0.000 HD 
ATOM     21  O2*   A A   1      -8.965  15.129  70.229  1.00  0.00     0.290 OA 
BRANCH  15  22
ATOM     22  C5*   A A   1     -13.465  15.671  70.126  1.00  0.00     0.770 C  
ATOM     23  O5*   A A   1     -12.892  16.812  70.759  1.00  0.00     1.328 OA 
ATOM     24  H5*   A A   1     -13.448  17.572  70.634  1.00  0.00     0.000 HD 
ENDBRANCH  15  22
ENDBRANCH  12  13
TORSDOF 2
ENDMDL
MODEL      231
REMARK 921   NORMALIZED FREE ENERGY PREDICTED BY IDOCK:    3.40 KCAL/MOL
REMARK 922        TOTAL FREE ENERGY PREDICTED BY IDOCK:    3.72 KCAL/MOL
REMARK 923 INTER-LIGAND FREE ENERGY PREDICTED BY IDOCK:    2.99 KCAL/MOL
REMARK 924 INTRA-LIGAND FREE ENERGY PREDICTED BY IDOCK:    0.73 KCAL/MOL
REMARK 927      BINDING AFFINITY PREDICTED BY RF-SCORE:    0.00 PKD
ROOT
ATOM      1  N6    A A   1     -11.659  20.696  69.448  1.00  0.00     1.928 NA 
ATOM      2  C6    A A   1     -10.774  19.631  69.324  1.00  0.00     0.778 A  
ATOM      3  H62   A A   1     -11.156  21.505  69.809  1.00  0.00     0.000 HD 
ATOM      4  H61   A A   1     -12.197  20.977  68.628  1.00  0.00     0.000 HD 
ATOM      5  N1    A A   1     -10.062  19.258  70.409  1.00  0.00     0.937 NA 
ATOM      6  C2    A A   1      -9.203  18.223  70.286  1.00  0.00     2.559 A  
ATOM      7  N3    A A   1      -8.950  17.462  69.194  1.00  0.00    -0.040 NA 
ATOM      8  C4    A A   1      -9.679  17.874  68.143  1.00  0.00    -0.320 A  
ATOM      9  C5    A A   1     -10.602  18.915  68.129  1.00  0.00    -0.235 A  
ATOM     10  N7    A A   1     -11.202  19.027  66.896  1.00  0.00     0.035 NA 
ATOM     11  C8    A A   1     -10.646  18.087  66.169  1.00  0.00    -0.261 A  
ATOM     12  N9    A A   1      -9.702  17.369  66.872  1.00  0.00    -0.274 NA 
ENDROOT
BRANCH  12  13
ATOM     13  C1*   A A   1      -8.973  16.272  66.279  1.00  0.00    -0.331 C  
ATOM     14  O4*   A A   1      -9.638  15.961  65.032  1.00  0.00    -0.183 OA 
ATOM     15  C4*   A A   1     -10.512  14.825  65.262  1.00  0.00    -0.404 C  
ATOM     16  C3*   A A   1     -10.032  14.119  66.535  1.00  0.00    -0.283 C  
ATOM     17  H2*   A A   1      -8.435  14.070  68.777  1.00  0.00     0.000 HD 
ATOM     18  C2*   A A   1      -8.801  14.914  66.960  1.00  0.00    -0.232 C  
ATOM     19  O3*   A A   1      -9.697  12.753  66.263  1.00  0.00    -0.259 OA 
ATOM     20  H3*   A A   1      -9.399  12.316  67.052  1.00  0.00     0.000 HD 
ATOM     21  O2*   A A   1      -8.542  14.914  68.354  1.00  0.00    -0.147 OA 
BRANCH  15  22
ATOM     22  C5*   A A   1     -11.958  15.320  65.401  1.00  0.00     0.180 C  
ATOM     23  O5*   A A   1     -12.770  14.311  65.995  1.00  0.00    -0.452 OA 
ATOM     24  H5*   A A   1     -13.665  14.617  66.081  1.00  0.00     0.000 HD 
ENDBRANCH  15  22
ENDBRANCH  12  13
TORSDOF 2
ENDMDL
MODEL      232
REMARK 921   NORMALIZED FREE ENERGY PREDICTED BY IDOCK:    3.47 KCAL/MOL
REMARK 922        TOTAL FREE ENERGY PREDICTED BY IDOCK:    3.81 KCAL/MOL
REMARK 923 INTER-LIGAND FREE ENERGY PREDICTED BY IDOCK:    0.72 KCAL/MOL
REMARK 924 INTRA-LIGAND FREE ENERGY PREDICTED BY IDOCK:    3.09 KCAL/MOL
REMARK 927      BINDING AFFINITY PREDICTED BY RF-SCORE:    0.00 PKD
ROOT
ATOM      1  N6    A A   1     -10.138  16.782  65.838  1.00  0.00    -0.484 NA 
ATOM      2  C6    A A   1      -9.871  15.485  66.261  1.00  0.00    -0.294 A  
ATOM      3  H62   A A   1     -10.161  16.800  64.819  1.00  0.00     0.000 HD 
ATOM      4  H61   A A   1     -10.970  17.248  66.198  1.00  0.00     0.000 HD 
ATOM      5  N1    A A   1      -8.769  14.868  65.786  1.00  0.00     0.594 NA 
ATOM      6  C2    A A   1      -8.512  13.608  66.199  1.00  0.00     0.981 A  
ATOM      7  N3    A A   1      -9.217  12.846  67.069  1.00  0.00    -0.220 NA 
ATOM      8  C4    A A   1     -10.303  13.503  67.511  1.00  0.00    -0.237 A  
ATOM      9  C5    A A   1     -10.684  14.798  67.176  1.00  0.00    -0.299 A  
ATOM     10  N7    A A   1     -11.822  15.169  67.854  1.00  0.00    -0.262 NA 
ATOM     11  C8    A A   1     -12.138  14.118  68.573  1.00  0.00    -0.277 A  
ATOM     12  N9    A A   1     -11.259  13.072  68.389  1.00  0.00    -0.251 NA 
ENDROOT
BRANCH  12  13
ATOM     13  C1*   A A   1     -11.400  11.818  69.092  1.00  0.00    -0.279 C  
ATOM     14  O4*   A A   1     -10.249  11.702  69.962  1.00  0.00     0.836 OA 
ATOM     15  C4*   A A   1      -9.276  10.847  69.305  1.00  0.00     0.014 C  
ATOM     16  C3*   A A   1     -10.015  10.036  68.236  1.00  0.00    -0.153 C  
ATOM     17  H2*   A A   1     -12.286   9.551  66.756  1.00  0.00     0.000 HD 
ATOM     18  C2*   A A   1     -11.472  10.464  68.385  1.00  0.00    -0.155 C  
ATOM     19  O3*   A A   1      -9.863   8.631  68.468  1.00  0.00    -0.160 OA 
ATOM     20  H3*   A A   1     -10.321   8.128  67.805  1.00  0.00     0.000 HD 
ATOM     21  O2*   A A   1     -12.240  10.392  67.196  1.00  0.00     1.570 OA 
BRANCH  15  22
ATOM     22  C5*   A A   1      -8.172  11.719  68.692  1.00  0.00    -0.091 C  
ATOM     23  O5*   A A   1      -6.922  11.447  69.320  1.00  0.00    -0.111 OA 
ATOM     24  H5*   A A   1      -6.239  11.987  68.941  1.00  0.00     0.000 HD 
ENDBRANCH  15  22
ENDBRANCH  12  13
TORSDOF 2
ENDMDL
MODEL      233
REMARK 921   NORMALIZED FREE ENERGY PREDICTED BY IDOCK:    4.45 KCAL/MOL
REMARK 922        TOTAL FREE ENERGY PREDICTED BY IDOCK:    4.90 KCAL/MOL
REMARK 923 INTER-LIGAND FREE ENERGY PREDICTED BY IDOCK:    3.97 KCAL/MOL
REMARK 924 INTRA-LIGAND FREE ENERGY PREDICTED BY IDOCK:    0.94 KCAL/MOL
REMARK 927      BINDING AFFINITY PREDICTED BY RF-SCORE:    0.00 PKD
ROOT
ATOM      1  N6    A A   1     -14.348  15.437  71.435  1.00  0.00    -0.681 NA 
ATOM      2  C6    A A   1     -13.266  14.566  71.399  1.00  0.00    -0.355 A  
ATOM      3  H62   A A   1     -14.605  15.608  72.407  1.00  0.00     0.000 HD 
ATOM      4  H61   A A   1     -14.268  16.331  70.950  1.00  0.00     0.000 HD 
ATOM      5  N1    A A   1     -13.372  13.383  72.039  1.00  0.00    -0.450 NA 
ATOM      6  C2    A A   1     -12.319  12.538  72.002  1.00  0.00     0.696 A  
ATOM      7  N3    A A   1     -11.127  12.702  71.379  1.00  0.00     3.650 NA 
ATOM      8  C4    A A   1     -11.071  13.894  70.760  1.00  0.00     0.941 A  
ATOM      9  C5    A A   1     -12.077  14.853  70.710  1.00  0.00    -0.317 A  
ATOM     10  N7    A A   1     -11.695  15.932  69.946  1.00  0.00    -0.336 NA 
ATOM     11  C8    A A   1     -10.476  15.644  69.553  1.00  0.00    -0.270 A  
ATOM     12  N9    A A   1     -10.042  14.428  70.033  1.00  0.00     0.475 NA 
ENDROOT
BRANCH  12  13
ATOM     13  C1*   A A   1      -8.737  13.897  69.714  1.00  0.00     1.439 C  
ATOM     14  O4*   A A   1      -7.841  15.030  69.629  1.00  0.00    -0.189 OA 
ATOM     15  C4*   A A   1      -7.683  15.372  68.226  1.00  0.00    -0.115 C  
ATOM     16  C3*   A A   1      -8.098  14.150  67.401  1.00  0.00    -0.189 C  
ATOM     17  H2*   A A   1      -9.238  11.648  67.250  1.00  0.00     0.000 HD 
ATOM     18  C2*   A A   1      -8.446  13.094  68.446  1.00  0.00    -0.126 C  
ATOM     19  O3*   A A   1      -7.022  13.713  66.562  1.00  0.00     0.408 OA 
ATOM     20  H3*   A A   1      -7.280  12.956  66.050  1.00  0.00     0.000 HD 
ATOM     21  O2*   A A   1      -9.418  12.147  68.038  1.00  0.00    -0.188 OA 
BRANCH  15  22
ATOM     22  C5*   A A   1      -8.552  16.595  67.904  1.00  0.00    -0.196 C  
ATOM     23  O5*   A A   1      -8.904  16.600  66.523  1.00  0.00    -0.233 OA 
ATOM     24  H5*   A A   1      -9.442  17.357  66.324  1.00  0.00     0.000 HD 
ENDBRANCH  15  22
ENDBRANCH  12  13
TORSDOF 2
ENDMDL
MODEL      234
REMARK 921   NORMALIZED FREE ENERGY PREDICTED BY IDOCK:    5.11 KCAL/MOL
REMARK 922        TOTAL FREE ENERGY PREDICTED BY IDOCK:    5.63 KCAL/MOL
REMARK 923 INTER-LIGAND FREE ENERGY PREDICTED BY IDOCK:    4.68 KCAL/MOL
REMARK 924 INTRA-LIGAND FREE ENERGY PREDICTED BY IDOCK:    0.96 KCAL/MOL
REMARK 927      BINDING AFFINITY PREDICTED BY RF-SCORE:    0.00 PKD
ROOT
ATOM      1  N6    A A   1      -9.681   4.771  67.641  1.00  0.00    -0.158 NA 
ATOM      2  C6    A A   1      -9.954   6.031  67.124  1.00  0.00    -0.156 A  
ATOM      3  H62   A A   1      -9.517   4.124  66.870  1.00  0.00     0.000 HD 
ATOM      4  H61   A A   1      -8.924   4.677  68.319  1.00  0.00     0.000 HD 
ATOM      5  N1    A A   1     -10.955   6.155  66.228  1.00  0.00     0.136 NA 
ATOM      6  C2    A A   1     -11.218   7.382  65.727  1.00  0.00     4.513 A  
ATOM      7  N3    A A   1     -10.612   8.558  66.016  1.00  0.00     0.809 NA 
ATOM      8  C4    A A   1      -9.623   8.382  66.909  1.00  0.00    -0.202 A  
ATOM      9  C5    A A   1      -9.250   7.183  67.508  1.00  0.00    -0.125 A  
ATOM     10  N7    A A   1      -8.231   7.379  68.412  1.00  0.00    -0.124 NA 
ATOM     11  C8    A A   1      -7.977   8.666  68.353  1.00  0.00    -0.113 A  
ATOM     12  N9    A A   1      -8.782   9.318  67.443  1.00  0.00    -0.118 NA 
ENDROOT
BRANCH  12  13
ATOM     13  C1*   A A   1      -8.692  10.743  67.222  1.00  0.00    -0.130 C  
ATOM     14  O4*   A A   1      -7.328  11.121  67.521  1.00  0.00    -0.095 OA 
ATOM     15  C4*   A A   1      -7.297  11.660  68.868  1.00  0.00    -0.107 C  
ATOM     16  C3*   A A   1      -8.727  12.067  69.239  1.00  0.00     0.767 C  
ATOM     17  H2*   A A   1     -11.424  12.073  68.686  1.00  0.00     0.000 HD 
ATOM     18  C2*   A A   1      -9.538  11.764  67.983  1.00  0.00    -0.187 C  
ATOM     19  O3*   A A   1      -8.790  13.459  69.571  1.00  0.00     0.321 OA 
ATOM     20  H3*   A A   1      -9.677  13.712  69.801  1.00  0.00     0.000 HD 
ATOM     21  O2*   A A   1     -10.898  11.438  68.214  1.00  0.00    -0.186 OA 
BRANCH  15  22
ATOM     22  C5*   A A   1      -6.746  10.596  69.826  1.00  0.00    -0.130 C  
ATOM     23  O5*   A A   1      -5.362  10.371  69.569  1.00  0.00    -0.038 OA 
ATOM     24  H5*   A A   1      -5.021   9.711  70.162  1.00  0.00     0.000 HD 
ENDBRANCH  15  22
ENDBRANCH  12  13
TORSDOF 2
ENDMDL
MODEL      235
REMARK 921   NORMALIZED FREE ENERGY PREDICTED BY IDOCK:    6.87 KCAL/MOL
REMARK 922        TOTAL FREE ENERGY PREDICTED BY IDOCK:    7.61 KCAL/MOL
REMARK 923 INTER-LIGAND FREE ENERGY PREDICTED BY IDOCK:    7.09 KCAL/MOL
REMARK 924 INTRA-LIGAND FREE ENERGY PREDICTED BY IDOCK:    0.52 KCAL/MOL
REMARK 927      BINDING AFFINITY PREDICTED BY RF-SCORE:    0.00 PKD
ROOT
ATOM      1  N6    A A   1     -12.243  18.282  64.238  1.00  0.00     6.196 NA 
ATOM      2  C6    A A   1     -11.535  18.794  65.319  1.00  0.00     2.093 A  
ATOM      3  H62   A A   1     -11.938  18.756  63.388  1.00  0.00     0.000 HD 
ATOM      4  H61   A A   1     -12.228  17.274  64.080  1.00  0.00     0.000 HD 
ATOM      5  N1    A A   1     -11.554  20.127  65.527  1.00  0.00     0.742 NA 
ATOM      6  C2    A A   1     -10.865  20.621  66.579  1.00  0.00     1.097 A  
ATOM      7  N3    A A   1     -10.140  19.947  67.503  1.00  0.00    -0.404 NA 
ATOM      8  C4    A A   1     -10.150  18.627  67.251  1.00  0.00    -0.354 A  
ATOM      9  C5    A A   1     -10.818  17.984  66.214  1.00  0.00     0.053 A  
ATOM     10  N7    A A   1     -10.650  16.620  66.288  1.00  0.00    -0.254 NA 
ATOM     11  C8    A A   1      -9.883  16.437  67.337  1.00  0.00    -0.244 A  
ATOM     12  N9    A A   1      -9.536  17.622  67.947  1.00  0.00    -0.269 NA 
ENDROOT
BRANCH  12  13
ATOM     13  C1*   A A   1      -8.710  17.663  69.132  1.00  0.00     0.126 C  
ATOM     14  O4*   A A   1      -8.279  19.036  69.288  1.00  0.00    -0.141 OA 
ATOM     15  C4*   A A   1      -6.936  19.148  68.747  1.00  0.00    -0.321 C  
ATOM     16  C3*   A A   1      -6.339  17.739  68.690  1.00  0.00    -0.197 C  
ATOM     17  H2*   A A   1      -6.639  15.010  68.898  1.00  0.00     0.000 HD 
ATOM     18  C2*   A A   1      -7.425  16.848  69.286  1.00  0.00    -0.116 C  
ATOM     19  O3*   A A   1      -5.131  17.667  69.458  1.00  0.00    -0.163 OA 
ATOM     20  H3*   A A   1      -4.761  16.793  69.423  1.00  0.00     0.000 HD 
ATOM     21  O2*   A A   1      -7.437  15.516  68.802  1.00  0.00    -0.124 OA 
BRANCH  15  22
ATOM     22  C5*   A A   1      -7.005  19.791  67.355  1.00  0.00    -0.219 C  
ATOM     23  O5*   A A   1      -7.433  21.146  67.458  1.00  0.00    -0.411 OA 
ATOM     24  H5*   A A   1      -7.476  21.544  66.596  1.00  0.00     0.000 HD 
ENDBRANCH  15  22
ENDBRANCH  12  13
TORSDOF 2
ENDMDL
MODEL      236
REMARK 921   NORMALIZED FREE ENERGY PREDICTED BY IDOCK:   13.93 KCAL/MOL
REMARK 922        TOTAL FREE ENERGY PREDICTED BY IDOCK:   15.50 KCAL/MOL
REMARK 923 INTER-LIGAND FREE ENERGY PREDICTED BY IDOCK:   10.92 KCAL/MOL
REMARK 924 INTRA-LIGAND FREE ENERGY PREDICTED BY IDOCK:    4.58 KCAL/MOL
REMARK 927      BINDING AFFINITY PREDICTED BY RF-SCORE:    0.00 PKD
ROOT
ATOM      1  N6    A A   1      -8.706  20.890  62.828  1.00  0.00     4.132 NA 
ATOM      2  C6    A A   1      -8.217  20.090  63.854  1.00  0.00     5.068 A  
ATOM      3  H62   A A   1      -8.916  20.303  62.021  1.00  0.00     0.000 HD 
ATOM      4  H61   A A   1      -9.509  21.489  63.021  1.00  0.00     0.000 HD 
ATOM      5  N1    A A   1      -7.154  19.298  63.599  1.00  0.00     2.571 NA 
ATOM      6  C2    A A   1      -6.681  18.521  64.598  1.00  0.00     1.116 A  
ATOM      7  N3    A A   1      -7.122  18.427  65.875  1.00  0.00    -0.386 NA 
ATOM      8  C4    A A   1      -8.180  19.232  66.077  1.00  0.00    -0.195 A  
ATOM      9  C5    A A   1      -8.764  20.084  65.146  1.00  0.00     1.252 A  
ATOM     10  N7    A A   1      -9.798  20.797  65.710  1.00  0.00     0.369 NA 
ATOM     11  C8    A A   1      -9.852  20.376  66.952  1.00  0.00    -0.431 A  
ATOM     12  N9    A A   1      -8.905  19.413  67.222  1.00  0.00    -0.290 NA 
ENDROOT
BRANCH  12  13
ATOM     13  C1*   A A   1      -8.767  18.817  68.531  1.00  0.00    -0.346 C  
ATOM     14  O4*   A A   1      -7.357  18.554  68.719  1.00  0.00    -0.284 OA 
ATOM     15  C4*   A A   1      -7.118  17.154  68.417  1.00  0.00    -0.206 C  
ATOM     16  C3*   A A   1      -8.462  16.424  68.508  1.00  0.00    -0.211 C  
ATOM     17  H2*   A A   1     -11.204  16.494  68.742  1.00  0.00     0.000 HD 
ATOM     18  C2*   A A   1      -9.448  17.508  68.931  1.00  0.00    -0.189 C  
ATOM     19  O3*   A A   1      -8.404  15.370  69.477  1.00  0.00    -0.245 OA 
ATOM     20  H3*   A A   1      -9.237  14.917  69.533  1.00  0.00     0.000 HD 
ATOM     21  O2*   A A   1     -10.781  17.308  68.493  1.00  0.00    -0.353 OA 
BRANCH  15  22
ATOM     22  C5*   A A   1      -6.504  17.037  67.016  1.00  0.00    -0.197 C  
ATOM     23  O5*   A A   1      -5.815  15.797  66.881  1.00  0.00    -0.260 OA 
ATOM     24  H5*   A A   1      -5.435  15.724  66.014  1.00  0.00     0.000 HD 
ENDBRANCH  15  22
ENDBRANCH  12  13
TORSDOF 2
ENDMDL
MODEL      237
REMARK 921   NORMALIZED FREE ENERGY PREDICTED BY IDOCK:   51.08 KCAL/MOL
REMARK 922        TOTAL FREE ENERGY PREDICTED BY IDOCK:   56.99 KCAL/MOL
REMARK 923 INTER-LIGAND FREE ENERGY PREDICTED BY IDOCK:   55.18 KCAL/MOL
REMARK 924 INTRA-LIGAND FREE ENERGY PREDICTED BY IDOCK:    1.81 KCAL/MOL
REMARK 927      BINDING AFFINITY PREDICTED BY RF-SCORE:    0.00 PKD
ROOT
ATOM      1  N6    A A   1      -6.628  20.391  70.524  1.00  0.00    -0.340 NA 
ATOM      2  C6    A A   1      -6.324  19.322  69.690  1.00  0.00    -0.286 A  
ATOM      3  H62   A A   1      -5.833  20.569  71.138  1.00  0.00     0.000 HD 
ATOM      4  H61   A A   1      -6.922  21.271  70.098  1.00  0.00     0.000 HD 
ATOM      5  N1    A A   1      -5.936  18.158  70.252  1.00  0.00    -0.142 NA 
ATOM      6  C2    A A   1      -5.642  17.120  69.440  1.00  0.00    -0.182 A  
ATOM      7  N3    A A   1      -5.697  17.066  68.087  1.00  0.00    -0.118 NA 
ATOM      8  C4    A A   1      -6.085  18.247  67.576  1.00  0.00    -0.169 A  
ATOM      9  C5    A A   1      -6.424  19.391  68.291  1.00  0.00    -0.240 A  
ATOM     10  N7    A A   1      -6.824  20.402  67.447  1.00  0.00    -0.258 NA 
ATOM     11  C8    A A   1      -6.716  19.891  66.243  1.00  0.00    -0.215 A  
ATOM     12  N9    A A   1      -6.255  18.592  66.263  1.00  0.00    -0.174 NA 
ENDROOT
BRANCH  12  13
ATOM     13  C1*   A A   1      -6.074  17.823  65.054  1.00  0.00     0.588 C  
ATOM     14  O4*   A A   1      -5.950  18.776  63.973  1.00  0.00    -0.361 OA 
ATOM     15  C4*   A A   1      -7.243  18.884  63.320  1.00  0.00     7.473 C  
ATOM     16  C3*   A A   1      -8.054  17.637  63.687  1.00  0.00    15.593 C  
ATOM     17  H2*   A A   1      -8.366  15.350  65.188  1.00  0.00     0.000 HD 
ATOM     18  C2*   A A   1      -7.100  16.810  64.544  1.00  0.00     8.200 C  
ATOM     19  O3*   A A   1      -8.445  16.921  62.510  1.00  0.00    20.635 OA 
ATOM     20  H3*   A A   1      -8.948  16.148  62.737  1.00  0.00     0.000 HD 
ATOM     21  O2*   A A   1      -7.728  15.980  65.505  1.00  0.00     1.451 OA 
BRANCH  15  22
ATOM     22  C5*   A A   1      -7.938  20.170  63.787  1.00  0.00     4.220 C  
ATOM     23  O5*   A A   1      -6.975  21.110  64.255  1.00  0.00    -0.493 OA 
ATOM     24  H5*   A A   1      -7.405  21.906  64.544  1.00  0.00     0.000 HD 
ENDBRANCH  15  22
ENDBRANCH  12  13
TORSDOF 2
ENDMDL
