MODEL        1
REMARK 921   NORMALIZED FREE ENERGY PREDICTED BY IDOCK:   -4.38 KCAL/MOL
REMARK 922        TOTAL FREE ENERGY PREDICTED BY IDOCK:   -5.40 KCAL/MOL
REMARK 923 INTER-LIGAND FREE ENERGY PREDICTED BY IDOCK:   -5.14 KCAL/MOL
REMARK 924 INTRA-LIGAND FREE ENERGY PREDICTED BY IDOCK:   -0.25 KCAL/MOL
REMARK 927      BINDING AFFINITY PREDICTED BY RF-SCORE:    0.00 PKD
ROOT
HETATM    1  N   UNL     1     -11.331  16.528  64.062  1.00  0.00    -1.559 NA 
HETATM    2  C   UNL     1     -10.921  15.849  65.288  1.00  0.00    -0.324 C  
HETATM    3  H1  UNL     1     -11.667  17.468  64.274  1.00  0.00     0.000 HD 
HETATM    4  H2  UNL     1     -12.020  15.987  63.540  1.00  0.00     0.000 HD 
ENDROOT
BRANCH   2   5
HETATM    5  C   UNL     1      -9.871  16.690  65.959  1.00  0.00    -0.335 C  
HETATM    6  C   UNL     1      -8.597  16.314  66.134  1.00  0.00    -0.342 C  
ENDBRANCH   2   5
BRANCH   2   7
HETATM    7  C   UNL     1     -10.416  14.433  64.969  1.00  0.00    -0.454 C  
BRANCH   7   8
HETATM    8  C   UNL     1     -11.455  13.352  65.286  1.00  0.00    -0.318 C  
HETATM    9  C   UNL     1     -12.476  13.217  64.183  1.00  0.00    -0.260 C  
HETATM   10  O   UNL     1     -12.510  13.890  63.165  1.00  0.00    -0.766 OA 
HETATM   11  O   UNL     1     -13.381  12.245  64.440  1.00  0.00    -0.786 OA 
ENDBRANCH   7   8
ENDBRANCH   2   7
TORSDOF 3
ENDMDL
MODEL        2
REMARK 921   NORMALIZED FREE ENERGY PREDICTED BY IDOCK:   -4.36 KCAL/MOL
REMARK 922        TOTAL FREE ENERGY PREDICTED BY IDOCK:   -5.38 KCAL/MOL
REMARK 923 INTER-LIGAND FREE ENERGY PREDICTED BY IDOCK:   -5.23 KCAL/MOL
REMARK 924 INTRA-LIGAND FREE ENERGY PREDICTED BY IDOCK:   -0.15 KCAL/MOL
REMARK 927      BINDING AFFINITY PREDICTED BY RF-SCORE:    0.00 PKD
ROOT
HETATM    1  N   UNL     1     -12.842  11.780  63.226  1.00  0.00    -0.855 NA 
HETATM    2  C   UNL     1     -11.816  12.810  63.355  1.00  0.00    -0.518 C  
HETATM    3  H1  UNL     1     -12.540  11.060  62.569  1.00  0.00     0.000 HD 
HETATM    4  H2  UNL     1     -13.747  12.175  62.968  1.00  0.00     0.000 HD 
ENDROOT
BRANCH   2   5
HETATM    5  C   UNL     1     -10.539  12.146  63.787  1.00  0.00    -0.482 C  
HETATM    6  C   UNL     1     -10.469  10.930  64.347  1.00  0.00    -0.403 C  
ENDBRANCH   2   5
BRANCH   2   7
HETATM    7  C   UNL     1     -12.272  13.895  64.344  1.00  0.00    -0.449 C  
BRANCH   7   8
HETATM    8  C   UNL     1     -11.106  14.496  65.137  1.00  0.00    -0.374 C  
HETATM    9  C   UNL     1     -10.918  15.961  64.831  1.00  0.00    -0.411 C  
HETATM   10  O   UNL     1     -11.580  16.608  64.036  1.00  0.00    -1.197 OA 
HETATM   11  O   UNL     1      -9.910  16.508  65.549  1.00  0.00    -0.537 OA 
ENDBRANCH   7   8
ENDBRANCH   2   7
TORSDOF 3
ENDMDL
MODEL        3
REMARK 921   NORMALIZED FREE ENERGY PREDICTED BY IDOCK:   -4.31 KCAL/MOL
REMARK 922        TOTAL FREE ENERGY PREDICTED BY IDOCK:   -5.32 KCAL/MOL
REMARK 923 INTER-LIGAND FREE ENERGY PREDICTED BY IDOCK:   -5.09 KCAL/MOL
REMARK 924 INTRA-LIGAND FREE ENERGY PREDICTED BY IDOCK:   -0.23 KCAL/MOL
REMARK 927      BINDING AFFINITY PREDICTED BY RF-SCORE:    0.00 PKD
ROOT
HETATM    1  N   UNL     1     -12.323  11.766  63.235  1.00  0.00    -0.916 NA 
HETATM    2  C   UNL     1     -10.984  12.224  63.594  1.00  0.00    -0.471 C  
HETATM    3  H1  UNL     1     -12.299  11.265  62.347  1.00  0.00     0.000 HD 
HETATM    4  H2  UNL     1     -12.996  12.532  63.222  1.00  0.00     0.000 HD 
ENDROOT
BRANCH   2   5
HETATM    5  C   UNL     1     -10.077  11.026  63.641  1.00  0.00    -0.428 C  
HETATM    6  C   UNL     1      -9.707  10.400  64.766  1.00  0.00    -0.383 C  
ENDBRANCH   2   5
BRANCH   2   7
HETATM    7  C   UNL     1     -11.021  12.979  64.933  1.00  0.00    -0.329 C  
BRANCH   7   8
HETATM    8  C   UNL     1     -10.572  14.438  64.798  1.00  0.00    -0.417 C  
HETATM    9  C   UNL     1     -11.672  15.314  64.250  1.00  0.00    -0.215 C  
HETATM   10  O   UNL     1     -12.783  14.930  63.921  1.00  0.00    -0.789 OA 
HETATM   11  O   UNL     1     -11.295  16.610  64.155  1.00  0.00    -1.141 OA 
ENDBRANCH   7   8
ENDBRANCH   2   7
TORSDOF 3
ENDMDL
MODEL        4
REMARK 921   NORMALIZED FREE ENERGY PREDICTED BY IDOCK:   -4.24 KCAL/MOL
REMARK 922        TOTAL FREE ENERGY PREDICTED BY IDOCK:   -5.24 KCAL/MOL
REMARK 923 INTER-LIGAND FREE ENERGY PREDICTED BY IDOCK:   -5.12 KCAL/MOL
REMARK 924 INTRA-LIGAND FREE ENERGY PREDICTED BY IDOCK:   -0.11 KCAL/MOL
REMARK 927      BINDING AFFINITY PREDICTED BY RF-SCORE:    0.00 PKD
ROOT
HETATM    1  N   UNL     1     -11.513  16.500  63.946  1.00  0.00    -1.599 NA 
HETATM    2  C   UNL     1     -11.139  15.841  65.193  1.00  0.00    -0.324 C  
HETATM    3  H1  UNL     1     -11.835  17.450  64.131  1.00  0.00     0.000 HD 
HETATM    4  H2  UNL     1     -12.202  15.960  63.422  1.00  0.00     0.000 HD 
ENDROOT
BRANCH   2   5
HETATM    5  C   UNL     1     -10.086  16.677  65.867  1.00  0.00    -0.341 C  
HETATM    6  C   UNL     1     -10.194  17.994  66.091  1.00  0.00    -0.364 C  
ENDBRANCH   2   5
BRANCH   2   7
HETATM    7  C   UNL     1     -10.654  14.409  64.914  1.00  0.00    -0.456 C  
BRANCH   7   8
HETATM    8  C   UNL     1     -10.810  13.487  66.128  1.00  0.00    -0.284 C  
HETATM    9  C   UNL     1     -12.027  12.603  66.006  1.00  0.00    -0.417 C  
HETATM   10  O   UNL     1     -12.820  12.616  65.079  1.00  0.00    -0.765 OA 
HETATM   11  O   UNL     1     -12.157  11.764  67.059  1.00  0.00    -0.575 OA 
ENDBRANCH   7   8
ENDBRANCH   2   7
TORSDOF 3
ENDMDL
MODEL        5
REMARK 921   NORMALIZED FREE ENERGY PREDICTED BY IDOCK:   -4.14 KCAL/MOL
REMARK 922        TOTAL FREE ENERGY PREDICTED BY IDOCK:   -5.12 KCAL/MOL
REMARK 923 INTER-LIGAND FREE ENERGY PREDICTED BY IDOCK:   -5.00 KCAL/MOL
REMARK 924 INTRA-LIGAND FREE ENERGY PREDICTED BY IDOCK:   -0.12 KCAL/MOL
REMARK 927      BINDING AFFINITY PREDICTED BY RF-SCORE:    0.00 PKD
ROOT
HETATM    1  N   UNL     1     -14.100  15.378  70.773  1.00  0.00    -0.852 NA 
HETATM    2  C   UNL     1     -14.201  14.976  72.173  1.00  0.00    -0.540 C  
HETATM    3  H1  UNL     1     -14.439  16.333  70.654  1.00  0.00     0.000 HD 
HETATM    4  H2  UNL     1     -14.578  14.724  70.154  1.00  0.00     0.000 HD 
ENDROOT
BRANCH   2   5
HETATM    5  C   UNL     1     -13.425  15.964  73.000  1.00  0.00    -0.653 C  
HETATM    6  C   UNL     1     -12.583  15.629  73.987  1.00  0.00    -0.767 C  
ENDBRANCH   2   5
BRANCH   2   7
HETATM    7  C   UNL     1     -13.689  13.538  72.352  1.00  0.00    -0.704 C  
BRANCH   7   8
HETATM    8  C   UNL     1     -12.677  13.135  71.275  1.00  0.00    -0.396 C  
HETATM    9  C   UNL     1     -12.597  11.636  71.116  1.00  0.00    -0.335 C  
HETATM   10  O   UNL     1     -13.229  10.821  71.768  1.00  0.00    -0.445 OA 
HETATM   11  O   UNL     1     -11.726  11.270  70.147  1.00  0.00    -0.309 OA 
ENDBRANCH   7   8
ENDBRANCH   2   7
TORSDOF 3
ENDMDL
MODEL        6
REMARK 921   NORMALIZED FREE ENERGY PREDICTED BY IDOCK:   -4.09 KCAL/MOL
REMARK 922        TOTAL FREE ENERGY PREDICTED BY IDOCK:   -5.06 KCAL/MOL
REMARK 923 INTER-LIGAND FREE ENERGY PREDICTED BY IDOCK:   -4.96 KCAL/MOL
REMARK 924 INTRA-LIGAND FREE ENERGY PREDICTED BY IDOCK:   -0.10 KCAL/MOL
REMARK 927      BINDING AFFINITY PREDICTED BY RF-SCORE:    0.00 PKD
ROOT
HETATM    1  N   UNL     1     -11.873  12.232  66.056  1.00  0.00    -0.562 NA 
HETATM    2  C   UNL     1     -12.580  12.742  64.886  1.00  0.00    -0.470 C  
HETATM    3  H1  UNL     1     -11.999  11.223  66.134  1.00  0.00     0.000 HD 
HETATM    4  H2  UNL     1     -12.150  12.717  66.910  1.00  0.00     0.000 HD 
ENDROOT
BRANCH   2   5
HETATM    5  C   UNL     1     -12.071  12.010  63.676  1.00  0.00    -0.627 C  
HETATM    6  C   UNL     1     -10.779  11.741  63.442  1.00  0.00    -0.468 C  
ENDBRANCH   2   5
BRANCH   2   7
HETATM    7  C   UNL     1     -12.390  14.263  64.769  1.00  0.00    -0.440 C  
BRANCH   7   8
HETATM    8  C   UNL     1     -11.134  14.756  65.496  1.00  0.00    -0.346 C  
HETATM    9  C   UNL     1     -10.725  16.133  65.032  1.00  0.00    -0.337 C  
HETATM   10  O   UNL     1     -11.289  16.785  64.169  1.00  0.00    -1.194 OA 
HETATM   11  O   UNL     1      -9.633  16.590  65.689  1.00  0.00    -0.511 OA 
ENDBRANCH   7   8
ENDBRANCH   2   7
TORSDOF 3
ENDMDL
MODEL        7
REMARK 921   NORMALIZED FREE ENERGY PREDICTED BY IDOCK:   -3.98 KCAL/MOL
REMARK 922        TOTAL FREE ENERGY PREDICTED BY IDOCK:   -4.93 KCAL/MOL
REMARK 923 INTER-LIGAND FREE ENERGY PREDICTED BY IDOCK:   -4.79 KCAL/MOL
REMARK 924 INTRA-LIGAND FREE ENERGY PREDICTED BY IDOCK:   -0.14 KCAL/MOL
REMARK 927      BINDING AFFINITY PREDICTED BY RF-SCORE:    0.00 PKD
ROOT
HETATM    1  N   UNL     1     -12.531  15.210  63.852  1.00  0.00    -1.018 NA 
HETATM    2  C   UNL     1     -11.879  14.115  64.564  1.00  0.00    -0.436 C  
HETATM    3  H1  UNL     1     -11.998  15.457  63.018  1.00  0.00     0.000 HD 
HETATM    4  H2  UNL     1     -12.688  16.017  64.456  1.00  0.00     0.000 HD 
ENDROOT
BRANCH   2   5
HETATM    5  C   UNL     1     -11.739  12.958  63.615  1.00  0.00    -0.572 C  
HETATM    6  C   UNL     1     -12.660  11.998  63.451  1.00  0.00    -0.592 C  
ENDBRANCH   2   5
BRANCH   2   7
HETATM    7  C   UNL     1     -12.682  13.744  65.821  1.00  0.00    -0.494 C  
BRANCH   7   8
HETATM    8  C   UNL     1     -11.923  14.052  67.117  1.00  0.00    -0.465 C  
HETATM    9  C   UNL     1     -11.619  12.797  67.898  1.00  0.00    -0.351 C  
HETATM   10  O   UNL     1     -11.946  11.667  67.575  1.00  0.00    -0.622 OA 
HETATM   11  O   UNL     1     -10.924  13.055  69.030  1.00  0.00    -0.244 OA 
ENDBRANCH   7   8
ENDBRANCH   2   7
TORSDOF 3
ENDMDL
MODEL        8
REMARK 921   NORMALIZED FREE ENERGY PREDICTED BY IDOCK:   -3.95 KCAL/MOL
REMARK 922        TOTAL FREE ENERGY PREDICTED BY IDOCK:   -4.89 KCAL/MOL
REMARK 923 INTER-LIGAND FREE ENERGY PREDICTED BY IDOCK:   -4.61 KCAL/MOL
REMARK 924 INTRA-LIGAND FREE ENERGY PREDICTED BY IDOCK:   -0.28 KCAL/MOL
REMARK 927      BINDING AFFINITY PREDICTED BY RF-SCORE:    0.00 PKD
ROOT
HETATM    1  N   UNL     1     -12.993  13.427  64.934  1.00  0.00    -0.730 NA 
HETATM    2  C   UNL     1     -11.697  13.200  65.567  1.00  0.00    -0.357 C  
HETATM    3  H1  UNL     1     -13.731  12.962  65.462  1.00  0.00     0.000 HD 
HETATM    4  H2  UNL     1     -12.992  13.146  63.953  1.00  0.00     0.000 HD 
ENDROOT
BRANCH   2   5
HETATM    5  C   UNL     1     -11.777  13.691  66.985  1.00  0.00    -0.419 C  
HETATM    6  C   UNL     1     -11.638  12.911  68.066  1.00  0.00    -0.385 C  
ENDBRANCH   2   5
BRANCH   2   7
HETATM    7  C   UNL     1     -10.585  13.902  64.770  1.00  0.00    -0.444 C  
BRANCH   7   8
HETATM    8  C   UNL     1     -10.147  15.224  65.409  1.00  0.00    -0.397 C  
HETATM    9  C   UNL     1     -10.821  16.408  64.760  1.00  0.00    -0.178 C  
HETATM   10  O   UNL     1     -11.602  16.353  63.824  1.00  0.00    -1.055 OA 
HETATM   11  O   UNL     1     -10.463  17.579  65.337  1.00  0.00    -0.647 OA 
ENDBRANCH   7   8
ENDBRANCH   2   7
TORSDOF 3
ENDMDL
MODEL        9
REMARK 921   NORMALIZED FREE ENERGY PREDICTED BY IDOCK:   -3.94 KCAL/MOL
REMARK 922        TOTAL FREE ENERGY PREDICTED BY IDOCK:   -4.88 KCAL/MOL
REMARK 923 INTER-LIGAND FREE ENERGY PREDICTED BY IDOCK:   -4.63 KCAL/MOL
REMARK 924 INTRA-LIGAND FREE ENERGY PREDICTED BY IDOCK:   -0.25 KCAL/MOL
REMARK 927      BINDING AFFINITY PREDICTED BY RF-SCORE:    0.00 PKD
ROOT
HETATM    1  N   UNL     1     -11.500  16.301  63.943  1.00  0.00    -1.539 NA 
HETATM    2  C   UNL     1     -10.962  15.138  64.642  1.00  0.00    -0.303 C  
HETATM    3  H1  UNL     1     -12.251  16.019  63.313  1.00  0.00     0.000 HD 
HETATM    4  H2  UNL     1     -10.770  16.823  63.456  1.00  0.00     0.000 HD 
ENDROOT
BRANCH   2   5
HETATM    5  C   UNL     1     -12.093  14.466  65.370  1.00  0.00    -0.364 C  
HETATM    6  C   UNL     1     -12.431  13.178  65.222  1.00  0.00    -0.550 C  
ENDBRANCH   2   5
BRANCH   2   7
HETATM    7  C   UNL     1      -9.830  15.563  65.591  1.00  0.00    -0.377 C  
BRANCH   7   8
HETATM    8  C   UNL     1     -10.340  16.356  66.798  1.00  0.00    -0.293 C  
HETATM    9  C   UNL     1     -10.209  17.844  66.585  1.00  0.00    -0.371 C  
HETATM   10  O   UNL     1      -9.736  18.378  65.595  1.00  0.00    -0.408 OA 
HETATM   11  O   UNL     1     -10.684  18.555  67.634  1.00  0.00    -0.423 OA 
ENDBRANCH   7   8
ENDBRANCH   2   7
TORSDOF 3
ENDMDL
MODEL       10
REMARK 921   NORMALIZED FREE ENERGY PREDICTED BY IDOCK:   -3.89 KCAL/MOL
REMARK 922        TOTAL FREE ENERGY PREDICTED BY IDOCK:   -4.82 KCAL/MOL
REMARK 923 INTER-LIGAND FREE ENERGY PREDICTED BY IDOCK:   -4.54 KCAL/MOL
REMARK 924 INTRA-LIGAND FREE ENERGY PREDICTED BY IDOCK:   -0.28 KCAL/MOL
REMARK 927      BINDING AFFINITY PREDICTED BY RF-SCORE:    0.00 PKD
ROOT
HETATM    1  N   UNL     1     -11.531  16.234  63.911  1.00  0.00    -1.539 NA 
HETATM    2  C   UNL     1     -11.241  15.029  64.683  1.00  0.00    -0.332 C  
HETATM    3  H1  UNL     1     -11.788  15.988  62.955  1.00  0.00     0.000 HD 
HETATM    4  H2  UNL     1     -10.758  16.899  63.938  1.00  0.00     0.000 HD 
ENDROOT
BRANCH   2   5
HETATM    5  C   UNL     1     -12.451  14.138  64.630  1.00  0.00    -0.375 C  
HETATM    6  C   UNL     1     -12.454  12.844  64.977  1.00  0.00    -0.553 C  
ENDBRANCH   2   5
BRANCH   2   7
HETATM    7  C   UNL     1     -10.854  15.400  66.123  1.00  0.00    -0.313 C  
BRANCH   7   8
HETATM    8  C   UNL     1      -9.343  15.320  66.366  1.00  0.00    -0.328 C  
HETATM    9  C   UNL     1      -8.679  16.666  66.206  1.00  0.00    -0.324 C  
HETATM   10  O   UNL     1      -9.245  17.701  65.898  1.00  0.00    -0.517 OA 
HETATM   11  O   UNL     1      -7.348  16.611  66.447  1.00  0.00    -0.259 OA 
ENDBRANCH   7   8
ENDBRANCH   2   7
TORSDOF 3
ENDMDL
MODEL       11
REMARK 921   NORMALIZED FREE ENERGY PREDICTED BY IDOCK:   -3.88 KCAL/MOL
REMARK 922        TOTAL FREE ENERGY PREDICTED BY IDOCK:   -4.81 KCAL/MOL
REMARK 923 INTER-LIGAND FREE ENERGY PREDICTED BY IDOCK:   -4.73 KCAL/MOL
REMARK 924 INTRA-LIGAND FREE ENERGY PREDICTED BY IDOCK:   -0.09 KCAL/MOL
REMARK 927      BINDING AFFINITY PREDICTED BY RF-SCORE:    0.00 PKD
ROOT
HETATM    1  N   UNL     1     -11.647  16.280  63.909  1.00  0.00    -1.573 NA 
HETATM    2  C   UNL     1     -11.522  15.213  64.898  1.00  0.00    -0.374 C  
HETATM    3  H1  UNL     1     -11.256  17.149  64.275  1.00  0.00     0.000 HD 
HETATM    4  H2  UNL     1     -12.610  16.399  63.597  1.00  0.00     0.000 HD 
ENDROOT
BRANCH   2   5
HETATM    5  C   UNL     1     -10.069  15.076  65.257  1.00  0.00    -0.378 C  
HETATM    6  C   UNL     1      -9.444  15.818  66.181  1.00  0.00    -0.375 C  
ENDBRANCH   2   5
BRANCH   2   7
HETATM    7  C   UNL     1     -12.112  13.905  64.345  1.00  0.00    -0.477 C  
BRANCH   7   8
HETATM    8  C   UNL     1     -11.087  12.766  64.311  1.00  0.00    -0.410 C  
HETATM    9  C   UNL     1     -11.242  11.838  65.490  1.00  0.00    -0.258 C  
HETATM   10  O   UNL     1     -12.057  11.968  66.390  1.00  0.00    -0.610 OA 
HETATM   11  O   UNL     1     -10.361  10.812  65.454  1.00  0.00    -0.270 OA 
ENDBRANCH   7   8
ENDBRANCH   2   7
TORSDOF 3
ENDMDL
MODEL       12
REMARK 921   NORMALIZED FREE ENERGY PREDICTED BY IDOCK:   -3.81 KCAL/MOL
REMARK 922        TOTAL FREE ENERGY PREDICTED BY IDOCK:   -4.73 KCAL/MOL
REMARK 923 INTER-LIGAND FREE ENERGY PREDICTED BY IDOCK:   -4.60 KCAL/MOL
REMARK 924 INTRA-LIGAND FREE ENERGY PREDICTED BY IDOCK:   -0.13 KCAL/MOL
REMARK 927      BINDING AFFINITY PREDICTED BY RF-SCORE:    0.00 PKD
ROOT
HETATM    1  N   UNL     1     -11.565  16.268  63.832  1.00  0.00    -1.573 NA 
HETATM    2  C   UNL     1     -11.167  15.117  64.637  1.00  0.00    -0.343 C  
HETATM    3  H1  UNL     1     -11.692  15.992  62.858  1.00  0.00     0.000 HD 
HETATM    4  H2  UNL     1     -10.907  17.042  63.925  1.00  0.00     0.000 HD 
ENDROOT
BRANCH   2   5
HETATM    5  C   UNL     1     -12.217  14.052  64.480  1.00  0.00    -0.463 C  
HETATM    6  C   UNL     1     -12.120  13.010  63.642  1.00  0.00    -0.604 C  
ENDBRANCH   2   5
BRANCH   2   7
HETATM    7  C   UNL     1     -10.976  15.534  66.104  1.00  0.00    -0.247 C  
BRANCH   7   8
HETATM    8  C   UNL     1     -11.609  14.542  67.085  1.00  0.00    -0.406 C  
HETATM    9  C   UNL     1     -11.620  15.081  68.495  1.00  0.00    -0.326 C  
HETATM   10  O   UNL     1     -11.165  16.158  68.844  1.00  0.00    -0.319 OA 
HETATM   11  O   UNL     1     -12.204  14.224  69.365  1.00  0.00    -0.324 OA 
ENDBRANCH   7   8
ENDBRANCH   2   7
TORSDOF 3
ENDMDL
MODEL       13
REMARK 921   NORMALIZED FREE ENERGY PREDICTED BY IDOCK:   -3.79 KCAL/MOL
REMARK 922        TOTAL FREE ENERGY PREDICTED BY IDOCK:   -4.71 KCAL/MOL
REMARK 923 INTER-LIGAND FREE ENERGY PREDICTED BY IDOCK:   -4.36 KCAL/MOL
REMARK 924 INTRA-LIGAND FREE ENERGY PREDICTED BY IDOCK:   -0.34 KCAL/MOL
REMARK 927      BINDING AFFINITY PREDICTED BY RF-SCORE:    0.00 PKD
ROOT
HETATM    1  N   UNL     1      -9.656  12.596  65.641  1.00  0.00    -0.448 NA 
HETATM    2  C   UNL     1     -10.982  12.245  65.141  1.00  0.00    -0.303 C  
HETATM    3  H1  UNL     1      -8.972  11.899  65.347  1.00  0.00     0.000 HD 
HETATM    4  H2  UNL     1      -9.654  12.728  66.653  1.00  0.00     0.000 HD 
ENDROOT
BRANCH   2   5
HETATM    5  C   UNL     1     -10.900  12.124  63.645  1.00  0.00    -0.523 C  
HETATM    6  C   UNL     1      -9.934  11.465  62.990  1.00  0.00    -0.354 C  
ENDBRANCH   2   5
BRANCH   2   7
HETATM    7  C   UNL     1     -12.014  13.295  65.585  1.00  0.00    -0.455 C  
BRANCH   7   8
HETATM    8  C   UNL     1     -12.257  14.369  64.519  1.00  0.00    -0.483 C  
HETATM    9  C   UNL     1     -11.375  15.575  64.730  1.00  0.00    -0.357 C  
HETATM   10  O   UNL     1     -10.577  15.717  65.642  1.00  0.00    -0.334 OA 
HETATM   11  O   UNL     1     -11.562  16.518  63.777  1.00  0.00    -1.109 OA 
ENDBRANCH   7   8
ENDBRANCH   2   7
TORSDOF 3
ENDMDL
MODEL       14
REMARK 921   NORMALIZED FREE ENERGY PREDICTED BY IDOCK:   -3.74 KCAL/MOL
REMARK 922        TOTAL FREE ENERGY PREDICTED BY IDOCK:   -4.64 KCAL/MOL
REMARK 923 INTER-LIGAND FREE ENERGY PREDICTED BY IDOCK:   -4.46 KCAL/MOL
REMARK 924 INTRA-LIGAND FREE ENERGY PREDICTED BY IDOCK:   -0.18 KCAL/MOL
REMARK 927      BINDING AFFINITY PREDICTED BY RF-SCORE:    0.00 PKD
ROOT
HETATM    1  N   UNL     1     -14.126  15.464  70.763  1.00  0.00    -0.852 NA 
HETATM    2  C   UNL     1     -13.328  14.718  71.731  1.00  0.00    -0.356 C  
HETATM    3  H1  UNL     1     -15.050  15.662  71.145  1.00  0.00     0.000 HD 
HETATM    4  H2  UNL     1     -14.181  14.984  69.864  1.00  0.00     0.000 HD 
ENDROOT
BRANCH   2   5
HETATM    5  C   UNL     1     -13.258  15.522  72.999  1.00  0.00    -0.648 C  
HETATM    6  C   UNL     1     -12.437  15.253  74.023  1.00  0.00    -0.757 C  
ENDBRANCH   2   5
BRANCH   2   7
HETATM    7  C   UNL     1     -11.934  14.419  71.154  1.00  0.00    -0.383 C  
BRANCH   7   8
HETATM    8  C   UNL     1     -11.991  13.519  69.915  1.00  0.00    -0.416 C  
HETATM    9  C   UNL     1     -11.873  14.317  68.640  1.00  0.00    -0.344 C  
HETATM   10  O   UNL     1     -11.771  15.531  68.572  1.00  0.00    -0.363 OA 
HETATM   11  O   UNL     1     -11.892  13.529  67.540  1.00  0.00    -0.343 OA 
ENDBRANCH   7   8
ENDBRANCH   2   7
TORSDOF 3
ENDMDL
MODEL       15
REMARK 921   NORMALIZED FREE ENERGY PREDICTED BY IDOCK:   -3.72 KCAL/MOL
REMARK 922        TOTAL FREE ENERGY PREDICTED BY IDOCK:   -4.62 KCAL/MOL
REMARK 923 INTER-LIGAND FREE ENERGY PREDICTED BY IDOCK:   -4.34 KCAL/MOL
REMARK 924 INTRA-LIGAND FREE ENERGY PREDICTED BY IDOCK:   -0.29 KCAL/MOL
REMARK 927      BINDING AFFINITY PREDICTED BY RF-SCORE:    0.00 PKD
ROOT
HETATM    1  N   UNL     1     -12.410  14.716  63.762  1.00  0.00    -1.092 NA 
HETATM    2  C   UNL     1     -12.490  14.024  65.045  1.00  0.00    -0.425 C  
HETATM    3  H1  UNL     1     -12.505  15.723  63.897  1.00  0.00     0.000 HD 
HETATM    4  H2  UNL     1     -13.089  14.355  63.092  1.00  0.00     0.000 HD 
ENDROOT
BRANCH   2   5
HETATM    5  C   UNL     1     -11.422  14.582  65.945  1.00  0.00    -0.345 C  
HETATM    6  C   UNL     1     -10.382  15.313  65.522  1.00  0.00    -0.408 C  
ENDBRANCH   2   5
BRANCH   2   7
HETATM    7  C   UNL     1     -12.346  12.507  64.842  1.00  0.00    -0.539 C  
BRANCH   7   8
HETATM    8  C   UNL     1     -11.556  12.155  63.577  1.00  0.00    -0.562 C  
HETATM    9  C   UNL     1     -10.160  11.684  63.903  1.00  0.00    -0.357 C  
HETATM   10  O   UNL     1      -9.683  11.608  65.024  1.00  0.00    -0.238 OA 
HETATM   11  O   UNL     1      -9.463  11.343  62.794  1.00  0.00    -0.369 OA 
ENDBRANCH   7   8
ENDBRANCH   2   7
TORSDOF 3
ENDMDL
MODEL       16
REMARK 921   NORMALIZED FREE ENERGY PREDICTED BY IDOCK:   -3.70 KCAL/MOL
REMARK 922        TOTAL FREE ENERGY PREDICTED BY IDOCK:   -4.60 KCAL/MOL
REMARK 923 INTER-LIGAND FREE ENERGY PREDICTED BY IDOCK:   -4.47 KCAL/MOL
REMARK 924 INTRA-LIGAND FREE ENERGY PREDICTED BY IDOCK:   -0.13 KCAL/MOL
REMARK 927      BINDING AFFINITY PREDICTED BY RF-SCORE:    0.00 PKD
ROOT
HETATM    1  N   UNL     1     -14.391  15.368  70.842  1.00  0.00    -0.853 NA 
HETATM    2  C   UNL     1     -13.771  14.710  71.989  1.00  0.00    -0.430 C  
HETATM    3  H1  UNL     1     -15.245  15.846  71.129  1.00  0.00     0.000 HD 
HETATM    4  H2  UNL     1     -14.558  14.718  70.075  1.00  0.00     0.000 HD 
ENDROOT
BRANCH   2   5
HETATM    5  C   UNL     1     -13.514  15.750  73.043  1.00  0.00    -0.672 C  
HETATM    6  C   UNL     1     -12.545  15.671  73.965  1.00  0.00    -0.767 C  
ENDBRANCH   2   5
BRANCH   2   7
HETATM    7  C   UNL     1     -12.484  13.989  71.556  1.00  0.00    -0.407 C  
BRANCH   7   8
HETATM    8  C   UNL     1     -12.269  14.026  70.040  1.00  0.00    -0.414 C  
HETATM    9  C   UNL     1     -11.969  12.656  69.484  1.00  0.00    -0.270 C  
HETATM   10  O   UNL     1     -11.877  11.631  70.140  1.00  0.00    -0.330 OA 
HETATM   11  O   UNL     1     -11.806  12.673  68.140  1.00  0.00    -0.329 OA 
ENDBRANCH   7   8
ENDBRANCH   2   7
TORSDOF 3
ENDMDL
MODEL       17
REMARK 921   NORMALIZED FREE ENERGY PREDICTED BY IDOCK:   -3.69 KCAL/MOL
REMARK 922        TOTAL FREE ENERGY PREDICTED BY IDOCK:   -4.59 KCAL/MOL
REMARK 923 INTER-LIGAND FREE ENERGY PREDICTED BY IDOCK:   -4.37 KCAL/MOL
REMARK 924 INTRA-LIGAND FREE ENERGY PREDICTED BY IDOCK:   -0.22 KCAL/MOL
REMARK 927      BINDING AFFINITY PREDICTED BY RF-SCORE:    0.00 PKD
ROOT
HETATM    1  N   UNL     1     -14.180   8.894  73.217  1.00  0.00    -1.237 NA 
HETATM    2  C   UNL     1     -13.682   8.843  71.845  1.00  0.00    -0.439 C  
HETATM    3  H1  UNL     1     -14.999   8.296  73.318  1.00  0.00     0.000 HD 
HETATM    4  H2  UNL     1     -14.367   9.851  73.518  1.00  0.00     0.000 HD 
ENDROOT
BRANCH   2   5
HETATM    5  C   UNL     1     -13.384   7.408  71.509  1.00  0.00    -0.435 C  
HETATM    6  C   UNL     1     -12.164   6.936  71.219  1.00  0.00    -0.427 C  
ENDBRANCH   2   5
BRANCH   2   7
HETATM    7  C   UNL     1     -12.447   9.746  71.692  1.00  0.00    -0.500 C  
BRANCH   7   8
HETATM    8  C   UNL     1     -12.629  10.813  70.608  1.00  0.00    -0.446 C  
HETATM    9  C   UNL     1     -11.693  10.594  69.445  1.00  0.00    -0.273 C  
HETATM   10  O   UNL     1     -10.866   9.701  69.362  1.00  0.00    -0.224 OA 
HETATM   11  O   UNL     1     -11.866  11.515  68.469  1.00  0.00    -0.388 OA 
ENDBRANCH   7   8
ENDBRANCH   2   7
TORSDOF 3
ENDMDL
MODEL       18
REMARK 921   NORMALIZED FREE ENERGY PREDICTED BY IDOCK:   -3.66 KCAL/MOL
REMARK 922        TOTAL FREE ENERGY PREDICTED BY IDOCK:   -4.56 KCAL/MOL
REMARK 923 INTER-LIGAND FREE ENERGY PREDICTED BY IDOCK:   -4.37 KCAL/MOL
REMARK 924 INTRA-LIGAND FREE ENERGY PREDICTED BY IDOCK:   -0.19 KCAL/MOL
REMARK 927      BINDING AFFINITY PREDICTED BY RF-SCORE:    0.00 PKD
ROOT
HETATM    1  N   UNL     1     -14.198   8.938  73.124  1.00  0.00    -1.200 NA 
HETATM    2  C   UNL     1     -13.508   8.809  71.844  1.00  0.00    -0.404 C  
HETATM    3  H1  UNL     1     -15.110   8.483  73.081  1.00  0.00     0.000 HD 
HETATM    4  H2  UNL     1     -14.273   9.911  73.419  1.00  0.00     0.000 HD 
ENDROOT
BRANCH   2   5
HETATM    5  C   UNL     1     -13.398   7.345  71.518  1.00  0.00    -0.435 C  
HETATM    6  C   UNL     1     -12.281   6.748  71.080  1.00  0.00    -0.413 C  
ENDBRANCH   2   5
BRANCH   2   7
HETATM    7  C   UNL     1     -12.134   9.495  71.909  1.00  0.00    -0.409 C  
BRANCH   7   8
HETATM    8  C   UNL     1     -11.951  10.551  70.813  1.00  0.00    -0.472 C  
HETATM    9  C   UNL     1     -12.653  11.842  71.158  1.00  0.00    -0.309 C  
HETATM   10  O   UNL     1     -13.313  12.041  72.165  1.00  0.00    -0.510 OA 
HETATM   11  O   UNL     1     -12.473  12.791  70.210  1.00  0.00    -0.219 OA 
ENDBRANCH   7   8
ENDBRANCH   2   7
TORSDOF 3
ENDMDL
MODEL       19
REMARK 921   NORMALIZED FREE ENERGY PREDICTED BY IDOCK:   -3.66 KCAL/MOL
REMARK 922        TOTAL FREE ENERGY PREDICTED BY IDOCK:   -4.56 KCAL/MOL
REMARK 923 INTER-LIGAND FREE ENERGY PREDICTED BY IDOCK:   -4.44 KCAL/MOL
REMARK 924 INTRA-LIGAND FREE ENERGY PREDICTED BY IDOCK:   -0.11 KCAL/MOL
REMARK 927      BINDING AFFINITY PREDICTED BY RF-SCORE:    0.00 PKD
ROOT
HETATM    1  N   UNL     1     -11.827  11.472  67.209  1.00  0.00    -0.604 NA 
HETATM    2  C   UNL     1     -11.239  12.806  67.118  1.00  0.00    -0.292 C  
HETATM    3  H1  UNL     1     -11.220  10.854  67.747  1.00  0.00     0.000 HD 
HETATM    4  H2  UNL     1     -12.041  11.088  66.288  1.00  0.00     0.000 HD 
ENDROOT
BRANCH   2   5
HETATM    5  C   UNL     1     -11.008  13.310  68.516  1.00  0.00    -0.291 C  
HETATM    6  C   UNL     1     -11.978  13.736  69.337  1.00  0.00    -0.397 C  
ENDBRANCH   2   5
BRANCH   2   7
HETATM    7  C   UNL     1     -12.153  13.737  66.306  1.00  0.00    -0.484 C  
BRANCH   7   8
HETATM    8  C   UNL     1     -11.441  15.018  65.860  1.00  0.00    -0.224 C  
HETATM    9  C   UNL     1     -11.895  15.462  64.490  1.00  0.00    -0.256 C  
HETATM   10  O   UNL     1     -12.707  14.878  63.792  1.00  0.00    -0.754 OA 
HETATM   11  O   UNL     1     -11.293  16.609  64.099  1.00  0.00    -1.141 OA 
ENDBRANCH   7   8
ENDBRANCH   2   7
TORSDOF 3
ENDMDL
MODEL       20
REMARK 921   NORMALIZED FREE ENERGY PREDICTED BY IDOCK:   -3.65 KCAL/MOL
REMARK 922        TOTAL FREE ENERGY PREDICTED BY IDOCK:   -4.55 KCAL/MOL
REMARK 923 INTER-LIGAND FREE ENERGY PREDICTED BY IDOCK:   -4.42 KCAL/MOL
REMARK 924 INTRA-LIGAND FREE ENERGY PREDICTED BY IDOCK:   -0.12 KCAL/MOL
REMARK 927      BINDING AFFINITY PREDICTED BY RF-SCORE:    0.00 PKD
ROOT
HETATM    1  N   UNL     1     -12.183  10.906  68.371  1.00  0.00    -0.810 NA 
HETATM    2  C   UNL     1     -11.257  11.877  67.796  1.00  0.00    -0.267 C  
HETATM    3  H1  UNL     1     -12.208  11.000  69.387  1.00  0.00     0.000 HD 
HETATM    4  H2  UNL     1     -11.962   9.952  68.083  1.00  0.00     0.000 HD 
ENDROOT
BRANCH   2   5
HETATM    5  C   UNL     1     -11.691  13.249  68.230  1.00  0.00    -0.388 C  
HETATM    6  C   UNL     1     -12.028  13.576  69.485  1.00  0.00    -0.390 C  
ENDBRANCH   2   5
BRANCH   2   7
HETATM    7  C   UNL     1     -11.218  11.734  66.266  1.00  0.00    -0.370 C  
BRANCH   7   8
HETATM    8  C   UNL     1     -12.141  12.732  65.559  1.00  0.00    -0.517 C  
HETATM    9  C   UNL     1     -11.804  12.863  64.094  1.00  0.00    -0.414 C  
HETATM   10  O   UNL     1     -10.898  12.280  63.522  1.00  0.00    -0.425 OA 
HETATM   11  O   UNL     1     -12.632  13.721  63.453  1.00  0.00    -0.842 OA 
ENDBRANCH   7   8
ENDBRANCH   2   7
TORSDOF 3
ENDMDL
MODEL       21
REMARK 921   NORMALIZED FREE ENERGY PREDICTED BY IDOCK:   -3.64 KCAL/MOL
REMARK 922        TOTAL FREE ENERGY PREDICTED BY IDOCK:   -4.54 KCAL/MOL
REMARK 923 INTER-LIGAND FREE ENERGY PREDICTED BY IDOCK:   -4.42 KCAL/MOL
REMARK 924 INTRA-LIGAND FREE ENERGY PREDICTED BY IDOCK:   -0.12 KCAL/MOL
REMARK 927      BINDING AFFINITY PREDICTED BY RF-SCORE:    0.00 PKD
ROOT
HETATM    1  N   UNL     1     -12.977  11.605  62.963  1.00  0.00    -0.852 NA 
HETATM    2  C   UNL     1     -12.086  12.519  63.673  1.00  0.00    -0.554 C  
HETATM    3  H1  UNL     1     -12.704  11.535  61.983  1.00  0.00     0.000 HD 
HETATM    4  H2  UNL     1     -13.956  11.872  63.067  1.00  0.00     0.000 HD 
ENDROOT
BRANCH   2   5
HETATM    5  C   UNL     1     -10.678  12.019  63.509  1.00  0.00    -0.513 C  
HETATM    6  C   UNL     1     -10.123  11.059  64.262  1.00  0.00    -0.398 C  
ENDBRANCH   2   5
BRANCH   2   7
HETATM    7  C   UNL     1     -12.499  12.625  65.150  1.00  0.00    -0.531 C  
BRANCH   7   8
HETATM    8  C   UNL     1     -12.255  14.022  65.730  1.00  0.00    -0.475 C  
HETATM    9  C   UNL     1     -11.974  13.970  67.212  1.00  0.00    -0.413 C  
HETATM   10  O   UNL     1     -11.961  12.958  67.894  1.00  0.00    -0.349 OA 
HETATM   11  O   UNL     1     -11.729  15.196  67.729  1.00  0.00    -0.331 OA 
ENDBRANCH   7   8
ENDBRANCH   2   7
TORSDOF 3
ENDMDL
MODEL       22
REMARK 921   NORMALIZED FREE ENERGY PREDICTED BY IDOCK:   -3.64 KCAL/MOL
REMARK 922        TOTAL FREE ENERGY PREDICTED BY IDOCK:   -4.53 KCAL/MOL
REMARK 923 INTER-LIGAND FREE ENERGY PREDICTED BY IDOCK:   -4.33 KCAL/MOL
REMARK 924 INTRA-LIGAND FREE ENERGY PREDICTED BY IDOCK:   -0.20 KCAL/MOL
REMARK 927      BINDING AFFINITY PREDICTED BY RF-SCORE:    0.00 PKD
ROOT
HETATM    1  N   UNL     1     -11.314  13.803  70.037  1.00  0.00    -0.481 NA 
HETATM    2  C   UNL     1     -11.897  15.101  69.710  1.00  0.00    -0.333 C  
HETATM    3  H1  UNL     1     -10.578  13.569  69.372  1.00  0.00     0.000 HD 
HETATM    4  H2  UNL     1     -12.023  13.072  70.095  1.00  0.00     0.000 HD 
ENDROOT
BRANCH   2   5
HETATM    5  C   UNL     1     -10.792  16.121  69.701  1.00  0.00    -0.338 C  
HETATM    6  C   UNL     1     -10.655  17.081  68.776  1.00  0.00    -0.346 C  
ENDBRANCH   2   5
BRANCH   2   7
HETATM    7  C   UNL     1     -13.007  15.455  70.713  1.00  0.00    -0.510 C  
BRANCH   7   8
HETATM    8  C   UNL     1     -12.454  15.910  72.067  1.00  0.00    -0.534 C  
HETATM    9  C   UNL     1     -12.888  14.994  73.185  1.00  0.00    -0.506 C  
HETATM   10  O   UNL     1     -13.610  14.019  73.060  1.00  0.00    -0.644 OA 
HETATM   11  O   UNL     1     -12.380  15.371  74.382  1.00  0.00    -0.641 OA 
ENDBRANCH   7   8
ENDBRANCH   2   7
TORSDOF 3
ENDMDL
MODEL       23
REMARK 921   NORMALIZED FREE ENERGY PREDICTED BY IDOCK:   -3.60 KCAL/MOL
REMARK 922        TOTAL FREE ENERGY PREDICTED BY IDOCK:   -4.48 KCAL/MOL
REMARK 923 INTER-LIGAND FREE ENERGY PREDICTED BY IDOCK:   -4.34 KCAL/MOL
REMARK 924 INTRA-LIGAND FREE ENERGY PREDICTED BY IDOCK:   -0.15 KCAL/MOL
REMARK 927      BINDING AFFINITY PREDICTED BY RF-SCORE:    0.00 PKD
ROOT
HETATM    1  N   UNL     1     -11.961  15.265  68.299  1.00  0.00    -0.529 NA 
HETATM    2  C   UNL     1     -11.758  14.693  69.627  1.00  0.00    -0.313 C  
HETATM    3  H1  UNL     1     -11.298  14.863  67.637  1.00  0.00     0.000 HD 
HETATM    4  H2  UNL     1     -11.915  16.284  68.313  1.00  0.00     0.000 HD 
ENDROOT
BRANCH   2   5
HETATM    5  C   UNL     1     -11.897  13.200  69.519  1.00  0.00    -0.383 C  
HETATM    6  C   UNL     1     -12.269  12.399  70.527  1.00  0.00    -0.382 C  
ENDBRANCH   2   5
BRANCH   2   7
HETATM    7  C   UNL     1     -12.757  15.300  70.626  1.00  0.00    -0.470 C  
BRANCH   7   8
HETATM    8  C   UNL     1     -12.101  15.678  71.959  1.00  0.00    -0.529 C  
HETATM    9  C   UNL     1     -12.779  15.005  73.127  1.00  0.00    -0.486 C  
HETATM   10  O   UNL     1     -13.748  14.267  73.052  1.00  0.00    -0.613 OA 
HETATM   11  O   UNL     1     -12.189  15.310  74.306  1.00  0.00    -0.630 OA 
ENDBRANCH   7   8
ENDBRANCH   2   7
TORSDOF 3
ENDMDL
MODEL       24
REMARK 921   NORMALIZED FREE ENERGY PREDICTED BY IDOCK:   -3.58 KCAL/MOL
REMARK 922        TOTAL FREE ENERGY PREDICTED BY IDOCK:   -4.46 KCAL/MOL
REMARK 923 INTER-LIGAND FREE ENERGY PREDICTED BY IDOCK:   -4.36 KCAL/MOL
REMARK 924 INTRA-LIGAND FREE ENERGY PREDICTED BY IDOCK:   -0.10 KCAL/MOL
REMARK 927      BINDING AFFINITY PREDICTED BY RF-SCORE:    0.00 PKD
ROOT
HETATM    1  N   UNL     1     -11.632  12.844  69.805  1.00  0.00    -0.477 NA 
HETATM    2  C   UNL     1     -11.308  13.728  68.689  1.00  0.00    -0.287 C  
HETATM    3  H1  UNL     1     -11.192  13.181  70.662  1.00  0.00     0.000 HD 
HETATM    4  H2  UNL     1     -11.386  11.875  69.606  1.00  0.00     0.000 HD 
ENDROOT
BRANCH   2   5
HETATM    5  C   UNL     1     -11.753  15.118  69.050  1.00  0.00    -0.358 C  
HETATM    6  C   UNL     1     -11.444  15.739  70.197  1.00  0.00    -0.366 C  
ENDBRANCH   2   5
BRANCH   2   7
HETATM    7  C   UNL     1     -11.970  13.221  67.399  1.00  0.00    -0.383 C  
BRANCH   7   8
HETATM    8  C   UNL     1     -11.966  14.271  66.283  1.00  0.00    -0.428 C  
HETATM    9  C   UNL     1     -12.599  13.745  65.018  1.00  0.00    -0.389 C  
HETATM   10  O   UNL     1     -13.043  12.619  64.865  1.00  0.00    -0.850 OA 
HETATM   11  O   UNL     1     -12.626  14.674  64.035  1.00  0.00    -0.819 OA 
ENDBRANCH   7   8
ENDBRANCH   2   7
TORSDOF 3
ENDMDL
MODEL       25
REMARK 921   NORMALIZED FREE ENERGY PREDICTED BY IDOCK:   -3.57 KCAL/MOL
REMARK 922        TOTAL FREE ENERGY PREDICTED BY IDOCK:   -4.45 KCAL/MOL
REMARK 923 INTER-LIGAND FREE ENERGY PREDICTED BY IDOCK:   -4.28 KCAL/MOL
REMARK 924 INTRA-LIGAND FREE ENERGY PREDICTED BY IDOCK:   -0.18 KCAL/MOL
REMARK 927      BINDING AFFINITY PREDICTED BY RF-SCORE:    0.00 PKD
ROOT
HETATM    1  N   UNL     1     -14.355  14.992  71.126  1.00  0.00    -0.692 NA 
HETATM    2  C   UNL     1     -13.274  14.601  72.027  1.00  0.00    -0.351 C  
HETATM    3  H1  UNL     1     -15.231  15.077  71.641  1.00  0.00     0.000 HD 
HETATM    4  H2  UNL     1     -14.439  14.354  70.334  1.00  0.00     0.000 HD 
ENDROOT
BRANCH   2   5
HETATM    5  C   UNL     1     -13.191  15.622  73.127  1.00  0.00    -0.674 C  
HETATM    6  C   UNL     1     -12.465  15.475  74.244  1.00  0.00    -0.792 C  
ENDBRANCH   2   5
BRANCH   2   7
HETATM    7  C   UNL     1     -11.954  14.473  71.251  1.00  0.00    -0.396 C  
BRANCH   7   8
HETATM    8  C   UNL     1     -11.440  15.822  70.736  1.00  0.00    -0.423 C  
HETATM    9  C   UNL     1     -11.391  15.862  69.228  1.00  0.00    -0.355 C  
HETATM   10  O   UNL     1     -11.692  14.942  68.486  1.00  0.00    -0.306 OA 
HETATM   11  O   UNL     1     -10.966  17.060  68.762  1.00  0.00    -0.289 OA 
ENDBRANCH   7   8
ENDBRANCH   2   7
TORSDOF 3
ENDMDL
MODEL       26
REMARK 921   NORMALIZED FREE ENERGY PREDICTED BY IDOCK:   -3.57 KCAL/MOL
REMARK 922        TOTAL FREE ENERGY PREDICTED BY IDOCK:   -4.45 KCAL/MOL
REMARK 923 INTER-LIGAND FREE ENERGY PREDICTED BY IDOCK:   -4.22 KCAL/MOL
REMARK 924 INTRA-LIGAND FREE ENERGY PREDICTED BY IDOCK:   -0.23 KCAL/MOL
REMARK 927      BINDING AFFINITY PREDICTED BY RF-SCORE:    0.00 PKD
ROOT
HETATM    1  N   UNL     1     -12.373  13.914  63.080  1.00  0.00    -1.106 NA 
HETATM    2  C   UNL     1     -12.105  12.673  63.801  1.00  0.00    -0.522 C  
HETATM    3  H1  UNL     1     -13.371  14.128  63.103  1.00  0.00     0.000 HD 
HETATM    4  H2  UNL     1     -12.011  13.886  62.127  1.00  0.00     0.000 HD 
ENDROOT
BRANCH   2   5
HETATM    5  C   UNL     1     -12.624  12.827  65.204  1.00  0.00    -0.513 C  
HETATM    6  C   UNL     1     -12.203  13.759  66.070  1.00  0.00    -0.495 C  
ENDBRANCH   2   5
BRANCH   2   7
HETATM    7  C   UNL     1     -10.603  12.352  63.768  1.00  0.00    -0.486 C  
BRANCH   7   8
HETATM    8  C   UNL     1     -10.317  10.854  63.915  1.00  0.00    -0.397 C  
HETATM    9  C   UNL     1      -9.769  10.521  65.281  1.00  0.00    -0.270 C  
HETATM   10  O   UNL     1      -9.545  11.328  66.169  1.00  0.00    -0.200 OA 
HETATM   11  O   UNL     1      -9.540   9.196  65.431  1.00  0.00    -0.231 OA 
ENDBRANCH   7   8
ENDBRANCH   2   7
TORSDOF 3
ENDMDL
MODEL       27
REMARK 921   NORMALIZED FREE ENERGY PREDICTED BY IDOCK:   -3.57 KCAL/MOL
REMARK 922        TOTAL FREE ENERGY PREDICTED BY IDOCK:   -4.44 KCAL/MOL
REMARK 923 INTER-LIGAND FREE ENERGY PREDICTED BY IDOCK:   -4.28 KCAL/MOL
REMARK 924 INTRA-LIGAND FREE ENERGY PREDICTED BY IDOCK:   -0.16 KCAL/MOL
REMARK 927      BINDING AFFINITY PREDICTED BY RF-SCORE:    0.00 PKD
ROOT
HETATM    1  N   UNL     1     -13.994   8.854  73.179  1.00  0.00    -1.215 NA 
HETATM    2  C   UNL     1     -12.845   8.630  72.306  1.00  0.00    -0.383 C  
HETATM    3  H1  UNL     1     -13.901   9.747  73.663  1.00  0.00     0.000 HD 
HETATM    4  H2  UNL     1     -14.133   8.081  73.830  1.00  0.00     0.000 HD 
ENDROOT
BRANCH   2   5
HETATM    5  C   UNL     1     -12.752   9.787  71.351  1.00  0.00    -0.483 C  
HETATM    6  C   UNL     1     -11.606  10.250  70.833  1.00  0.00    -0.454 C  
ENDBRANCH   2   5
BRANCH   2   7
HETATM    7  C   UNL     1     -12.985   7.283  71.578  1.00  0.00    -0.434 C  
BRANCH   7   8
HETATM    8  C   UNL     1     -11.776   6.367  71.798  1.00  0.00    -0.376 C  
HETATM    9  C   UNL     1     -11.114   5.993  70.494  1.00  0.00    -0.314 C  
HETATM   10  O   UNL     1     -11.488   6.340  69.386  1.00  0.00    -0.427 OA 
HETATM   11  O   UNL     1     -10.028   5.207  70.679  1.00  0.00    -0.194 OA 
ENDBRANCH   7   8
ENDBRANCH   2   7
TORSDOF 3
ENDMDL
MODEL       28
REMARK 921   NORMALIZED FREE ENERGY PREDICTED BY IDOCK:   -3.56 KCAL/MOL
REMARK 922        TOTAL FREE ENERGY PREDICTED BY IDOCK:   -4.44 KCAL/MOL
REMARK 923 INTER-LIGAND FREE ENERGY PREDICTED BY IDOCK:   -4.27 KCAL/MOL
REMARK 924 INTRA-LIGAND FREE ENERGY PREDICTED BY IDOCK:   -0.17 KCAL/MOL
REMARK 927      BINDING AFFINITY PREDICTED BY RF-SCORE:    0.00 PKD
ROOT
HETATM    1  N   UNL     1     -12.387  14.785  68.430  1.00  0.00    -0.593 NA 
HETATM    2  C   UNL     1     -11.650  14.385  67.236  1.00  0.00    -0.379 C  
HETATM    3  H1  UNL     1     -11.741  15.083  69.161  1.00  0.00     0.000 HD 
HETATM    4  H2  UNL     1     -13.015  14.050  68.754  1.00  0.00     0.000 HD 
ENDROOT
BRANCH   2   5
HETATM    5  C   UNL     1     -10.796  15.544  66.803  1.00  0.00    -0.291 C  
HETATM    6  C   UNL     1     -10.519  15.846  65.527  1.00  0.00    -0.425 C  
ENDBRANCH   2   5
BRANCH   2   7
HETATM    7  C   UNL     1     -12.623  13.935  66.135  1.00  0.00    -0.426 C  
BRANCH   7   8
HETATM    8  C   UNL     1     -12.177  12.642  65.445  1.00  0.00    -0.517 C  
HETATM    9  C   UNL     1     -12.108  12.802  63.946  1.00  0.00    -0.486 C  
HETATM   10  O   UNL     1     -12.392  13.816  63.330  1.00  0.00    -0.750 OA 
HETATM   11  O   UNL     1     -11.686  11.673  63.330  1.00  0.00    -0.402 OA 
ENDBRANCH   7   8
ENDBRANCH   2   7
TORSDOF 3
ENDMDL
MODEL       29
REMARK 921   NORMALIZED FREE ENERGY PREDICTED BY IDOCK:   -3.55 KCAL/MOL
REMARK 922        TOTAL FREE ENERGY PREDICTED BY IDOCK:   -4.42 KCAL/MOL
REMARK 923 INTER-LIGAND FREE ENERGY PREDICTED BY IDOCK:   -4.25 KCAL/MOL
REMARK 924 INTRA-LIGAND FREE ENERGY PREDICTED BY IDOCK:   -0.18 KCAL/MOL
REMARK 927      BINDING AFFINITY PREDICTED BY RF-SCORE:    0.00 PKD
ROOT
HETATM    1  N   UNL     1      -9.988  10.145  62.454  1.00  0.00    -0.658 NA 
HETATM    2  C   UNL     1      -9.479  10.613  63.740  1.00  0.00    -0.290 C  
HETATM    3  H1  UNL     1      -9.226   9.772  61.887  1.00  0.00     0.000 HD 
HETATM    4  H2  UNL     1     -10.507  10.873  61.963  1.00  0.00     0.000 HD 
ENDROOT
BRANCH   2   5
HETATM    5  C   UNL     1      -8.779   9.464  64.411  1.00  0.00    -0.227 C  
HETATM    6  C   UNL     1      -9.201   8.874  65.538  1.00  0.00    -0.242 C  
ENDBRANCH   2   5
BRANCH   2   7
HETATM    7  C   UNL     1     -10.626  11.175  64.594  1.00  0.00    -0.386 C  
BRANCH   7   8
HETATM    8  C   UNL     1     -10.893  12.659  64.319  1.00  0.00    -0.411 C  
HETATM    9  C   UNL     1     -12.208  12.869  63.610  1.00  0.00    -0.499 C  
HETATM   10  O   UNL     1     -12.973  11.984  63.262  1.00  0.00    -0.736 OA 
HETATM   11  O   UNL     1     -12.466  14.179  63.388  1.00  0.00    -0.797 OA 
ENDBRANCH   7   8
ENDBRANCH   2   7
TORSDOF 3
ENDMDL
MODEL       30
REMARK 921   NORMALIZED FREE ENERGY PREDICTED BY IDOCK:   -3.54 KCAL/MOL
REMARK 922        TOTAL FREE ENERGY PREDICTED BY IDOCK:   -4.41 KCAL/MOL
REMARK 923 INTER-LIGAND FREE ENERGY PREDICTED BY IDOCK:   -4.17 KCAL/MOL
REMARK 924 INTRA-LIGAND FREE ENERGY PREDICTED BY IDOCK:   -0.25 KCAL/MOL
REMARK 927      BINDING AFFINITY PREDICTED BY RF-SCORE:    0.00 PKD
ROOT
HETATM    1  N   UNL     1     -12.040  12.845  70.518  1.00  0.00    -0.497 NA 
HETATM    2  C   UNL     1     -12.665  12.467  71.782  1.00  0.00    -0.144 C  
HETATM    3  H1  UNL     1     -11.337  12.156  70.252  1.00  0.00     0.000 HD 
HETATM    4  H2  UNL     1     -11.654  13.789  70.552  1.00  0.00     0.000 HD 
ENDROOT
BRANCH   2   5
HETATM    5  C   UNL     1     -13.249  11.091  71.622  1.00  0.00    -0.461 C  
HETATM    6  C   UNL     1     -12.526   9.964  71.556  1.00  0.00    -0.506 C  
ENDBRANCH   2   5
BRANCH   2   7
HETATM    7  C   UNL     1     -13.725  13.505  72.184  1.00  0.00    -0.654 C  
BRANCH   7   8
HETATM    8  C   UNL     1     -13.156  14.611  73.080  1.00  0.00    -0.616 C  
HETATM    9  C   UNL     1     -12.603  15.758  72.269  1.00  0.00    -0.448 C  
HETATM   10  O   UNL     1     -12.576  15.814  71.051  1.00  0.00    -0.451 OA 
HETATM   11  O   UNL     1     -12.124  16.753  73.052  1.00  0.00    -0.389 OA 
ENDBRANCH   7   8
ENDBRANCH   2   7
TORSDOF 3
ENDMDL
MODEL       31
REMARK 921   NORMALIZED FREE ENERGY PREDICTED BY IDOCK:   -3.53 KCAL/MOL
REMARK 922        TOTAL FREE ENERGY PREDICTED BY IDOCK:   -4.41 KCAL/MOL
REMARK 923 INTER-LIGAND FREE ENERGY PREDICTED BY IDOCK:   -4.35 KCAL/MOL
REMARK 924 INTRA-LIGAND FREE ENERGY PREDICTED BY IDOCK:   -0.06 KCAL/MOL
REMARK 927      BINDING AFFINITY PREDICTED BY RF-SCORE:    0.00 PKD
ROOT
HETATM    1  N   UNL     1     -10.653  13.811  69.242  1.00  0.00    -0.440 NA 
HETATM    2  C   UNL     1     -11.814  12.996  68.896  1.00  0.00    -0.316 C  
HETATM    3  H1  UNL     1     -10.661  14.033  70.238  1.00  0.00     0.000 HD 
HETATM    4  H2  UNL     1     -10.591  14.650  68.666  1.00  0.00     0.000 HD 
ENDROOT
BRANCH   2   5
HETATM    5  C   UNL     1     -11.792  11.762  69.754  1.00  0.00    -0.420 C  
HETATM    6  C   UNL     1     -12.374  11.666  70.958  1.00  0.00    -0.405 C  
ENDBRANCH   2   5
BRANCH   2   7
HETATM    7  C   UNL     1     -11.802  12.663  67.395  1.00  0.00    -0.393 C  
BRANCH   7   8
HETATM    8  C   UNL     1     -11.817  13.915  66.513  1.00  0.00    -0.440 C  
HETATM    9  C   UNL     1     -12.534  13.670  65.207  1.00  0.00    -0.479 C  
HETATM   10  O   UNL     1     -13.026  12.610  64.859  1.00  0.00    -0.830 OA 
HETATM   11  O   UNL     1     -12.578  14.779  64.433  1.00  0.00    -0.626 OA 
ENDBRANCH   7   8
ENDBRANCH   2   7
TORSDOF 3
ENDMDL
MODEL       32
REMARK 921   NORMALIZED FREE ENERGY PREDICTED BY IDOCK:   -3.53 KCAL/MOL
REMARK 922        TOTAL FREE ENERGY PREDICTED BY IDOCK:   -4.40 KCAL/MOL
REMARK 923 INTER-LIGAND FREE ENERGY PREDICTED BY IDOCK:   -4.27 KCAL/MOL
REMARK 924 INTRA-LIGAND FREE ENERGY PREDICTED BY IDOCK:   -0.14 KCAL/MOL
REMARK 927      BINDING AFFINITY PREDICTED BY RF-SCORE:    0.00 PKD
ROOT
HETATM    1  N   UNL     1     -12.404  14.895  63.660  1.00  0.00    -1.053 NA 
HETATM    2  C   UNL     1     -11.790  13.991  64.628  1.00  0.00    -0.417 C  
HETATM    3  H1  UNL     1     -11.818  14.976  62.830  1.00  0.00     0.000 HD 
HETATM    4  H2  UNL     1     -12.612  15.806  64.069  1.00  0.00     0.000 HD 
ENDROOT
BRANCH   2   5
HETATM    5  C   UNL     1     -11.571  12.665  63.955  1.00  0.00    -0.521 C  
HETATM    6  C   UNL     1     -12.488  12.032  63.211  1.00  0.00    -0.544 C  
ENDBRANCH   2   5
BRANCH   2   7
HETATM    7  C   UNL     1     -12.674  13.870  65.879  1.00  0.00    -0.466 C  
BRANCH   7   8
HETATM    8  C   UNL     1     -11.905  13.342  67.095  1.00  0.00    -0.424 C  
HETATM    9  C   UNL     1     -11.388  14.465  67.961  1.00  0.00    -0.294 C  
HETATM   10  O   UNL     1     -11.528  15.655  67.732  1.00  0.00    -0.307 OA 
HETATM   11  O   UNL     1     -10.732  14.008  69.053  1.00  0.00    -0.240 OA 
ENDBRANCH   7   8
ENDBRANCH   2   7
TORSDOF 3
ENDMDL
MODEL       33
REMARK 921   NORMALIZED FREE ENERGY PREDICTED BY IDOCK:   -3.52 KCAL/MOL
REMARK 922        TOTAL FREE ENERGY PREDICTED BY IDOCK:   -4.39 KCAL/MOL
REMARK 923 INTER-LIGAND FREE ENERGY PREDICTED BY IDOCK:   -4.29 KCAL/MOL
REMARK 924 INTRA-LIGAND FREE ENERGY PREDICTED BY IDOCK:   -0.10 KCAL/MOL
REMARK 927      BINDING AFFINITY PREDICTED BY RF-SCORE:    0.00 PKD
ROOT
HETATM    1  N   UNL     1     -11.701  11.409  66.991  1.00  0.00    -0.508 NA 
HETATM    2  C   UNL     1     -11.384  12.186  65.796  1.00  0.00    -0.354 C  
HETATM    3  H1  UNL     1     -11.749  10.416  66.764  1.00  0.00     0.000 HD 
HETATM    4  H2  UNL     1     -12.555  11.738  67.442  1.00  0.00     0.000 HD 
ENDROOT
BRANCH   2   5
HETATM    5  C   UNL     1     -10.090  11.668  65.232  1.00  0.00    -0.305 C  
HETATM    6  C   UNL     1     -10.001  10.802  64.212  1.00  0.00    -0.403 C  
ENDBRANCH   2   5
BRANCH   2   7
HETATM    7  C   UNL     1     -11.312  13.683  66.138  1.00  0.00    -0.324 C  
BRANCH   7   8
HETATM    8  C   UNL     1     -11.980  14.562  65.075  1.00  0.00    -0.399 C  
HETATM    9  C   UNL     1     -11.190  15.821  64.813  1.00  0.00    -0.366 C  
HETATM   10  O   UNL     1     -10.157  16.138  65.381  1.00  0.00    -0.485 OA 
HETATM   11  O   UNL     1     -11.756  16.591  63.855  1.00  0.00    -1.148 OA 
ENDBRANCH   7   8
ENDBRANCH   2   7
TORSDOF 3
ENDMDL
MODEL       34
REMARK 921   NORMALIZED FREE ENERGY PREDICTED BY IDOCK:   -3.50 KCAL/MOL
REMARK 922        TOTAL FREE ENERGY PREDICTED BY IDOCK:   -4.37 KCAL/MOL
REMARK 923 INTER-LIGAND FREE ENERGY PREDICTED BY IDOCK:   -4.12 KCAL/MOL
REMARK 924 INTRA-LIGAND FREE ENERGY PREDICTED BY IDOCK:   -0.24 KCAL/MOL
REMARK 927      BINDING AFFINITY PREDICTED BY RF-SCORE:    0.00 PKD
ROOT
HETATM    1  N   UNL     1      -9.238  13.709  66.062  1.00  0.00    -0.491 NA 
HETATM    2  C   UNL     1      -9.849  14.988  65.714  1.00  0.00    -0.353 C  
HETATM    3  H1  UNL     1      -8.227  13.752  65.929  1.00  0.00     0.000 HD 
HETATM    4  H2  UNL     1      -9.657  12.935  65.548  1.00  0.00     0.000 HD 
ENDROOT
BRANCH   2   5
HETATM    5  C   UNL     1      -9.208  16.057  66.556  1.00  0.00    -0.307 C  
HETATM    6  C   UNL     1      -8.199  16.839  66.148  1.00  0.00    -0.300 C  
ENDBRANCH   2   5
BRANCH   2   7
HETATM    7  C   UNL     1     -11.371  14.924  65.915  1.00  0.00    -0.306 C  
BRANCH   7   8
HETATM    8  C   UNL     1     -12.096  14.290  64.724  1.00  0.00    -0.457 C  
HETATM    9  C   UNL     1     -12.447  12.846  64.987  1.00  0.00    -0.492 C  
HETATM   10  O   UNL     1     -12.177  12.226  66.002  1.00  0.00    -0.646 OA 
HETATM   11  O   UNL     1     -13.114  12.285  63.951  1.00  0.00    -0.772 OA 
ENDBRANCH   7   8
ENDBRANCH   2   7
TORSDOF 3
ENDMDL
MODEL       35
REMARK 921   NORMALIZED FREE ENERGY PREDICTED BY IDOCK:   -3.44 KCAL/MOL
REMARK 922        TOTAL FREE ENERGY PREDICTED BY IDOCK:   -4.29 KCAL/MOL
REMARK 923 INTER-LIGAND FREE ENERGY PREDICTED BY IDOCK:   -4.19 KCAL/MOL
REMARK 924 INTRA-LIGAND FREE ENERGY PREDICTED BY IDOCK:   -0.10 KCAL/MOL
REMARK 927      BINDING AFFINITY PREDICTED BY RF-SCORE:    0.00 PKD
ROOT
HETATM    1  N   UNL     1     -12.272  10.786  68.644  1.00  0.00    -0.827 NA 
HETATM    2  C   UNL     1     -11.266  11.106  67.635  1.00  0.00    -0.297 C  
HETATM    3  H1  UNL     1     -12.034   9.913  69.116  1.00  0.00     0.000 HD 
HETATM    4  H2  UNL     1     -13.212  10.762  68.250  1.00  0.00     0.000 HD 
ENDROOT
BRANCH   2   5
HETATM    5  C   UNL     1      -9.927  11.172  68.314  1.00  0.00    -0.196 C  
HETATM    6  C   UNL     1      -8.890  10.374  68.024  1.00  0.00    -0.130 C  
ENDBRANCH   2   5
BRANCH   2   7
HETATM    7  C   UNL     1     -11.625  12.421  66.925  1.00  0.00    -0.437 C  
BRANCH   7   8
HETATM    8  C   UNL     1     -11.589  12.294  65.398  1.00  0.00    -0.412 C  
HETATM    9  C   UNL     1     -12.518  13.281  64.733  1.00  0.00    -0.383 C  
HETATM   10  O   UNL     1     -13.239  14.075  65.314  1.00  0.00    -0.782 OA 
HETATM   11  O   UNL     1     -12.472  13.196  63.383  1.00  0.00    -0.730 OA 
ENDBRANCH   7   8
ENDBRANCH   2   7
TORSDOF 3
ENDMDL
MODEL       36
REMARK 921   NORMALIZED FREE ENERGY PREDICTED BY IDOCK:   -3.41 KCAL/MOL
REMARK 922        TOTAL FREE ENERGY PREDICTED BY IDOCK:   -4.26 KCAL/MOL
REMARK 923 INTER-LIGAND FREE ENERGY PREDICTED BY IDOCK:   -4.01 KCAL/MOL
REMARK 924 INTRA-LIGAND FREE ENERGY PREDICTED BY IDOCK:   -0.25 KCAL/MOL
REMARK 927      BINDING AFFINITY PREDICTED BY RF-SCORE:    0.00 PKD
ROOT
HETATM    1  N   UNL     1     -13.184  13.907  65.198  1.00  0.00    -0.690 NA 
HETATM    2  C   UNL     1     -11.997  14.122  64.376  1.00  0.00    -0.457 C  
HETATM    3  H1  UNL     1     -14.016  13.855  64.611  1.00  0.00     0.000 HD 
HETATM    4  H2  UNL     1     -13.276  14.616  65.926  1.00  0.00     0.000 HD 
ENDROOT
BRANCH   2   5
HETATM    5  C   UNL     1     -11.916  13.005  63.372  1.00  0.00    -0.592 C  
HETATM    6  C   UNL     1     -12.631  11.874  63.439  1.00  0.00    -0.555 C  
ENDBRANCH   2   5
BRANCH   2   7
HETATM    7  C   UNL     1     -10.743  14.201  65.261  1.00  0.00    -0.374 C  
BRANCH   7   8
HETATM    8  C   UNL     1     -10.424  15.632  65.704  1.00  0.00    -0.402 C  
HETATM    9  C   UNL     1     -10.907  15.903  67.108  1.00  0.00    -0.267 C  
HETATM   10  O   UNL     1     -11.503  15.109  67.817  1.00  0.00    -0.325 OA 
HETATM   11  O   UNL     1     -10.604  17.156  67.520  1.00  0.00    -0.347 OA 
ENDBRANCH   7   8
ENDBRANCH   2   7
TORSDOF 3
ENDMDL
MODEL       37
REMARK 921   NORMALIZED FREE ENERGY PREDICTED BY IDOCK:   -3.38 KCAL/MOL
REMARK 922        TOTAL FREE ENERGY PREDICTED BY IDOCK:   -4.22 KCAL/MOL
REMARK 923 INTER-LIGAND FREE ENERGY PREDICTED BY IDOCK:   -4.15 KCAL/MOL
REMARK 924 INTRA-LIGAND FREE ENERGY PREDICTED BY IDOCK:   -0.07 KCAL/MOL
REMARK 927      BINDING AFFINITY PREDICTED BY RF-SCORE:    0.00 PKD
ROOT
HETATM    1  N   UNL     1     -14.191  15.359  70.919  1.00  0.00    -0.857 NA 
HETATM    2  C   UNL     1     -13.122  14.738  71.697  1.00  0.00    -0.337 C  
HETATM    3  H1  UNL     1     -14.402  16.286  71.286  1.00  0.00     0.000 HD 
HETATM    4  H2  UNL     1     -15.021  14.768  70.875  1.00  0.00     0.000 HD 
ENDROOT
BRANCH   2   5
HETATM    5  C   UNL     1     -11.928  15.650  71.661  1.00  0.00    -0.503 C  
HETATM    6  C   UNL     1     -11.349  16.097  70.538  1.00  0.00    -0.392 C  
ENDBRANCH   2   5
BRANCH   2   7
HETATM    7  C   UNL     1     -12.804  13.340  71.143  1.00  0.00    -0.363 C  
BRANCH   7   8
HETATM    8  C   UNL     1     -13.279  12.217  72.070  1.00  0.00    -0.496 C  
HETATM    9  C   UNL     1     -13.007  10.854  71.483  1.00  0.00    -0.451 C  
HETATM   10  O   UNL     1     -12.496  10.642  70.396  1.00  0.00    -0.317 OA 
HETATM   11  O   UNL     1     -13.397   9.854  72.308  1.00  0.00    -0.435 OA 
ENDBRANCH   7   8
ENDBRANCH   2   7
TORSDOF 3
ENDMDL
MODEL       38
REMARK 921   NORMALIZED FREE ENERGY PREDICTED BY IDOCK:   -3.37 KCAL/MOL
REMARK 922        TOTAL FREE ENERGY PREDICTED BY IDOCK:   -4.21 KCAL/MOL
REMARK 923 INTER-LIGAND FREE ENERGY PREDICTED BY IDOCK:   -4.01 KCAL/MOL
REMARK 924 INTRA-LIGAND FREE ENERGY PREDICTED BY IDOCK:   -0.20 KCAL/MOL
REMARK 927      BINDING AFFINITY PREDICTED BY RF-SCORE:    0.00 PKD
ROOT
HETATM    1  N   UNL     1      -8.903  13.475  66.272  1.00  0.00    -0.436 NA 
HETATM    2  C   UNL     1      -9.815  14.232  67.125  1.00  0.00    -0.252 C  
HETATM    3  H1  UNL     1      -8.285  12.896  66.842  1.00  0.00     0.000 HD 
HETATM    4  H2  UNL     1      -8.381  14.082  65.641  1.00  0.00     0.000 HD 
ENDROOT
BRANCH   2   5
HETATM    5  C   UNL     1     -10.576  13.255  67.978  1.00  0.00    -0.249 C  
HETATM    6  C   UNL     1     -11.333  13.598  69.029  1.00  0.00    -0.333 C  
ENDBRANCH   2   5
BRANCH   2   7
HETATM    7  C   UNL     1     -10.746  15.104  66.266  1.00  0.00    -0.320 C  
BRANCH   7   8
HETATM    8  C   UNL     1     -10.882  14.584  64.831  1.00  0.00    -0.436 C  
HETATM    9  C   UNL     1     -12.285  14.114  64.538  1.00  0.00    -0.445 C  
HETATM   10  O   UNL     1     -13.211  14.112  65.332  1.00  0.00    -0.741 OA 
HETATM   11  O   UNL     1     -12.423  13.680  63.263  1.00  0.00    -0.801 OA 
ENDBRANCH   7   8
ENDBRANCH   2   7
TORSDOF 3
ENDMDL
MODEL       39
REMARK 921   NORMALIZED FREE ENERGY PREDICTED BY IDOCK:   -3.36 KCAL/MOL
REMARK 922        TOTAL FREE ENERGY PREDICTED BY IDOCK:   -4.21 KCAL/MOL
REMARK 923 INTER-LIGAND FREE ENERGY PREDICTED BY IDOCK:   -3.94 KCAL/MOL
REMARK 924 INTRA-LIGAND FREE ENERGY PREDICTED BY IDOCK:   -0.27 KCAL/MOL
REMARK 927      BINDING AFFINITY PREDICTED BY RF-SCORE:    0.00 PKD
ROOT
HETATM    1  N   UNL     1     -12.610  13.803  67.369  1.00  0.00    -0.270 NA 
HETATM    2  C   UNL     1     -11.158  13.717  67.486  1.00  0.00    -0.278 C  
HETATM    3  H1  UNL     1     -13.043  13.753  68.291  1.00  0.00     0.000 HD 
HETATM    4  H2  UNL     1     -12.983  13.096  66.735  1.00  0.00     0.000 HD 
ENDROOT
BRANCH   2   5
HETATM    5  C   UNL     1     -10.696  14.825  68.392  1.00  0.00    -0.243 C  
HETATM    6  C   UNL     1     -11.328  15.997  68.538  1.00  0.00    -0.382 C  
ENDBRANCH   2   5
BRANCH   2   7
HETATM    7  C   UNL     1     -10.506  13.792  66.096  1.00  0.00    -0.297 C  
BRANCH   7   8
HETATM    8  C   UNL     1     -11.411  14.461  65.056  1.00  0.00    -0.373 C  
HETATM    9  C   UNL     1     -11.003  15.891  64.798  1.00  0.00    -0.375 C  
HETATM   10  O   UNL     1     -10.086  16.476  65.352  1.00  0.00    -0.570 OA 
HETATM   11  O   UNL     1     -11.778  16.483  63.860  1.00  0.00    -1.148 OA 
ENDBRANCH   7   8
ENDBRANCH   2   7
TORSDOF 3
ENDMDL
MODEL       40
REMARK 921   NORMALIZED FREE ENERGY PREDICTED BY IDOCK:   -3.36 KCAL/MOL
REMARK 922        TOTAL FREE ENERGY PREDICTED BY IDOCK:   -4.20 KCAL/MOL
REMARK 923 INTER-LIGAND FREE ENERGY PREDICTED BY IDOCK:   -4.07 KCAL/MOL
REMARK 924 INTRA-LIGAND FREE ENERGY PREDICTED BY IDOCK:   -0.13 KCAL/MOL
REMARK 927      BINDING AFFINITY PREDICTED BY RF-SCORE:    0.00 PKD
ROOT
HETATM    1  N   UNL     1     -11.276   8.700  70.060  1.00  0.00    -0.424 NA 
HETATM    2  C   UNL     1     -11.590   9.539  71.212  1.00  0.00    -0.374 C  
HETATM    3  H1  UNL     1     -10.900   7.803  70.367  1.00  0.00     0.000 HD 
HETATM    4  H2  UNL     1     -10.651   9.171  69.406  1.00  0.00     0.000 HD 
ENDROOT
BRANCH   2   5
HETATM    5  C   UNL     1     -12.554   8.789  72.088  1.00  0.00    -0.463 C  
HETATM    6  C   UNL     1     -13.121   7.619  71.762  1.00  0.00    -0.359 C  
ENDBRANCH   2   5
BRANCH   2   7
HETATM    7  C   UNL     1     -12.156  10.891  70.748  1.00  0.00    -0.469 C  
BRANCH   7   8
HETATM    8  C   UNL     1     -13.132  11.499  71.761  1.00  0.00    -0.503 C  
HETATM    9  C   UNL     1     -13.063  13.007  71.768  1.00  0.00    -0.373 C  
HETATM   10  O   UNL     1     -12.314  13.683  71.083  1.00  0.00    -0.355 OA 
HETATM   11  O   UNL     1     -13.942  13.555  72.639  1.00  0.00    -0.752 OA 
ENDBRANCH   7   8
ENDBRANCH   2   7
TORSDOF 3
ENDMDL
MODEL       41
REMARK 921   NORMALIZED FREE ENERGY PREDICTED BY IDOCK:   -3.34 KCAL/MOL
REMARK 922        TOTAL FREE ENERGY PREDICTED BY IDOCK:   -4.18 KCAL/MOL
REMARK 923 INTER-LIGAND FREE ENERGY PREDICTED BY IDOCK:   -4.02 KCAL/MOL
REMARK 924 INTRA-LIGAND FREE ENERGY PREDICTED BY IDOCK:   -0.16 KCAL/MOL
REMARK 927      BINDING AFFINITY PREDICTED BY RF-SCORE:    0.00 PKD
ROOT
HETATM    1  N   UNL     1     -10.033  14.031  66.923  1.00  0.00    -0.257 NA 
HETATM    2  C   UNL     1     -11.289  14.763  67.063  1.00  0.00    -0.353 C  
HETATM    3  H1  UNL     1      -9.295  14.491  67.456  1.00  0.00     0.000 HD 
HETATM    4  H2  UNL     1      -9.774  13.904  65.945  1.00  0.00     0.000 HD 
ENDROOT
BRANCH   2   5
HETATM    5  C   UNL     1     -11.616  14.853  68.527  1.00  0.00    -0.347 C  
HETATM    6  C   UNL     1     -11.982  13.812  69.288  1.00  0.00    -0.399 C  
ENDBRANCH   2   5
BRANCH   2   7
HETATM    7  C   UNL     1     -12.401  14.070  66.259  1.00  0.00    -0.482 C  
BRANCH   7   8
HETATM    8  C   UNL     1     -11.930  12.766  65.605  1.00  0.00    -0.503 C  
HETATM    9  C   UNL     1     -12.107  12.797  64.107  1.00  0.00    -0.438 C  
HETATM   10  O   UNL     1     -12.587  13.721  63.471  1.00  0.00    -0.814 OA 
HETATM   11  O   UNL     1     -11.668  11.661  63.517  1.00  0.00    -0.430 OA 
ENDBRANCH   7   8
ENDBRANCH   2   7
TORSDOF 3
ENDMDL
MODEL       42
REMARK 921   NORMALIZED FREE ENERGY PREDICTED BY IDOCK:   -3.34 KCAL/MOL
REMARK 922        TOTAL FREE ENERGY PREDICTED BY IDOCK:   -4.18 KCAL/MOL
REMARK 923 INTER-LIGAND FREE ENERGY PREDICTED BY IDOCK:   -3.92 KCAL/MOL
REMARK 924 INTRA-LIGAND FREE ENERGY PREDICTED BY IDOCK:   -0.26 KCAL/MOL
REMARK 927      BINDING AFFINITY PREDICTED BY RF-SCORE:    0.00 PKD
ROOT
HETATM    1  N   UNL     1     -13.856   9.289  70.835  1.00  0.00    -0.535 NA 
HETATM    2  C   UNL     1     -12.882   9.921  71.720  1.00  0.00    -0.442 C  
HETATM    3  H1  UNL     1     -14.757   9.761  70.906  1.00  0.00     0.000 HD 
HETATM    4  H2  UNL     1     -13.936   8.288  71.011  1.00  0.00     0.000 HD 
ENDROOT
BRANCH   2   5
HETATM    5  C   UNL     1     -12.793  11.377  71.354  1.00  0.00    -0.502 C  
HETATM    6  C   UNL     1     -13.330  12.373  72.072  1.00  0.00    -0.511 C  
ENDBRANCH   2   5
BRANCH   2   7
HETATM    7  C   UNL     1     -11.524   9.209  71.613  1.00  0.00    -0.451 C  
BRANCH   7   8
HETATM    8  C   UNL     1     -11.436   7.971  72.510  1.00  0.00    -0.471 C  
HETATM    9  C   UNL     1     -11.783   6.709  71.758  1.00  0.00    -0.318 C  
HETATM   10  O   UNL     1     -12.121   6.655  70.587  1.00  0.00    -0.394 OA 
HETATM   11  O   UNL     1     -11.680   5.606  72.534  1.00  0.00    -0.297 OA 
ENDBRANCH   7   8
ENDBRANCH   2   7
TORSDOF 3
ENDMDL
MODEL       43
REMARK 921   NORMALIZED FREE ENERGY PREDICTED BY IDOCK:   -3.34 KCAL/MOL
REMARK 922        TOTAL FREE ENERGY PREDICTED BY IDOCK:   -4.18 KCAL/MOL
REMARK 923 INTER-LIGAND FREE ENERGY PREDICTED BY IDOCK:   -4.05 KCAL/MOL
REMARK 924 INTRA-LIGAND FREE ENERGY PREDICTED BY IDOCK:   -0.13 KCAL/MOL
REMARK 927      BINDING AFFINITY PREDICTED BY RF-SCORE:    0.00 PKD
ROOT
HETATM    1  N   UNL     1     -12.139  10.742  68.451  1.00  0.00    -0.827 NA 
HETATM    2  C   UNL     1     -11.305  11.716  69.148  1.00  0.00    -0.283 C  
HETATM    3  H1  UNL     1     -12.456  10.021  69.098  1.00  0.00     0.000 HD 
HETATM    4  H2  UNL     1     -11.662  10.344  67.642  1.00  0.00     0.000 HD 
ENDROOT
BRANCH   2   5
HETATM    5  C   UNL     1     -12.105  12.286  70.287  1.00  0.00    -0.376 C  
HETATM    6  C   UNL     1     -12.755  11.550  71.199  1.00  0.00    -0.458 C  
ENDBRANCH   2   5
BRANCH   2   7
HETATM    7  C   UNL     1     -10.826  12.803  68.173  1.00  0.00    -0.249 C  
BRANCH   7   8
HETATM    8  C   UNL     1     -11.981  13.458  67.408  1.00  0.00    -0.391 C  
HETATM    9  C   UNL     1     -12.081  12.938  65.994  1.00  0.00    -0.422 C  
HETATM   10  O   UNL     1     -11.334  12.117  65.488  1.00  0.00    -0.328 OA 
HETATM   11  O   UNL     1     -13.116  13.489  65.319  1.00  0.00    -0.713 OA 
ENDBRANCH   7   8
ENDBRANCH   2   7
TORSDOF 3
ENDMDL
MODEL       44
REMARK 921   NORMALIZED FREE ENERGY PREDICTED BY IDOCK:   -3.32 KCAL/MOL
REMARK 922        TOTAL FREE ENERGY PREDICTED BY IDOCK:   -4.16 KCAL/MOL
REMARK 923 INTER-LIGAND FREE ENERGY PREDICTED BY IDOCK:   -4.09 KCAL/MOL
REMARK 924 INTRA-LIGAND FREE ENERGY PREDICTED BY IDOCK:   -0.07 KCAL/MOL
REMARK 927      BINDING AFFINITY PREDICTED BY RF-SCORE:    0.00 PKD
ROOT
HETATM    1  N   UNL     1     -10.288  12.911  68.721  1.00  0.00    -0.405 NA 
HETATM    2  C   UNL     1     -11.686  13.317  68.619  1.00  0.00    -0.341 C  
HETATM    3  H1  UNL     1     -10.061  12.237  67.990  1.00  0.00     0.000 HD 
HETATM    4  H2  UNL     1     -10.061  12.556  69.650  1.00  0.00     0.000 HD 
ENDROOT
BRANCH   2   5
HETATM    5  C   UNL     1     -11.912  13.874  67.241  1.00  0.00    -0.446 C  
HETATM    6  C   UNL     1     -12.143  13.129  66.151  1.00  0.00    -0.479 C  
ENDBRANCH   2   5
BRANCH   2   7
HETATM    7  C   UNL     1     -12.027  14.333  69.721  1.00  0.00    -0.394 C  
BRANCH   7   8
HETATM    8  C   UNL     1     -12.574  13.666  70.988  1.00  0.00    -0.441 C  
HETATM    9  C   UNL     1     -13.745  14.427  71.559  1.00  0.00    -0.382 C  
HETATM   10  O   UNL     1     -14.206  15.461  71.105  1.00  0.00    -0.493 OA 
HETATM   11  O   UNL     1     -14.253  13.830  72.663  1.00  0.00    -0.710 OA 
ENDBRANCH   7   8
ENDBRANCH   2   7
TORSDOF 3
ENDMDL
MODEL       45
REMARK 921   NORMALIZED FREE ENERGY PREDICTED BY IDOCK:   -3.30 KCAL/MOL
REMARK 922        TOTAL FREE ENERGY PREDICTED BY IDOCK:   -4.13 KCAL/MOL
REMARK 923 INTER-LIGAND FREE ENERGY PREDICTED BY IDOCK:   -3.94 KCAL/MOL
REMARK 924 INTRA-LIGAND FREE ENERGY PREDICTED BY IDOCK:   -0.19 KCAL/MOL
REMARK 927      BINDING AFFINITY PREDICTED BY RF-SCORE:    0.00 PKD
ROOT
HETATM    1  N   UNL     1     -11.134  11.555  64.471  1.00  0.00    -0.304 NA 
HETATM    2  C   UNL     1     -10.288  12.507  65.184  1.00  0.00    -0.289 C  
HETATM    3  H1  UNL     1     -10.559  10.857  63.998  1.00  0.00     0.000 HD 
HETATM    4  H2  UNL     1     -11.772  12.022  63.827  1.00  0.00     0.000 HD 
ENDROOT
BRANCH   2   5
HETATM    5  C   UNL     1      -9.424  11.737  66.144  1.00  0.00    -0.240 C  
HETATM    6  C   UNL     1      -8.712  12.292  67.135  1.00  0.00    -0.193 C  
ENDBRANCH   2   5
BRANCH   2   7
HETATM    7  C   UNL     1     -11.153  13.560  65.896  1.00  0.00    -0.292 C  
BRANCH   7   8
HETATM    8  C   UNL     1     -10.819  14.990  65.460  1.00  0.00    -0.360 C  
HETATM    9  C   UNL     1     -11.711  15.455  64.335  1.00  0.00    -0.258 C  
HETATM   10  O   UNL     1     -12.581  14.787  63.801  1.00  0.00    -0.806 OA 
HETATM   11  O   UNL     1     -11.442  16.728  63.962  1.00  0.00    -1.198 OA 
ENDBRANCH   7   8
ENDBRANCH   2   7
TORSDOF 3
ENDMDL
MODEL       46
REMARK 921   NORMALIZED FREE ENERGY PREDICTED BY IDOCK:   -3.29 KCAL/MOL
REMARK 922        TOTAL FREE ENERGY PREDICTED BY IDOCK:   -4.12 KCAL/MOL
REMARK 923 INTER-LIGAND FREE ENERGY PREDICTED BY IDOCK:   -3.96 KCAL/MOL
REMARK 924 INTRA-LIGAND FREE ENERGY PREDICTED BY IDOCK:   -0.16 KCAL/MOL
REMARK 927      BINDING AFFINITY PREDICTED BY RF-SCORE:    0.00 PKD
ROOT
HETATM    1  N   UNL     1     -11.831  15.441  68.343  1.00  0.00    -0.503 NA 
HETATM    2  C   UNL     1     -11.859  14.546  67.190  1.00  0.00    -0.387 C  
HETATM    3  H1  UNL     1     -12.582  15.206  68.992  1.00  0.00     0.000 HD 
HETATM    4  H2  UNL     1     -11.863  16.422  68.064  1.00  0.00     0.000 HD 
ENDROOT
BRANCH   2   5
HETATM    5  C   UNL     1     -11.755  13.133  67.693  1.00  0.00    -0.414 C  
HETATM    6  C   UNL     1     -10.685  12.631  68.324  1.00  0.00    -0.248 C  
ENDBRANCH   2   5
BRANCH   2   7
HETATM    7  C   UNL     1     -10.727  14.901  66.213  1.00  0.00    -0.320 C  
BRANCH   7   8
HETATM    8  C   UNL     1     -10.170  16.310  66.444  1.00  0.00    -0.322 C  
HETATM    9  C   UNL     1     -10.631  17.275  65.380  1.00  0.00    -0.072 C  
HETATM   10  O   UNL     1     -11.339  16.992  64.428  1.00  0.00    -1.140 OA 
HETATM   11  O   UNL     1     -10.168  18.529  65.592  1.00  0.00    -0.552 OA 
ENDBRANCH   7   8
ENDBRANCH   2   7
TORSDOF 3
ENDMDL
MODEL       47
REMARK 921   NORMALIZED FREE ENERGY PREDICTED BY IDOCK:   -3.28 KCAL/MOL
REMARK 922        TOTAL FREE ENERGY PREDICTED BY IDOCK:   -4.10 KCAL/MOL
REMARK 923 INTER-LIGAND FREE ENERGY PREDICTED BY IDOCK:   -4.00 KCAL/MOL
REMARK 924 INTRA-LIGAND FREE ENERGY PREDICTED BY IDOCK:   -0.10 KCAL/MOL
REMARK 927      BINDING AFFINITY PREDICTED BY RF-SCORE:    0.00 PKD
ROOT
HETATM    1  N   UNL     1     -11.757  10.456  68.107  1.00  0.00    -0.743 NA 
HETATM    2  C   UNL     1     -12.018  11.813  68.577  1.00  0.00    -0.215 C  
HETATM    3  H1  UNL     1     -12.048  10.356  67.134  1.00  0.00     0.000 HD 
HETATM    4  H2  UNL     1     -12.193   9.756  68.708  1.00  0.00     0.000 HD 
ENDROOT
BRANCH   2   5
HETATM    5  C   UNL     1     -11.297  12.768  67.667  1.00  0.00    -0.359 C  
HETATM    6  C   UNL     1     -11.530  12.884  66.352  1.00  0.00    -0.389 C  
ENDBRANCH   2   5
BRANCH   2   7
HETATM    7  C   UNL     1     -11.580  11.963  70.042  1.00  0.00    -0.301 C  
BRANCH   7   8
HETATM    8  C   UNL     1     -12.400  13.014  70.797  1.00  0.00    -0.394 C  
HETATM    9  C   UNL     1     -13.218  12.396  71.904  1.00  0.00    -0.382 C  
HETATM   10  O   UNL     1     -13.262  11.207  72.171  1.00  0.00    -0.481 OA 
HETATM   11  O   UNL     1     -13.924  13.321  72.596  1.00  0.00    -0.741 OA 
ENDBRANCH   7   8
ENDBRANCH   2   7
TORSDOF 3
ENDMDL
MODEL       48
REMARK 921   NORMALIZED FREE ENERGY PREDICTED BY IDOCK:   -3.26 KCAL/MOL
REMARK 922        TOTAL FREE ENERGY PREDICTED BY IDOCK:   -4.08 KCAL/MOL
REMARK 923 INTER-LIGAND FREE ENERGY PREDICTED BY IDOCK:   -3.97 KCAL/MOL
REMARK 924 INTRA-LIGAND FREE ENERGY PREDICTED BY IDOCK:   -0.11 KCAL/MOL
REMARK 927      BINDING AFFINITY PREDICTED BY RF-SCORE:    0.00 PKD
ROOT
HETATM    1  N   UNL     1      -7.866  18.885  66.412  1.00  0.00    -0.271 NA 
HETATM    2  C   UNL     1      -9.148  19.565  66.567  1.00  0.00    -0.365 C  
HETATM    3  H1  UNL     1      -7.105  19.490  66.722  1.00  0.00     0.000 HD 
HETATM    4  H2  UNL     1      -7.724  18.553  65.458  1.00  0.00     0.000 HD 
ENDROOT
BRANCH   2   5
HETATM    5  C   UNL     1      -9.293  19.968  68.008  1.00  0.00    -0.401 C  
HETATM    6  C   UNL     1     -10.358  19.685  68.770  1.00  0.00    -0.345 C  
ENDBRANCH   2   5
BRANCH   2   7
HETATM    7  C   UNL     1     -10.294  18.653  66.099  1.00  0.00    -0.481 C  
BRANCH   7   8
HETATM    8  C   UNL     1      -9.941  17.166  66.198  1.00  0.00    -0.296 C  
HETATM    9  C   UNL     1     -10.584  16.364  65.093  1.00  0.00    -0.264 C  
HETATM   10  O   UNL     1     -11.320  16.813  64.230  1.00  0.00    -1.170 OA 
HETATM   11  O   UNL     1     -10.255  15.053  65.154  1.00  0.00    -0.379 OA 
ENDBRANCH   7   8
ENDBRANCH   2   7
TORSDOF 3
ENDMDL
MODEL       49
REMARK 921   NORMALIZED FREE ENERGY PREDICTED BY IDOCK:   -3.25 KCAL/MOL
REMARK 922        TOTAL FREE ENERGY PREDICTED BY IDOCK:   -4.08 KCAL/MOL
REMARK 923 INTER-LIGAND FREE ENERGY PREDICTED BY IDOCK:   -3.94 KCAL/MOL
REMARK 924 INTRA-LIGAND FREE ENERGY PREDICTED BY IDOCK:   -0.14 KCAL/MOL
REMARK 927      BINDING AFFINITY PREDICTED BY RF-SCORE:    0.00 PKD
ROOT
HETATM    1  N   UNL     1      -9.440  11.505  66.011  1.00  0.00    -0.224 NA 
HETATM    2  C   UNL     1     -10.033  10.485  65.152  1.00  0.00    -0.309 C  
HETATM    3  H1  UNL     1      -9.169  11.099  66.907  1.00  0.00     0.000 HD 
HETATM    4  H2  UNL     1     -10.057  12.309  66.129  1.00  0.00     0.000 HD 
ENDROOT
BRANCH   2   5
HETATM    5  C   UNL     1      -9.036   9.371  64.994  1.00  0.00    -0.271 C  
HETATM    6  C   UNL     1      -8.280   9.180  63.904  1.00  0.00    -0.172 C  
ENDBRANCH   2   5
BRANCH   2   7
HETATM    7  C   UNL     1     -10.441  11.098  63.802  1.00  0.00    -0.444 C  
BRANCH   7   8
HETATM    8  C   UNL     1     -10.778  12.588  63.910  1.00  0.00    -0.473 C  
HETATM    9  C   UNL     1     -12.224  12.860  63.575  1.00  0.00    -0.512 C  
HETATM   10  O   UNL     1     -13.040  12.020  63.232  1.00  0.00    -0.701 OA 
HETATM   11  O   UNL     1     -12.539  14.171  63.695  1.00  0.00    -0.831 OA 
ENDBRANCH   7   8
ENDBRANCH   2   7
TORSDOF 3
ENDMDL
MODEL       50
REMARK 921   NORMALIZED FREE ENERGY PREDICTED BY IDOCK:   -3.24 KCAL/MOL
REMARK 922        TOTAL FREE ENERGY PREDICTED BY IDOCK:   -4.06 KCAL/MOL
REMARK 923 INTER-LIGAND FREE ENERGY PREDICTED BY IDOCK:   -3.97 KCAL/MOL
REMARK 924 INTRA-LIGAND FREE ENERGY PREDICTED BY IDOCK:   -0.09 KCAL/MOL
REMARK 927      BINDING AFFINITY PREDICTED BY RF-SCORE:    0.00 PKD
ROOT
HETATM    1  N   UNL     1     -12.179  10.776  68.565  1.00  0.00    -0.822 NA 
HETATM    2  C   UNL     1     -11.628  11.098  69.878  1.00  0.00    -0.337 C  
HETATM    3  H1  UNL     1     -11.895   9.838  68.282  1.00  0.00     0.000 HD 
HETATM    4  H2  UNL     1     -11.931  11.476  67.866  1.00  0.00     0.000 HD 
ENDROOT
BRANCH   2   5
HETATM    5  C   UNL     1     -12.088  10.047  70.849  1.00  0.00    -0.448 C  
HETATM    6  C   UNL     1     -13.073  10.219  71.741  1.00  0.00    -0.570 C  
ENDBRANCH   2   5
BRANCH   2   7
HETATM    7  C   UNL     1     -12.057  12.511  70.303  1.00  0.00    -0.373 C  
BRANCH   7   8
HETATM    8  C   UNL     1     -11.738  13.569  69.241  1.00  0.00    -0.382 C  
HETATM    9  C   UNL     1     -12.158  14.949  69.683  1.00  0.00    -0.295 C  
HETATM   10  O   UNL     1     -12.710  15.217  70.738  1.00  0.00    -0.350 OA 
HETATM   11  O   UNL     1     -11.855  15.895  68.763  1.00  0.00    -0.393 OA 
ENDBRANCH   7   8
ENDBRANCH   2   7
TORSDOF 3
ENDMDL
MODEL       51
REMARK 921   NORMALIZED FREE ENERGY PREDICTED BY IDOCK:   -3.23 KCAL/MOL
REMARK 922        TOTAL FREE ENERGY PREDICTED BY IDOCK:   -4.05 KCAL/MOL
REMARK 923 INTER-LIGAND FREE ENERGY PREDICTED BY IDOCK:   -3.88 KCAL/MOL
REMARK 924 INTRA-LIGAND FREE ENERGY PREDICTED BY IDOCK:   -0.17 KCAL/MOL
REMARK 927      BINDING AFFINITY PREDICTED BY RF-SCORE:    0.00 PKD
ROOT
HETATM    1  N   UNL     1      -9.944  13.087  63.755  1.00  0.00    -0.734 NA 
HETATM    2  C   UNL     1     -10.462  12.539  65.005  1.00  0.00    -0.297 C  
HETATM    3  H1  UNL     1      -9.958  12.375  63.025  1.00  0.00     0.000 HD 
HETATM    4  H2  UNL     1      -9.017  13.494  63.873  1.00  0.00     0.000 HD 
ENDROOT
BRANCH   2   5
HETATM    5  C   UNL     1     -11.847  12.014  64.748  1.00  0.00    -0.325 C  
HETATM    6  C   UNL     1     -12.449  12.021  63.550  1.00  0.00    -0.654 C  
ENDBRANCH   2   5
BRANCH   2   7
HETATM    7  C   UNL     1     -10.442  13.613  66.105  1.00  0.00    -0.297 C  
BRANCH   7   8
HETATM    8  C   UNL     1     -11.092  14.927  65.658  1.00  0.00    -0.348 C  
HETATM    9  C   UNL     1     -10.163  16.101  65.842  1.00  0.00    -0.360 C  
HETATM   10  O   UNL     1      -9.038  16.046  66.311  1.00  0.00    -0.284 OA 
HETATM   11  O   UNL     1     -10.717  17.263  65.423  1.00  0.00    -0.583 OA 
ENDBRANCH   7   8
ENDBRANCH   2   7
TORSDOF 3
ENDMDL
MODEL       52
REMARK 921   NORMALIZED FREE ENERGY PREDICTED BY IDOCK:   -3.22 KCAL/MOL
REMARK 922        TOTAL FREE ENERGY PREDICTED BY IDOCK:   -4.04 KCAL/MOL
REMARK 923 INTER-LIGAND FREE ENERGY PREDICTED BY IDOCK:   -3.88 KCAL/MOL
REMARK 924 INTRA-LIGAND FREE ENERGY PREDICTED BY IDOCK:   -0.16 KCAL/MOL
REMARK 927      BINDING AFFINITY PREDICTED BY RF-SCORE:    0.00 PKD
ROOT
HETATM    1  N   UNL     1     -10.214  13.224  69.035  1.00  0.00    -0.432 NA 
HETATM    2  C   UNL     1     -10.697  13.589  67.706  1.00  0.00    -0.252 C  
HETATM    3  H1  UNL     1      -9.521  13.900  69.357  1.00  0.00     0.000 HD 
HETATM    4  H2  UNL     1      -9.856  12.270  69.060  1.00  0.00     0.000 HD 
ENDROOT
BRANCH   2   5
HETATM    5  C   UNL     1     -11.251  14.985  67.777  1.00  0.00    -0.327 C  
HETATM    6  C   UNL     1     -11.883  15.495  68.843  1.00  0.00    -0.357 C  
ENDBRANCH   2   5
BRANCH   2   7
HETATM    7  C   UNL     1     -11.741  12.571  67.221  1.00  0.00    -0.431 C  
BRANCH   7   8
HETATM    8  C   UNL     1     -11.474  12.089  65.791  1.00  0.00    -0.377 C  
HETATM    9  C   UNL     1     -12.358  12.790  64.790  1.00  0.00    -0.478 C  
HETATM   10  O   UNL     1     -13.208  13.623  65.059  1.00  0.00    -0.729 OA 
HETATM   11  O   UNL     1     -12.110  12.392  63.521  1.00  0.00    -0.492 OA 
ENDBRANCH   7   8
ENDBRANCH   2   7
TORSDOF 3
ENDMDL
MODEL       53
REMARK 921   NORMALIZED FREE ENERGY PREDICTED BY IDOCK:   -3.21 KCAL/MOL
REMARK 922        TOTAL FREE ENERGY PREDICTED BY IDOCK:   -4.03 KCAL/MOL
REMARK 923 INTER-LIGAND FREE ENERGY PREDICTED BY IDOCK:   -3.90 KCAL/MOL
REMARK 924 INTRA-LIGAND FREE ENERGY PREDICTED BY IDOCK:   -0.12 KCAL/MOL
REMARK 927      BINDING AFFINITY PREDICTED BY RF-SCORE:    0.00 PKD
ROOT
HETATM    1  N   UNL     1     -11.238   9.599  68.892  1.00  0.00    -0.459 NA 
HETATM    2  C   UNL     1     -11.154  10.197  70.221  1.00  0.00    -0.317 C  
HETATM    3  H1  UNL     1     -10.793   8.681  68.889  1.00  0.00     0.000 HD 
HETATM    4  H2  UNL     1     -10.850  10.212  68.175  1.00  0.00     0.000 HD 
ENDROOT
BRANCH   2   5
HETATM    5  C   UNL     1     -11.794   9.252  71.200  1.00  0.00    -0.396 C  
HETATM    6  C   UNL     1     -11.124   8.552  72.126  1.00  0.00    -0.436 C  
ENDBRANCH   2   5
BRANCH   2   7
HETATM    7  C   UNL     1     -11.823  11.581  70.226  1.00  0.00    -0.431 C  
BRANCH   7   8
HETATM    8  C   UNL     1     -12.897  11.713  71.311  1.00  0.00    -0.430 C  
HETATM    9  C   UNL     1     -13.054  13.141  71.772  1.00  0.00    -0.383 C  
HETATM   10  O   UNL     1     -12.403  14.090  71.367  1.00  0.00    -0.350 OA 
HETATM   11  O   UNL     1     -14.020  13.273  72.710  1.00  0.00    -0.701 OA 
ENDBRANCH   7   8
ENDBRANCH   2   7
TORSDOF 3
ENDMDL
MODEL       54
REMARK 921   NORMALIZED FREE ENERGY PREDICTED BY IDOCK:   -3.20 KCAL/MOL
REMARK 922        TOTAL FREE ENERGY PREDICTED BY IDOCK:   -4.01 KCAL/MOL
REMARK 923 INTER-LIGAND FREE ENERGY PREDICTED BY IDOCK:   -3.90 KCAL/MOL
REMARK 924 INTRA-LIGAND FREE ENERGY PREDICTED BY IDOCK:   -0.11 KCAL/MOL
REMARK 927      BINDING AFFINITY PREDICTED BY RF-SCORE:    0.00 PKD
ROOT
HETATM    1  N   UNL     1     -12.281  10.663  68.741  1.00  0.00    -0.808 NA 
HETATM    2  C   UNL     1     -10.985  10.570  68.075  1.00  0.00    -0.290 C  
HETATM    3  H1  UNL     1     -12.513   9.776  69.189  1.00  0.00     0.000 HD 
HETATM    4  H2  UNL     1     -13.015  10.970  68.103  1.00  0.00     0.000 HD 
ENDROOT
BRANCH   2   5
HETATM    5  C   UNL     1      -9.962  10.165  69.100  1.00  0.00    -0.221 C  
HETATM    6  C   UNL     1     -10.251   9.801  70.357  1.00  0.00    -0.343 C  
ENDBRANCH   2   5
BRANCH   2   7
HETATM    7  C   UNL     1     -10.636  11.906  67.400  1.00  0.00    -0.257 C  
BRANCH   7   8
HETATM    8  C   UNL     1     -11.446  12.149  66.123  1.00  0.00    -0.429 C  
HETATM    9  C   UNL     1     -12.130  13.494  66.142  1.00  0.00    -0.436 C  
HETATM   10  O   UNL     1     -12.082  14.298  67.059  1.00  0.00    -0.425 OA 
HETATM   11  O   UNL     1     -12.825  13.731  65.005  1.00  0.00    -0.693 OA 
ENDBRANCH   7   8
ENDBRANCH   2   7
TORSDOF 3
ENDMDL
MODEL       55
REMARK 921   NORMALIZED FREE ENERGY PREDICTED BY IDOCK:   -3.19 KCAL/MOL
REMARK 922        TOTAL FREE ENERGY PREDICTED BY IDOCK:   -4.01 KCAL/MOL
REMARK 923 INTER-LIGAND FREE ENERGY PREDICTED BY IDOCK:   -3.87 KCAL/MOL
REMARK 924 INTRA-LIGAND FREE ENERGY PREDICTED BY IDOCK:   -0.13 KCAL/MOL
REMARK 927      BINDING AFFINITY PREDICTED BY RF-SCORE:    0.00 PKD
ROOT
HETATM    1  N   UNL     1      -9.556  12.161  63.243  1.00  0.00    -0.650 NA 
HETATM    2  C   UNL     1     -10.527  11.300  63.911  1.00  0.00    -0.391 C  
HETATM    3  H1  UNL     1      -9.773  12.234  62.249  1.00  0.00     0.000 HD 
HETATM    4  H2  UNL     1      -8.598  11.848  63.401  1.00  0.00     0.000 HD 
ENDROOT
BRANCH   2   5
HETATM    5  C   UNL     1     -11.898  11.866  63.668  1.00  0.00    -0.573 C  
HETATM    6  C   UNL     1     -12.144  13.142  63.340  1.00  0.00    -0.558 C  
ENDBRANCH   2   5
BRANCH   2   7
HETATM    7  C   UNL     1     -10.199  11.190  65.409  1.00  0.00    -0.327 C  
BRANCH   7   8
HETATM    8  C   UNL     1      -9.968  12.556  66.063  1.00  0.00    -0.269 C  
HETATM    9  C   UNL     1     -11.115  12.947  66.962  1.00  0.00    -0.275 C  
HETATM   10  O   UNL     1     -12.126  12.289  67.144  1.00  0.00    -0.560 OA 
HETATM   11  O   UNL     1     -10.907  14.140  67.567  1.00  0.00    -0.269 OA 
ENDBRANCH   7   8
ENDBRANCH   2   7
TORSDOF 3
ENDMDL
MODEL       56
REMARK 921   NORMALIZED FREE ENERGY PREDICTED BY IDOCK:   -3.17 KCAL/MOL
REMARK 922        TOTAL FREE ENERGY PREDICTED BY IDOCK:   -3.98 KCAL/MOL
REMARK 923 INTER-LIGAND FREE ENERGY PREDICTED BY IDOCK:   -3.89 KCAL/MOL
REMARK 924 INTRA-LIGAND FREE ENERGY PREDICTED BY IDOCK:   -0.09 KCAL/MOL
REMARK 927      BINDING AFFINITY PREDICTED BY RF-SCORE:    0.00 PKD
ROOT
HETATM    1  N   UNL     1     -11.678   9.019  70.047  1.00  0.00    -0.451 NA 
HETATM    2  C   UNL     1     -11.720  10.249  70.832  1.00  0.00    -0.379 C  
HETATM    3  H1  UNL     1     -11.778   8.207  70.657  1.00  0.00     0.000 HD 
HETATM    4  H2  UNL     1     -10.837   8.962  69.473  1.00  0.00     0.000 HD 
ENDROOT
BRANCH   2   5
HETATM    5  C   UNL     1     -13.012  10.270  71.600  1.00  0.00    -0.570 C  
HETATM    6  C   UNL     1     -13.560   9.198  72.189  1.00  0.00    -0.534 C  
ENDBRANCH   2   5
BRANCH   2   7
HETATM    7  C   UNL     1     -11.569  11.472  69.912  1.00  0.00    -0.387 C  
BRANCH   7   8
HETATM    8  C   UNL     1     -11.906  11.156  68.451  1.00  0.00    -0.302 C  
HETATM    9  C   UNL     1     -11.784  12.376  67.573  1.00  0.00    -0.357 C  
HETATM   10  O   UNL     1     -11.481  13.495  67.954  1.00  0.00    -0.282 OA 
HETATM   11  O   UNL     1     -12.051  12.101  66.275  1.00  0.00    -0.626 OA 
ENDBRANCH   7   8
ENDBRANCH   2   7
TORSDOF 3
ENDMDL
MODEL       57
REMARK 921   NORMALIZED FREE ENERGY PREDICTED BY IDOCK:   -3.17 KCAL/MOL
REMARK 922        TOTAL FREE ENERGY PREDICTED BY IDOCK:   -3.97 KCAL/MOL
REMARK 923 INTER-LIGAND FREE ENERGY PREDICTED BY IDOCK:   -3.86 KCAL/MOL
REMARK 924 INTRA-LIGAND FREE ENERGY PREDICTED BY IDOCK:   -0.12 KCAL/MOL
REMARK 927      BINDING AFFINITY PREDICTED BY RF-SCORE:    0.00 PKD
ROOT
HETATM    1  N   UNL     1     -10.813  15.243  71.246  1.00  0.00    -0.494 NA 
HETATM    2  C   UNL     1     -12.110  15.156  70.580  1.00  0.00    -0.343 C  
HETATM    3  H1  UNL     1     -10.723  16.136  71.729  1.00  0.00     0.000 HD 
HETATM    4  H2  UNL     1     -10.042  15.080  70.599  1.00  0.00     0.000 HD 
ENDROOT
BRANCH   2   5
HETATM    5  C   UNL     1     -13.181  15.354  71.616  1.00  0.00    -0.563 C  
HETATM    6  C   UNL     1     -12.949  15.702  72.889  1.00  0.00    -0.600 C  
ENDBRANCH   2   5
BRANCH   2   7
HETATM    7  C   UNL     1     -12.245  13.810  69.851  1.00  0.00    -0.383 C  
BRANCH   7   8
HETATM    8  C   UNL     1     -12.230  12.616  70.812  1.00  0.00    -0.331 C  
HETATM    9  C   UNL     1     -12.218  11.302  70.070  1.00  0.00    -0.314 C  
HETATM   10  O   UNL     1     -12.243  11.174  68.857  1.00  0.00    -0.522 OA 
HETATM   11  O   UNL     1     -12.175  10.241  70.910  1.00  0.00    -0.306 OA 
ENDBRANCH   7   8
ENDBRANCH   2   7
TORSDOF 3
ENDMDL
MODEL       58
REMARK 921   NORMALIZED FREE ENERGY PREDICTED BY IDOCK:   -3.16 KCAL/MOL
REMARK 922        TOTAL FREE ENERGY PREDICTED BY IDOCK:   -3.97 KCAL/MOL
REMARK 923 INTER-LIGAND FREE ENERGY PREDICTED BY IDOCK:   -3.74 KCAL/MOL
REMARK 924 INTRA-LIGAND FREE ENERGY PREDICTED BY IDOCK:   -0.22 KCAL/MOL
REMARK 927      BINDING AFFINITY PREDICTED BY RF-SCORE:    0.00 PKD
ROOT
HETATM    1  N   UNL     1      -6.810  21.378  67.403  1.00  0.00    -0.648 NA 
HETATM    2  C   UNL     1      -7.498  20.134  67.067  1.00  0.00    -0.280 C  
HETATM    3  H1  UNL     1      -5.802  21.264  67.298  1.00  0.00     0.000 HD 
HETATM    4  H2  UNL     1      -7.060  21.711  68.334  1.00  0.00     0.000 HD 
ENDROOT
BRANCH   2   5
HETATM    5  C   UNL     1      -7.112  19.751  65.666  1.00  0.00    -0.331 C  
HETATM    6  C   UNL     1      -6.480  18.616  65.338  1.00  0.00    -0.299 C  
ENDBRANCH   2   5
BRANCH   2   7
HETATM    7  C   UNL     1      -9.017  20.306  67.226  1.00  0.00    -0.472 C  
BRANCH   7   8
HETATM    8  C   UNL     1      -9.669  19.131  67.962  1.00  0.00    -0.414 C  
HETATM    9  C   UNL     1     -10.351  18.183  67.007  1.00  0.00    -0.380 C  
HETATM   10  O   UNL     1     -10.415  18.323  65.797  1.00  0.00    -0.589 OA 
HETATM   11  O   UNL     1     -10.905  17.125  67.644  1.00  0.00    -0.332 OA 
ENDBRANCH   7   8
ENDBRANCH   2   7
TORSDOF 3
ENDMDL
MODEL       59
REMARK 921   NORMALIZED FREE ENERGY PREDICTED BY IDOCK:   -3.16 KCAL/MOL
REMARK 922        TOTAL FREE ENERGY PREDICTED BY IDOCK:   -3.97 KCAL/MOL
REMARK 923 INTER-LIGAND FREE ENERGY PREDICTED BY IDOCK:   -3.74 KCAL/MOL
REMARK 924 INTRA-LIGAND FREE ENERGY PREDICTED BY IDOCK:   -0.23 KCAL/MOL
REMARK 927      BINDING AFFINITY PREDICTED BY RF-SCORE:    0.00 PKD
ROOT
HETATM    1  N   UNL     1     -14.345   8.372  71.078  1.00  0.00    -0.652 NA 
HETATM    2  C   UNL     1     -13.176   8.764  71.861  1.00  0.00    -0.381 C  
HETATM    3  H1  UNL     1     -15.149   8.945  71.333  1.00  0.00     0.000 HD 
HETATM    4  H2  UNL     1     -14.544   7.376  71.166  1.00  0.00     0.000 HD 
ENDROOT
BRANCH   2   5
HETATM    5  C   UNL     1     -12.928  10.229  71.628  1.00  0.00    -0.570 C  
HETATM    6  C   UNL     1     -12.524  10.752  70.463  1.00  0.00    -0.447 C  
ENDBRANCH   2   5
BRANCH   2   7
HETATM    7  C   UNL     1     -11.964   7.900  71.477  1.00  0.00    -0.333 C  
BRANCH   7   8
HETATM    8  C   UNL     1     -10.842   7.964  72.519  1.00  0.00    -0.403 C  
HETATM    9  C   UNL     1      -9.618   8.663  71.980  1.00  0.00    -0.314 C  
HETATM   10  O   UNL     1      -9.499   9.109  70.850  1.00  0.00    -0.240 OA 
HETATM   11  O   UNL     1      -8.632   8.751  72.902  1.00  0.00    -0.398 OA 
ENDBRANCH   7   8
ENDBRANCH   2   7
TORSDOF 3
ENDMDL
MODEL       60
REMARK 921   NORMALIZED FREE ENERGY PREDICTED BY IDOCK:   -3.15 KCAL/MOL
REMARK 922        TOTAL FREE ENERGY PREDICTED BY IDOCK:   -3.95 KCAL/MOL
REMARK 923 INTER-LIGAND FREE ENERGY PREDICTED BY IDOCK:   -3.83 KCAL/MOL
REMARK 924 INTRA-LIGAND FREE ENERGY PREDICTED BY IDOCK:   -0.12 KCAL/MOL
REMARK 927      BINDING AFFINITY PREDICTED BY RF-SCORE:    0.00 PKD
ROOT
HETATM    1  N   UNL     1     -10.736  12.846  69.329  1.00  0.00    -0.445 NA 
HETATM    2  C   UNL     1     -12.018  12.477  69.923  1.00  0.00    -0.301 C  
HETATM    3  H1  UNL     1     -10.783  13.790  68.946  1.00  0.00     0.000 HD 
HETATM    4  H2  UNL     1     -10.432  12.167  68.631  1.00  0.00     0.000 HD 
ENDROOT
BRANCH   2   5
HETATM    5  C   UNL     1     -12.358  13.499  70.971  1.00  0.00    -0.422 C  
HETATM    6  C   UNL     1     -12.954  14.673  70.719  1.00  0.00    -0.405 C  
ENDBRANCH   2   5
BRANCH   2   7
HETATM    7  C   UNL     1     -11.948  11.054  70.499  1.00  0.00    -0.474 C  
BRANCH   7   8
HETATM    8  C   UNL     1     -13.058  10.775  71.517  1.00  0.00    -0.517 C  
HETATM    9  C   UNL     1     -13.217   9.298  71.781  1.00  0.00    -0.403 C  
HETATM   10  O   UNL     1     -12.572   8.411  71.246  1.00  0.00    -0.292 OA 
HETATM   11  O   UNL     1     -14.175   9.043  72.702  1.00  0.00    -0.574 OA 
ENDBRANCH   7   8
ENDBRANCH   2   7
TORSDOF 3
ENDMDL
MODEL       61
REMARK 921   NORMALIZED FREE ENERGY PREDICTED BY IDOCK:   -3.14 KCAL/MOL
REMARK 922        TOTAL FREE ENERGY PREDICTED BY IDOCK:   -3.94 KCAL/MOL
REMARK 923 INTER-LIGAND FREE ENERGY PREDICTED BY IDOCK:   -3.87 KCAL/MOL
REMARK 924 INTRA-LIGAND FREE ENERGY PREDICTED BY IDOCK:   -0.07 KCAL/MOL
REMARK 927      BINDING AFFINITY PREDICTED BY RF-SCORE:    0.00 PKD
ROOT
HETATM    1  N   UNL     1      -8.756  15.326  66.536  1.00  0.00    -0.365 NA 
HETATM    2  C   UNL     1     -10.031  15.859  66.065  1.00  0.00    -0.334 C  
HETATM    3  H1  UNL     1      -7.999  15.973  66.313  1.00  0.00     0.000 HD 
HETATM    4  H2  UNL     1      -8.577  14.390  66.172  1.00  0.00     0.000 HD 
ENDROOT
BRANCH   2   5
HETATM    5  C   UNL     1     -10.233  17.210  66.692  1.00  0.00    -0.319 C  
HETATM    6  C   UNL     1     -10.428  18.343  66.003  1.00  0.00    -0.400 C  
ENDBRANCH   2   5
BRANCH   2   7
HETATM    7  C   UNL     1     -11.171  14.884  66.400  1.00  0.00    -0.331 C  
BRANCH   7   8
HETATM    8  C   UNL     1     -11.325  13.775  65.354  1.00  0.00    -0.314 C  
HETATM    9  C   UNL     1     -12.147  14.230  64.173  1.00  0.00    -0.393 C  
HETATM   10  O   UNL     1     -12.659  15.330  64.051  1.00  0.00    -0.750 OA 
HETATM   11  O   UNL     1     -12.264  13.267  63.230  1.00  0.00    -0.663 OA 
ENDBRANCH   7   8
ENDBRANCH   2   7
TORSDOF 3
ENDMDL
MODEL       62
REMARK 921   NORMALIZED FREE ENERGY PREDICTED BY IDOCK:   -3.09 KCAL/MOL
REMARK 922        TOTAL FREE ENERGY PREDICTED BY IDOCK:   -3.88 KCAL/MOL
REMARK 923 INTER-LIGAND FREE ENERGY PREDICTED BY IDOCK:   -3.75 KCAL/MOL
REMARK 924 INTRA-LIGAND FREE ENERGY PREDICTED BY IDOCK:   -0.14 KCAL/MOL
REMARK 927      BINDING AFFINITY PREDICTED BY RF-SCORE:    0.00 PKD
ROOT
HETATM    1  N   UNL     1     -12.013   6.711  70.063  1.00  0.00    -0.636 NA 
HETATM    2  C   UNL     1     -11.029   6.912  71.123  1.00  0.00    -0.251 C  
HETATM    3  H1  UNL     1     -11.637   6.094  69.344  1.00  0.00     0.000 HD 
HETATM    4  H2  UNL     1     -12.338   7.596  69.673  1.00  0.00     0.000 HD 
ENDROOT
BRANCH   2   5
HETATM    5  C   UNL     1     -10.651   5.564  71.672  1.00  0.00    -0.294 C  
HETATM    6  C   UNL     1     -11.038   5.098  72.867  1.00  0.00    -0.359 C  
ENDBRANCH   2   5
BRANCH   2   7
HETATM    7  C   UNL     1     -11.597   7.843  72.206  1.00  0.00    -0.406 C  
BRANCH   7   8
HETATM    8  C   UNL     1     -11.685   9.301  71.743  1.00  0.00    -0.456 C  
HETATM    9  C   UNL     1     -13.070   9.867  71.937  1.00  0.00    -0.459 C  
HETATM   10  O   UNL     1     -14.028   9.255  72.383  1.00  0.00    -0.460 OA 
HETATM   11  O   UNL     1     -13.152  11.163  71.558  1.00  0.00    -0.425 OA 
ENDBRANCH   7   8
ENDBRANCH   2   7
TORSDOF 3
ENDMDL
MODEL       63
REMARK 921   NORMALIZED FREE ENERGY PREDICTED BY IDOCK:   -3.04 KCAL/MOL
REMARK 922        TOTAL FREE ENERGY PREDICTED BY IDOCK:   -3.83 KCAL/MOL
REMARK 923 INTER-LIGAND FREE ENERGY PREDICTED BY IDOCK:   -3.65 KCAL/MOL
REMARK 924 INTRA-LIGAND FREE ENERGY PREDICTED BY IDOCK:   -0.18 KCAL/MOL
REMARK 927      BINDING AFFINITY PREDICTED BY RF-SCORE:    0.00 PKD
ROOT
HETATM    1  N   UNL     1     -11.814   7.518  70.666  1.00  0.00    -0.464 NA 
HETATM    2  C   UNL     1     -11.755   8.694  71.528  1.00  0.00    -0.305 C  
HETATM    3  H1  UNL     1     -12.367   6.783  71.108  1.00  0.00     0.000 HD 
HETATM    4  H2  UNL     1     -10.883   7.189  70.407  1.00  0.00     0.000 HD 
ENDROOT
BRANCH   2   5
HETATM    5  C   UNL     1     -13.163   9.136  71.813  1.00  0.00    -0.459 C  
HETATM    6  C   UNL     1     -14.237   8.338  71.737  1.00  0.00    -0.544 C  
ENDBRANCH   2   5
BRANCH   2   7
HETATM    7  C   UNL     1     -10.921   9.801  70.863  1.00  0.00    -0.411 C  
BRANCH   7   8
HETATM    8  C   UNL     1     -11.774  10.755  70.021  1.00  0.00    -0.417 C  
HETATM    9  C   UNL     1     -11.285  10.830  68.595  1.00  0.00    -0.274 C  
HETATM   10  O   UNL     1     -10.319  10.236  68.146  1.00  0.00    -0.160 OA 
HETATM   11  O   UNL     1     -12.050  11.649  67.835  1.00  0.00    -0.613 OA 
ENDBRANCH   7   8
ENDBRANCH   2   7
TORSDOF 3
ENDMDL
MODEL       64
REMARK 921   NORMALIZED FREE ENERGY PREDICTED BY IDOCK:   -3.04 KCAL/MOL
REMARK 922        TOTAL FREE ENERGY PREDICTED BY IDOCK:   -3.83 KCAL/MOL
REMARK 923 INTER-LIGAND FREE ENERGY PREDICTED BY IDOCK:   -3.77 KCAL/MOL
REMARK 924 INTRA-LIGAND FREE ENERGY PREDICTED BY IDOCK:   -0.06 KCAL/MOL
REMARK 927      BINDING AFFINITY PREDICTED BY RF-SCORE:    0.00 PKD
ROOT
HETATM    1  N   UNL     1      -9.680  15.022  69.503  1.00  0.00    -0.403 NA 
HETATM    2  C   UNL     1      -9.705  15.935  68.364  1.00  0.00    -0.214 C  
HETATM    3  H1  UNL     1      -9.240  15.470  70.307  1.00  0.00     0.000 HD 
HETATM    4  H2  UNL     1      -9.233  14.135  69.270  1.00  0.00     0.000 HD 
ENDROOT
BRANCH   2   5
HETATM    5  C   UNL     1     -10.426  17.185  68.784  1.00  0.00    -0.351 C  
HETATM    6  C   UNL     1      -9.953  18.427  68.611  1.00  0.00    -0.415 C  
ENDBRANCH   2   5
BRANCH   2   7
HETATM    7  C   UNL     1     -10.368  15.258  67.154  1.00  0.00    -0.265 C  
BRANCH   7   8
HETATM    8  C   UNL     1     -10.418  16.170  65.924  1.00  0.00    -0.366 C  
HETATM    9  C   UNL     1     -11.382  15.653  64.884  1.00  0.00    -0.315 C  
HETATM   10  O   UNL     1     -12.035  14.627  64.973  1.00  0.00    -0.379 OA 
HETATM   11  O   UNL     1     -11.456  16.467  63.805  1.00  0.00    -1.065 OA 
ENDBRANCH   7   8
ENDBRANCH   2   7
TORSDOF 3
ENDMDL
MODEL       65
REMARK 921   NORMALIZED FREE ENERGY PREDICTED BY IDOCK:   -3.01 KCAL/MOL
REMARK 922        TOTAL FREE ENERGY PREDICTED BY IDOCK:   -3.79 KCAL/MOL
REMARK 923 INTER-LIGAND FREE ENERGY PREDICTED BY IDOCK:   -3.68 KCAL/MOL
REMARK 924 INTRA-LIGAND FREE ENERGY PREDICTED BY IDOCK:   -0.11 KCAL/MOL
REMARK 927      BINDING AFFINITY PREDICTED BY RF-SCORE:    0.00 PKD
ROOT
HETATM    1  N   UNL     1     -13.282  10.297  70.276  1.00  0.00    -0.486 NA 
HETATM    2  C   UNL     1     -12.231  11.141  70.837  1.00  0.00    -0.364 C  
HETATM    3  H1  UNL     1     -13.628   9.647  70.983  1.00  0.00     0.000 HD 
HETATM    4  H2  UNL     1     -12.971   9.813  69.434  1.00  0.00     0.000 HD 
ENDROOT
BRANCH   2   5
HETATM    5  C   UNL     1     -12.793  11.851  72.037  1.00  0.00    -0.248 C  
HETATM    6  C   UNL     1     -13.305  13.090  72.013  1.00  0.00    -0.588 C  
ENDBRANCH   2   5
BRANCH   2   7
HETATM    7  C   UNL     1     -11.709  12.119  69.772  1.00  0.00    -0.381 C  
BRANCH   7   8
HETATM    8  C   UNL     1     -11.834  11.563  68.350  1.00  0.00    -0.353 C  
HETATM    9  C   UNL     1     -11.902  12.666  67.322  1.00  0.00    -0.328 C  
HETATM   10  O   UNL     1     -11.888  13.861  67.566  1.00  0.00    -0.356 OA 
HETATM   11  O   UNL     1     -11.983  12.184  66.060  1.00  0.00    -0.578 OA 
ENDBRANCH   7   8
ENDBRANCH   2   7
TORSDOF 3
ENDMDL
MODEL       66
REMARK 921   NORMALIZED FREE ENERGY PREDICTED BY IDOCK:   -3.01 KCAL/MOL
REMARK 922        TOTAL FREE ENERGY PREDICTED BY IDOCK:   -3.79 KCAL/MOL
REMARK 923 INTER-LIGAND FREE ENERGY PREDICTED BY IDOCK:   -3.65 KCAL/MOL
REMARK 924 INTRA-LIGAND FREE ENERGY PREDICTED BY IDOCK:   -0.14 KCAL/MOL
REMARK 927      BINDING AFFINITY PREDICTED BY RF-SCORE:    0.00 PKD
ROOT
HETATM    1  N   UNL     1     -13.737   8.245  72.403  1.00  0.00    -0.580 NA 
HETATM    2  C   UNL     1     -12.602   9.110  72.094  1.00  0.00    -0.381 C  
HETATM    3  H1  UNL     1     -14.484   8.785  72.840  1.00  0.00     0.000 HD 
HETATM    4  H2  UNL     1     -13.462   7.446  72.974  1.00  0.00     0.000 HD 
ENDROOT
BRANCH   2   5
HETATM    5  C   UNL     1     -13.090  10.224  71.210  1.00  0.00    -0.492 C  
HETATM    6  C   UNL     1     -12.861  11.525  71.435  1.00  0.00    -0.489 C  
ENDBRANCH   2   5
BRANCH   2   7
HETATM    7  C   UNL     1     -11.476   8.296  71.436  1.00  0.00    -0.314 C  
BRANCH   7   8
HETATM    8  C   UNL     1     -10.083   8.824  71.792  1.00  0.00    -0.403 C  
HETATM    9  C   UNL     1      -9.546   8.185  73.049  1.00  0.00    -0.266 C  
HETATM   10  O   UNL     1     -10.137   7.365  73.733  1.00  0.00    -0.327 OA 
HETATM   11  O   UNL     1      -8.303   8.623  73.356  1.00  0.00    -0.398 OA 
ENDBRANCH   7   8
ENDBRANCH   2   7
TORSDOF 3
ENDMDL
MODEL       67
REMARK 921   NORMALIZED FREE ENERGY PREDICTED BY IDOCK:   -3.01 KCAL/MOL
REMARK 922        TOTAL FREE ENERGY PREDICTED BY IDOCK:   -3.79 KCAL/MOL
REMARK 923 INTER-LIGAND FREE ENERGY PREDICTED BY IDOCK:   -3.57 KCAL/MOL
REMARK 924 INTRA-LIGAND FREE ENERGY PREDICTED BY IDOCK:   -0.22 KCAL/MOL
REMARK 927      BINDING AFFINITY PREDICTED BY RF-SCORE:    0.00 PKD
ROOT
HETATM    1  N   UNL     1     -12.384  10.729  68.757  1.00  0.00    -0.792 NA 
HETATM    2  C   UNL     1     -11.635  10.962  69.989  1.00  0.00    -0.341 C  
HETATM    3  H1  UNL     1     -11.761  10.777  67.951  1.00  0.00     0.000 HD 
HETATM    4  H2  UNL     1     -13.175  11.367  68.666  1.00  0.00     0.000 HD 
ENDROOT
BRANCH   2   5
HETATM    5  C   UNL     1     -10.529   9.947  70.062  1.00  0.00    -0.331 C  
HETATM    6  C   UNL     1     -10.328   8.979  69.158  1.00  0.00    -0.229 C  
ENDBRANCH   2   5
BRANCH   2   7
HETATM    7  C   UNL     1     -12.574  10.891  71.204  1.00  0.00    -0.532 C  
BRANCH   7   8
HETATM    8  C   UNL     1     -13.643   9.803  71.059  1.00  0.00    -0.170 C  
HETATM    9  C   UNL     1     -13.341   8.603  71.923  1.00  0.00    -0.382 C  
HETATM   10  O   UNL     1     -12.362   8.476  72.639  1.00  0.00    -0.378 OA 
HETATM   11  O   UNL     1     -14.295   7.648  71.824  1.00  0.00    -0.413 OA 
ENDBRANCH   7   8
ENDBRANCH   2   7
TORSDOF 3
ENDMDL
MODEL       68
REMARK 921   NORMALIZED FREE ENERGY PREDICTED BY IDOCK:   -3.00 KCAL/MOL
REMARK 922        TOTAL FREE ENERGY PREDICTED BY IDOCK:   -3.78 KCAL/MOL
REMARK 923 INTER-LIGAND FREE ENERGY PREDICTED BY IDOCK:   -3.47 KCAL/MOL
REMARK 924 INTRA-LIGAND FREE ENERGY PREDICTED BY IDOCK:   -0.31 KCAL/MOL
REMARK 927      BINDING AFFINITY PREDICTED BY RF-SCORE:    0.00 PKD
ROOT
HETATM    1  N   UNL     1     -11.049   8.989  68.570  1.00  0.00    -0.450 NA 
HETATM    2  C   UNL     1     -10.340   8.424  69.715  1.00  0.00    -0.216 C  
HETATM    3  H1  UNL     1     -10.985   8.360  67.770  1.00  0.00     0.000 HD 
HETATM    4  H2  UNL     1     -10.719   9.927  68.345  1.00  0.00     0.000 HD 
ENDROOT
BRANCH   2   5
HETATM    5  C   UNL     1     -10.926   7.070  70.006  1.00  0.00    -0.303 C  
HETATM    6  C   UNL     1     -11.032   6.082  69.107  1.00  0.00    -0.429 C  
ENDBRANCH   2   5
BRANCH   2   7
HETATM    7  C   UNL     1     -10.436   9.371  70.921  1.00  0.00    -0.381 C  
BRANCH   7   8
HETATM    8  C   UNL     1     -11.496   8.928  71.935  1.00  0.00    -0.442 C  
HETATM    9  C   UNL     1     -12.829   9.584  71.672  1.00  0.00    -0.393 C  
HETATM   10  O   UNL     1     -13.058  10.391  70.786  1.00  0.00    -0.385 OA 
HETATM   11  O   UNL     1     -13.781   9.178  72.545  1.00  0.00    -0.474 OA 
ENDBRANCH   7   8
ENDBRANCH   2   7
TORSDOF 3
ENDMDL
MODEL       69
REMARK 921   NORMALIZED FREE ENERGY PREDICTED BY IDOCK:   -2.99 KCAL/MOL
REMARK 922        TOTAL FREE ENERGY PREDICTED BY IDOCK:   -3.77 KCAL/MOL
REMARK 923 INTER-LIGAND FREE ENERGY PREDICTED BY IDOCK:   -3.69 KCAL/MOL
REMARK 924 INTRA-LIGAND FREE ENERGY PREDICTED BY IDOCK:   -0.08 KCAL/MOL
REMARK 927      BINDING AFFINITY PREDICTED BY RF-SCORE:    0.00 PKD
ROOT
HETATM    1  N   UNL     1      -9.817  12.898  63.875  1.00  0.00    -0.711 NA 
HETATM    2  C   UNL     1     -11.172  12.596  64.324  1.00  0.00    -0.362 C  
HETATM    3  H1  UNL     1      -9.783  12.939  62.856  1.00  0.00     0.000 HD 
HETATM    4  H2  UNL     1      -9.135  12.239  64.252  1.00  0.00     0.000 HD 
ENDROOT
BRANCH   2   5
HETATM    5  C   UNL     1     -12.094  13.644  63.766  1.00  0.00    -0.435 C  
HETATM    6  C   UNL     1     -12.332  14.829  64.344  1.00  0.00    -0.389 C  
ENDBRANCH   2   5
BRANCH   2   7
HETATM    7  C   UNL     1     -11.223  12.534  65.859  1.00  0.00    -0.356 C  
BRANCH   7   8
HETATM    8  C   UNL     1     -10.538  11.284  66.421  1.00  0.00    -0.316 C  
HETATM    9  C   UNL     1     -11.137  10.863  67.741  1.00  0.00    -0.309 C  
HETATM   10  O   UNL     1     -12.039  11.443  68.324  1.00  0.00    -0.606 OA 
HETATM   11  O   UNL     1     -10.559   9.743  68.231  1.00  0.00    -0.209 OA 
ENDBRANCH   7   8
ENDBRANCH   2   7
TORSDOF 3
ENDMDL
MODEL       70
REMARK 921   NORMALIZED FREE ENERGY PREDICTED BY IDOCK:   -2.99 KCAL/MOL
REMARK 922        TOTAL FREE ENERGY PREDICTED BY IDOCK:   -3.77 KCAL/MOL
REMARK 923 INTER-LIGAND FREE ENERGY PREDICTED BY IDOCK:   -3.68 KCAL/MOL
REMARK 924 INTRA-LIGAND FREE ENERGY PREDICTED BY IDOCK:   -0.08 KCAL/MOL
REMARK 927      BINDING AFFINITY PREDICTED BY RF-SCORE:    0.00 PKD
ROOT
HETATM    1  N   UNL     1     -10.557  16.337  67.559  1.00  0.00    -0.309 NA 
HETATM    2  C   UNL     1     -11.485  15.737  68.514  1.00  0.00    -0.379 C  
HETATM    3  H1  UNL     1     -10.343  17.297  67.829  1.00  0.00     0.000 HD 
HETATM    4  H2  UNL     1     -10.906  16.278  66.602  1.00  0.00     0.000 HD 
ENDROOT
BRANCH   2   5
HETATM    5  C   UNL     1     -10.866  15.821  69.882  1.00  0.00    -0.330 C  
HETATM    6  C   UNL     1     -11.433  15.347  71.000  1.00  0.00    -0.407 C  
ENDBRANCH   2   5
BRANCH   2   7
HETATM    7  C   UNL     1     -11.806  14.290  68.107  1.00  0.00    -0.374 C  
BRANCH   7   8
HETATM    8  C   UNL     1     -12.046  14.141  66.601  1.00  0.00    -0.480 C  
HETATM    9  C   UNL     1     -12.086  12.692  66.182  1.00  0.00    -0.333 C  
HETATM   10  O   UNL     1     -11.925  11.737  66.924  1.00  0.00    -0.605 OA 
HETATM   11  O   UNL     1     -12.327  12.549  64.858  1.00  0.00    -0.466 OA 
ENDBRANCH   7   8
ENDBRANCH   2   7
TORSDOF 3
ENDMDL
MODEL       71
REMARK 921   NORMALIZED FREE ENERGY PREDICTED BY IDOCK:   -2.97 KCAL/MOL
REMARK 922        TOTAL FREE ENERGY PREDICTED BY IDOCK:   -3.75 KCAL/MOL
REMARK 923 INTER-LIGAND FREE ENERGY PREDICTED BY IDOCK:   -3.63 KCAL/MOL
REMARK 924 INTRA-LIGAND FREE ENERGY PREDICTED BY IDOCK:   -0.12 KCAL/MOL
REMARK 927      BINDING AFFINITY PREDICTED BY RF-SCORE:    0.00 PKD
ROOT
HETATM    1  N   UNL     1      -9.859  14.988  68.793  1.00  0.00    -0.226 NA 
HETATM    2  C   UNL     1     -10.473  15.209  67.487  1.00  0.00    -0.258 C  
HETATM    3  H1  UNL     1      -8.977  15.496  68.860  1.00  0.00     0.000 HD 
HETATM    4  H2  UNL     1      -9.742  13.995  68.995  1.00  0.00     0.000 HD 
ENDROOT
BRANCH   2   5
HETATM    5  C   UNL     1     -10.654  16.690  67.301  1.00  0.00    -0.281 C  
HETATM    6  C   UNL     1     -10.276  17.368  66.208  1.00  0.00    -0.344 C  
ENDBRANCH   2   5
BRANCH   2   7
HETATM    7  C   UNL     1     -11.801  14.443  67.386  1.00  0.00    -0.430 C  
BRANCH   7   8
HETATM    8  C   UNL     1     -12.272  14.266  65.939  1.00  0.00    -0.422 C  
HETATM    9  C   UNL     1     -12.405  12.810  65.568  1.00  0.00    -0.434 C  
HETATM   10  O   UNL     1     -12.152  11.868  66.300  1.00  0.00    -0.535 OA 
HETATM   11  O   UNL     1     -12.848  12.644  64.300  1.00  0.00    -0.699 OA 
ENDBRANCH   7   8
ENDBRANCH   2   7
TORSDOF 3
ENDMDL
MODEL       72
REMARK 921   NORMALIZED FREE ENERGY PREDICTED BY IDOCK:   -2.96 KCAL/MOL
REMARK 922        TOTAL FREE ENERGY PREDICTED BY IDOCK:   -3.73 KCAL/MOL
REMARK 923 INTER-LIGAND FREE ENERGY PREDICTED BY IDOCK:   -3.47 KCAL/MOL
REMARK 924 INTRA-LIGAND FREE ENERGY PREDICTED BY IDOCK:   -0.26 KCAL/MOL
REMARK 927      BINDING AFFINITY PREDICTED BY RF-SCORE:    0.00 PKD
ROOT
HETATM    1  N   UNL     1     -12.088   6.897  70.304  1.00  0.00    -0.627 NA 
HETATM    2  C   UNL     1     -12.388   7.384  71.647  1.00  0.00    -0.341 C  
HETATM    3  H1  UNL     1     -12.693   6.110  70.071  1.00  0.00     0.000 HD 
HETATM    4  H2  UNL     1     -11.101   6.664  70.196  1.00  0.00     0.000 HD 
ENDROOT
BRANCH   2   5
HETATM    5  C   UNL     1     -13.845   7.752  71.696  1.00  0.00    -0.465 C  
HETATM    6  C   UNL     1     -14.340   8.799  72.371  1.00  0.00    -0.419 C  
ENDBRANCH   2   5
BRANCH   2   7
HETATM    7  C   UNL     1     -11.476   8.571  71.999  1.00  0.00    -0.431 C  
BRANCH   7   8
HETATM    8  C   UNL     1     -10.711   9.105  70.784  1.00  0.00    -0.327 C  
HETATM    9  C   UNL     1     -11.266  10.426  70.311  1.00  0.00    -0.320 C  
HETATM   10  O   UNL     1     -12.221  11.008  70.799  1.00  0.00    -0.329 OA 
HETATM   11  O   UNL     1     -10.578  10.922  69.256  1.00  0.00    -0.213 OA 
ENDBRANCH   7   8
ENDBRANCH   2   7
TORSDOF 3
ENDMDL
MODEL       73
REMARK 921   NORMALIZED FREE ENERGY PREDICTED BY IDOCK:   -2.93 KCAL/MOL
REMARK 922        TOTAL FREE ENERGY PREDICTED BY IDOCK:   -3.70 KCAL/MOL
REMARK 923 INTER-LIGAND FREE ENERGY PREDICTED BY IDOCK:   -3.63 KCAL/MOL
REMARK 924 INTRA-LIGAND FREE ENERGY PREDICTED BY IDOCK:   -0.07 KCAL/MOL
REMARK 927      BINDING AFFINITY PREDICTED BY RF-SCORE:    0.00 PKD
ROOT
HETATM    1  N   UNL     1     -11.057  14.917  70.650  1.00  0.00    -0.481 NA 
HETATM    2  C   UNL     1     -12.311  14.247  70.318  1.00  0.00    -0.354 C  
HETATM    3  H1  UNL     1     -11.244  15.795  71.136  1.00  0.00     0.000 HD 
HETATM    4  H2  UNL     1     -10.471  15.055  69.827  1.00  0.00     0.000 HD 
ENDROOT
BRANCH   2   5
HETATM    5  C   UNL     1     -13.081  14.039  71.592  1.00  0.00    -0.435 C  
HETATM    6  C   UNL     1     -13.945  14.925  72.108  1.00  0.00    -0.598 C  
ENDBRANCH   2   5
BRANCH   2   7
HETATM    7  C   UNL     1     -12.030  12.925  69.586  1.00  0.00    -0.358 C  
BRANCH   7   8
HETATM    8  C   UNL     1     -10.787  12.999  68.692  1.00  0.00    -0.287 C  
HETATM    9  C   UNL     1     -11.042  12.404  67.329  1.00  0.00    -0.281 C  
HETATM   10  O   UNL     1     -12.090  11.896  66.965  1.00  0.00    -0.600 OA 
HETATM   11  O   UNL     1      -9.959  12.491  66.523  1.00  0.00    -0.233 OA 
ENDBRANCH   7   8
ENDBRANCH   2   7
TORSDOF 3
ENDMDL
MODEL       74
REMARK 921   NORMALIZED FREE ENERGY PREDICTED BY IDOCK:   -2.91 KCAL/MOL
REMARK 922        TOTAL FREE ENERGY PREDICTED BY IDOCK:   -3.68 KCAL/MOL
REMARK 923 INTER-LIGAND FREE ENERGY PREDICTED BY IDOCK:   -3.45 KCAL/MOL
REMARK 924 INTRA-LIGAND FREE ENERGY PREDICTED BY IDOCK:   -0.23 KCAL/MOL
REMARK 927      BINDING AFFINITY PREDICTED BY RF-SCORE:    0.00 PKD
ROOT
HETATM    1  N   UNL     1     -10.400  19.906  69.194  1.00  0.00    -0.600 NA 
HETATM    2  C   UNL     1      -9.634  18.872  68.504  1.00  0.00    -0.380 C  
HETATM    3  H1  UNL     1      -9.905  20.213  70.031  1.00  0.00     0.000 HD 
HETATM    4  H2  UNL     1     -11.350  19.600  69.404  1.00  0.00     0.000 HD 
ENDROOT
BRANCH   2   5
HETATM    5  C   UNL     1      -8.274  19.429  68.189  1.00  0.00    -0.359 C  
HETATM    6  C   UNL     1      -8.002  20.212  67.135  1.00  0.00    -0.363 C  
ENDBRANCH   2   5
BRANCH   2   7
HETATM    7  C   UNL     1     -10.381  18.409  67.242  1.00  0.00    -0.417 C  
BRANCH   7   8
HETATM    8  C   UNL     1     -10.533  16.886  67.173  1.00  0.00    -0.296 C  
HETATM    9  C   UNL     1      -9.479  16.258  66.295  1.00  0.00    -0.316 C  
HETATM   10  O   UNL     1      -8.616  16.865  65.682  1.00  0.00    -0.443 OA 
HETATM   11  O   UNL     1      -9.587  14.910  66.251  1.00  0.00    -0.272 OA 
ENDBRANCH   7   8
ENDBRANCH   2   7
TORSDOF 3
ENDMDL
MODEL       75
REMARK 921   NORMALIZED FREE ENERGY PREDICTED BY IDOCK:   -2.86 KCAL/MOL
REMARK 922        TOTAL FREE ENERGY PREDICTED BY IDOCK:   -3.62 KCAL/MOL
REMARK 923 INTER-LIGAND FREE ENERGY PREDICTED BY IDOCK:   -3.29 KCAL/MOL
REMARK 924 INTRA-LIGAND FREE ENERGY PREDICTED BY IDOCK:   -0.33 KCAL/MOL
REMARK 927      BINDING AFFINITY PREDICTED BY RF-SCORE:    0.00 PKD
ROOT
HETATM    1  N   UNL     1     -12.052   6.771  70.066  1.00  0.00    -0.638 NA 
HETATM    2  C   UNL     1     -12.498   6.778  71.456  1.00  0.00    -0.341 C  
HETATM    3  H1  UNL     1     -12.793   7.114  69.455  1.00  0.00     0.000 HD 
HETATM    4  H2  UNL     1     -11.717   5.852  69.780  1.00  0.00     0.000 HD 
ENDROOT
BRANCH   2   5
HETATM    5  C   UNL     1     -12.921   8.178  71.804  1.00  0.00    -0.364 C  
HETATM    6  C   UNL     1     -14.188   8.553  72.029  1.00  0.00    -0.535 C  
ENDBRANCH   2   5
BRANCH   2   7
HETATM    7  C   UNL     1     -11.381   6.262  72.377  1.00  0.00    -0.333 C  
BRANCH   7   8
HETATM    8  C   UNL     1     -10.566   7.396  73.007  1.00  0.00    -0.392 C  
HETATM    9  C   UNL     1      -9.308   7.682  72.223  1.00  0.00    -0.151 C  
HETATM   10  O   UNL     1      -8.947   7.084  71.223  1.00  0.00    -0.138 OA 
HETATM   11  O   UNL     1      -8.595   8.702  72.755  1.00  0.00    -0.394 OA 
ENDBRANCH   7   8
ENDBRANCH   2   7
TORSDOF 3
ENDMDL
MODEL       76
REMARK 921   NORMALIZED FREE ENERGY PREDICTED BY IDOCK:   -2.83 KCAL/MOL
REMARK 922        TOTAL FREE ENERGY PREDICTED BY IDOCK:   -3.58 KCAL/MOL
REMARK 923 INTER-LIGAND FREE ENERGY PREDICTED BY IDOCK:   -3.46 KCAL/MOL
REMARK 924 INTRA-LIGAND FREE ENERGY PREDICTED BY IDOCK:   -0.13 KCAL/MOL
REMARK 927      BINDING AFFINITY PREDICTED BY RF-SCORE:    0.00 PKD
ROOT
HETATM    1  N   UNL     1     -10.491  17.738  67.441  1.00  0.00    -0.367 NA 
HETATM    2  C   UNL     1      -9.449  16.741  67.212  1.00  0.00    -0.230 C  
HETATM    3  H1  UNL     1     -10.083  18.598  67.807  1.00  0.00     0.000 HD 
HETATM    4  H2  UNL     1     -11.231  17.382  68.046  1.00  0.00     0.000 HD 
ENDROOT
BRANCH   2   5
HETATM    5  C   UNL     1      -8.435  17.333  66.273  1.00  0.00    -0.278 C  
HETATM    6  C   UNL     1      -7.111  17.163  66.383  1.00  0.00    -0.310 C  
ENDBRANCH   2   5
BRANCH   2   7
HETATM    7  C   UNL     1     -10.065  15.445  66.662  1.00  0.00    -0.273 C  
BRANCH   7   8
HETATM    8  C   UNL     1     -10.757  15.648  65.310  1.00  0.00    -0.444 C  
HETATM    9  C   UNL     1     -11.959  14.749  65.156  1.00  0.00    -0.278 C  
HETATM   10  O   UNL     1     -12.341  13.933  65.978  1.00  0.00    -0.443 OA 
HETATM   11  O   UNL     1     -12.594  14.942  63.976  1.00  0.00    -0.832 OA 
ENDBRANCH   7   8
ENDBRANCH   2   7
TORSDOF 3
ENDMDL
MODEL       77
REMARK 921   NORMALIZED FREE ENERGY PREDICTED BY IDOCK:   -2.79 KCAL/MOL
REMARK 922        TOTAL FREE ENERGY PREDICTED BY IDOCK:   -3.54 KCAL/MOL
REMARK 923 INTER-LIGAND FREE ENERGY PREDICTED BY IDOCK:   -3.39 KCAL/MOL
REMARK 924 INTRA-LIGAND FREE ENERGY PREDICTED BY IDOCK:   -0.14 KCAL/MOL
REMARK 927      BINDING AFFINITY PREDICTED BY RF-SCORE:    0.00 PKD
ROOT
HETATM    1  N   UNL     1      -9.440  14.900  69.488  1.00  0.00    -0.425 NA 
HETATM    2  C   UNL     1     -10.125  16.168  69.253  1.00  0.00    -0.260 C  
HETATM    3  H1  UNL     1     -10.050  14.257  69.993  1.00  0.00     0.000 HD 
HETATM    4  H2  UNL     1      -8.549  15.033  69.966  1.00  0.00     0.000 HD 
ENDROOT
BRANCH   2   5
HETATM    5  C   UNL     1     -11.395  15.880  68.501  1.00  0.00    -0.374 C  
HETATM    6  C   UNL     1     -11.506  14.974  67.520  1.00  0.00    -0.339 C  
ENDBRANCH   2   5
BRANCH   2   7
HETATM    7  C   UNL     1      -9.206  17.137  68.493  1.00  0.00    -0.264 C  
BRANCH   7   8
HETATM    8  C   UNL     1      -9.895  18.465  68.161  1.00  0.00    -0.365 C  
HETATM    9  C   UNL     1     -10.228  18.571  66.693  1.00  0.00    -0.399 C  
HETATM   10  O   UNL     1      -9.969  17.731  65.847  1.00  0.00    -0.527 OA 
HETATM   11  O   UNL     1     -10.863  19.728  66.395  1.00  0.00    -0.440 OA 
ENDBRANCH   7   8
ENDBRANCH   2   7
TORSDOF 3
ENDMDL
MODEL       78
REMARK 921   NORMALIZED FREE ENERGY PREDICTED BY IDOCK:   -2.79 KCAL/MOL
REMARK 922        TOTAL FREE ENERGY PREDICTED BY IDOCK:   -3.53 KCAL/MOL
REMARK 923 INTER-LIGAND FREE ENERGY PREDICTED BY IDOCK:   -3.47 KCAL/MOL
REMARK 924 INTRA-LIGAND FREE ENERGY PREDICTED BY IDOCK:   -0.06 KCAL/MOL
REMARK 927      BINDING AFFINITY PREDICTED BY RF-SCORE:    0.00 PKD
ROOT
HETATM    1  N   UNL     1     -10.860  15.065  71.452  1.00  0.00    -0.504 NA 
HETATM    2  C   UNL     1     -11.888  15.900  70.837  1.00  0.00    -0.417 C  
HETATM    3  H1  UNL     1     -11.147  14.786  72.391  1.00  0.00     0.000 HD 
HETATM    4  H2  UNL     1      -9.949  15.523  71.453  1.00  0.00     0.000 HD 
ENDROOT
BRANCH   2   5
HETATM    5  C   UNL     1     -13.177  15.127  70.832  1.00  0.00    -0.488 C  
HETATM    6  C   UNL     1     -14.117  15.216  71.784  1.00  0.00    -0.645 C  
ENDBRANCH   2   5
BRANCH   2   7
HETATM    7  C   UNL     1     -11.456  16.321  69.423  1.00  0.00    -0.238 C  
BRANCH   7   8
HETATM    8  C   UNL     1     -10.079  16.993  69.404  1.00  0.00    -0.139 C  
HETATM    9  C   UNL     1      -9.949  17.968  68.259  1.00  0.00    -0.371 C  
HETATM   10  O   UNL     1     -10.808  18.195  67.423  1.00  0.00    -0.374 OA 
HETATM   11  O   UNL     1      -8.747  18.589  68.250  1.00  0.00    -0.294 OA 
ENDBRANCH   7   8
ENDBRANCH   2   7
TORSDOF 3
ENDMDL
MODEL       79
REMARK 921   NORMALIZED FREE ENERGY PREDICTED BY IDOCK:   -2.78 KCAL/MOL
REMARK 922        TOTAL FREE ENERGY PREDICTED BY IDOCK:   -3.53 KCAL/MOL
REMARK 923 INTER-LIGAND FREE ENERGY PREDICTED BY IDOCK:   -3.41 KCAL/MOL
REMARK 924 INTRA-LIGAND FREE ENERGY PREDICTED BY IDOCK:   -0.12 KCAL/MOL
REMARK 927      BINDING AFFINITY PREDICTED BY RF-SCORE:    0.00 PKD
ROOT
HETATM    1  N   UNL     1     -10.805  15.084  71.473  1.00  0.00    -0.459 NA 
HETATM    2  C   UNL     1     -11.749  15.998  70.838  1.00  0.00    -0.402 C  
HETATM    3  H1  UNL     1     -11.153  14.794  72.387  1.00  0.00     0.000 HD 
HETATM    4  H2  UNL     1      -9.869  15.484  71.532  1.00  0.00     0.000 HD 
ENDROOT
BRANCH   2   5
HETATM    5  C   UNL     1     -13.080  15.306  70.746  1.00  0.00    -0.468 C  
HETATM    6  C   UNL     1     -14.057  15.418  71.657  1.00  0.00    -0.618 C  
ENDBRANCH   2   5
BRANCH   2   7
HETATM    7  C   UNL     1     -11.224  16.435  69.462  1.00  0.00    -0.250 C  
BRANCH   7   8
HETATM    8  C   UNL     1     -11.598  15.451  68.349  1.00  0.00    -0.368 C  
HETATM    9  C   UNL     1     -10.615  15.501  67.204  1.00  0.00    -0.300 C  
HETATM   10  O   UNL     1      -9.648  16.242  67.135  1.00  0.00    -0.228 OA 
HETATM   11  O   UNL     1     -10.920  14.614  66.229  1.00  0.00    -0.315 OA 
ENDBRANCH   7   8
ENDBRANCH   2   7
TORSDOF 3
ENDMDL
MODEL       80
REMARK 921   NORMALIZED FREE ENERGY PREDICTED BY IDOCK:   -2.78 KCAL/MOL
REMARK 922        TOTAL FREE ENERGY PREDICTED BY IDOCK:   -3.53 KCAL/MOL
REMARK 923 INTER-LIGAND FREE ENERGY PREDICTED BY IDOCK:   -3.47 KCAL/MOL
REMARK 924 INTRA-LIGAND FREE ENERGY PREDICTED BY IDOCK:   -0.06 KCAL/MOL
REMARK 927      BINDING AFFINITY PREDICTED BY RF-SCORE:    0.00 PKD
ROOT
HETATM    1  N   UNL     1     -10.923  11.568  69.686  1.00  0.00    -0.449 NA 
HETATM    2  C   UNL     1     -11.646  12.512  68.838  1.00  0.00    -0.318 C  
HETATM    3  H1  UNL     1     -11.304  10.629  69.573  1.00  0.00     0.000 HD 
HETATM    4  H2  UNL     1     -10.917  11.862  70.662  1.00  0.00     0.000 HD 
ENDROOT
BRANCH   2   5
HETATM    5  C   UNL     1     -11.557  12.029  67.418  1.00  0.00    -0.388 C  
HETATM    6  C   UNL     1     -11.872  12.767  66.345  1.00  0.00    -0.472 C  
ENDBRANCH   2   5
BRANCH   2   7
HETATM    7  C   UNL     1     -11.072  13.928  69.009  1.00  0.00    -0.302 C  
BRANCH   7   8
HETATM    8  C   UNL     1     -12.154  14.970  69.308  1.00  0.00    -0.282 C  
HETATM    9  C   UNL     1     -12.779  14.754  70.665  1.00  0.00    -0.358 C  
HETATM   10  O   UNL     1     -12.495  13.854  71.438  1.00  0.00    -0.351 OA 
HETATM   11  O   UNL     1     -13.716  15.688  70.951  1.00  0.00    -0.549 OA 
ENDBRANCH   7   8
ENDBRANCH   2   7
TORSDOF 3
ENDMDL
MODEL       81
REMARK 921   NORMALIZED FREE ENERGY PREDICTED BY IDOCK:   -2.77 KCAL/MOL
REMARK 922        TOTAL FREE ENERGY PREDICTED BY IDOCK:   -3.51 KCAL/MOL
REMARK 923 INTER-LIGAND FREE ENERGY PREDICTED BY IDOCK:   -3.39 KCAL/MOL
REMARK 924 INTRA-LIGAND FREE ENERGY PREDICTED BY IDOCK:   -0.12 KCAL/MOL
REMARK 927      BINDING AFFINITY PREDICTED BY RF-SCORE:    0.00 PKD
ROOT
HETATM    1  N   UNL     1      -9.044  14.961  69.593  1.00  0.00    -0.447 NA 
HETATM    2  C   UNL     1     -10.326  15.594  69.296  1.00  0.00    -0.250 C  
HETATM    3  H1  UNL     1      -9.024  14.640  70.560  1.00  0.00     0.000 HD 
HETATM    4  H2  UNL     1      -8.258  15.576  69.379  1.00  0.00     0.000 HD 
ENDROOT
BRANCH   2   5
HETATM    5  C   UNL     1     -11.415  14.600  69.589  1.00  0.00    -0.329 C  
HETATM    6  C   UNL     1     -12.141  14.582  70.715  1.00  0.00    -0.398 C  
ENDBRANCH   2   5
BRANCH   2   7
HETATM    7  C   UNL     1     -10.355  16.078  67.837  1.00  0.00    -0.269 C  
BRANCH   7   8
HETATM    8  C   UNL     1     -11.136  15.132  66.919  1.00  0.00    -0.314 C  
HETATM    9  C   UNL     1     -11.031  15.546  65.471  1.00  0.00    -0.324 C  
HETATM   10  O   UNL     1     -10.429  16.523  65.057  1.00  0.00    -0.652 OA 
HETATM   11  O   UNL     1     -11.694  14.700  64.648  1.00  0.00    -0.404 OA 
ENDBRANCH   7   8
ENDBRANCH   2   7
TORSDOF 3
ENDMDL
MODEL       82
REMARK 921   NORMALIZED FREE ENERGY PREDICTED BY IDOCK:   -2.76 KCAL/MOL
REMARK 922        TOTAL FREE ENERGY PREDICTED BY IDOCK:   -3.50 KCAL/MOL
REMARK 923 INTER-LIGAND FREE ENERGY PREDICTED BY IDOCK:   -3.37 KCAL/MOL
REMARK 924 INTRA-LIGAND FREE ENERGY PREDICTED BY IDOCK:   -0.12 KCAL/MOL
REMARK 927      BINDING AFFINITY PREDICTED BY RF-SCORE:    0.00 PKD
ROOT
HETATM    1  N   UNL     1      -8.278  11.540  66.108  1.00  0.00    -0.366 NA 
HETATM    2  C   UNL     1      -9.583  10.895  66.003  1.00  0.00    -0.209 C  
HETATM    3  H1  UNL     1      -7.537  10.880  65.873  1.00  0.00     0.000 HD 
HETATM    4  H2  UNL     1      -8.135  11.962  67.026  1.00  0.00     0.000 HD 
ENDROOT
BRANCH   2   5
HETATM    5  C   UNL     1      -9.726  10.353  64.608  1.00  0.00    -0.392 C  
HETATM    6  C   UNL     1      -8.707  10.180  63.755  1.00  0.00    -0.220 C  
ENDBRANCH   2   5
BRANCH   2   7
HETATM    7  C   UNL     1     -10.700  11.890  66.358  1.00  0.00    -0.303 C  
BRANCH   7   8
HETATM    8  C   UNL     1     -11.327  12.537  65.119  1.00  0.00    -0.352 C  
HETATM    9  C   UNL     1     -12.149  13.751  65.478  1.00  0.00    -0.410 C  
HETATM   10  O   UNL     1     -12.330  14.173  66.609  1.00  0.00    -0.455 OA 
HETATM   11  O   UNL     1     -12.684  14.348  64.388  1.00  0.00    -0.665 OA 
ENDBRANCH   7   8
ENDBRANCH   2   7
TORSDOF 3
ENDMDL
MODEL       83
REMARK 921   NORMALIZED FREE ENERGY PREDICTED BY IDOCK:   -2.75 KCAL/MOL
REMARK 922        TOTAL FREE ENERGY PREDICTED BY IDOCK:   -3.48 KCAL/MOL
REMARK 923 INTER-LIGAND FREE ENERGY PREDICTED BY IDOCK:   -3.33 KCAL/MOL
REMARK 924 INTRA-LIGAND FREE ENERGY PREDICTED BY IDOCK:   -0.15 KCAL/MOL
REMARK 927      BINDING AFFINITY PREDICTED BY RF-SCORE:    0.00 PKD
ROOT
HETATM    1  N   UNL     1     -11.981  10.993  67.874  1.00  0.00    -0.727 NA 
HETATM    2  C   UNL     1     -11.908  12.411  67.537  1.00  0.00    -0.284 C  
HETATM    3  H1  UNL     1     -12.752  10.550  67.374  1.00  0.00     0.000 HD 
HETATM    4  H2  UNL     1     -12.044  10.843  68.881  1.00  0.00     0.000 HD 
ENDROOT
BRANCH   2   5
HETATM    5  C   UNL     1     -11.763  12.531  66.046  1.00  0.00    -0.472 C  
HETATM    6  C   UNL     1     -10.990  11.735  65.294  1.00  0.00    -0.350 C  
ENDBRANCH   2   5
BRANCH   2   7
HETATM    7  C   UNL     1     -10.746  13.078  68.291  1.00  0.00    -0.261 C  
BRANCH   7   8
HETATM    8  C   UNL     1     -10.408  14.468  67.741  1.00  0.00    -0.237 C  
HETATM    9  C   UNL     1     -11.149  15.556  68.479  1.00  0.00    -0.307 C  
HETATM   10  O   UNL     1     -11.944  15.379  69.388  1.00  0.00    -0.333 OA 
HETATM   11  O   UNL     1     -10.835  16.790  68.021  1.00  0.00    -0.355 OA 
ENDBRANCH   7   8
ENDBRANCH   2   7
TORSDOF 3
ENDMDL
MODEL       84
REMARK 921   NORMALIZED FREE ENERGY PREDICTED BY IDOCK:   -2.74 KCAL/MOL
REMARK 922        TOTAL FREE ENERGY PREDICTED BY IDOCK:   -3.48 KCAL/MOL
REMARK 923 INTER-LIGAND FREE ENERGY PREDICTED BY IDOCK:   -3.34 KCAL/MOL
REMARK 924 INTRA-LIGAND FREE ENERGY PREDICTED BY IDOCK:   -0.13 KCAL/MOL
REMARK 927      BINDING AFFINITY PREDICTED BY RF-SCORE:    0.00 PKD
ROOT
HETATM    1  N   UNL     1      -9.311  13.424  66.174  1.00  0.00    -0.470 NA 
HETATM    2  C   UNL     1     -10.545  12.995  65.522  1.00  0.00    -0.282 C  
HETATM    3  H1  UNL     1      -8.740  13.967  65.526  1.00  0.00     0.000 HD 
HETATM    4  H2  UNL     1      -8.796  12.637  66.569  1.00  0.00     0.000 HD 
ENDROOT
BRANCH   2   5
HETATM    5  C   UNL     1     -11.259  14.219  65.021  1.00  0.00    -0.364 C  
HETATM    6  C   UNL     1     -10.808  15.472  65.168  1.00  0.00    -0.452 C  
ENDBRANCH   2   5
BRANCH   2   7
HETATM    7  C   UNL     1     -11.406  12.177  66.498  1.00  0.00    -0.405 C  
BRANCH   7   8
HETATM    8  C   UNL     1     -11.681  12.923  67.808  1.00  0.00    -0.412 C  
HETATM    9  C   UNL     1     -11.865  11.972  68.965  1.00  0.00    -0.315 C  
HETATM   10  O   UNL     1     -11.830  10.754  68.892  1.00  0.00    -0.304 OA 
HETATM   11  O   UNL     1     -12.080  12.622  70.132  1.00  0.00    -0.341 OA 
ENDBRANCH   7   8
ENDBRANCH   2   7
TORSDOF 3
ENDMDL
MODEL       85
REMARK 921   NORMALIZED FREE ENERGY PREDICTED BY IDOCK:   -2.73 KCAL/MOL
REMARK 922        TOTAL FREE ENERGY PREDICTED BY IDOCK:   -3.47 KCAL/MOL
REMARK 923 INTER-LIGAND FREE ENERGY PREDICTED BY IDOCK:   -3.33 KCAL/MOL
REMARK 924 INTRA-LIGAND FREE ENERGY PREDICTED BY IDOCK:   -0.14 KCAL/MOL
REMARK 927      BINDING AFFINITY PREDICTED BY RF-SCORE:    0.00 PKD
ROOT
HETATM    1  N   UNL     1     -12.350  14.608  68.318  1.00  0.00    -0.593 NA 
HETATM    2  C   UNL     1     -11.815  14.578  66.959  1.00  0.00    -0.385 C  
HETATM    3  H1  UNL     1     -13.274  14.178  68.343  1.00  0.00     0.000 HD 
HETATM    4  H2  UNL     1     -12.359  15.553  68.701  1.00  0.00     0.000 HD 
ENDROOT
BRANCH   2   5
HETATM    5  C   UNL     1     -11.790  13.147  66.499  1.00  0.00    -0.456 C  
HETATM    6  C   UNL     1     -11.425  12.111  67.267  1.00  0.00    -0.413 C  
ENDBRANCH   2   5
BRANCH   2   7
HETATM    7  C   UNL     1     -10.423  15.227  66.921  1.00  0.00    -0.289 C  
BRANCH   7   8
HETATM    8  C   UNL     1     -10.464  16.728  67.225  1.00  0.00    -0.310 C  
HETATM    9  C   UNL     1      -9.670  17.070  68.462  1.00  0.00    -0.282 C  
HETATM   10  O   UNL     1      -9.079  16.268  69.167  1.00  0.00    -0.253 OA 
HETATM   11  O   UNL     1      -9.676  18.398  68.723  1.00  0.00    -0.348 OA 
ENDBRANCH   7   8
ENDBRANCH   2   7
TORSDOF 3
ENDMDL
MODEL       86
REMARK 921   NORMALIZED FREE ENERGY PREDICTED BY IDOCK:   -2.73 KCAL/MOL
REMARK 922        TOTAL FREE ENERGY PREDICTED BY IDOCK:   -3.46 KCAL/MOL
REMARK 923 INTER-LIGAND FREE ENERGY PREDICTED BY IDOCK:   -3.20 KCAL/MOL
REMARK 924 INTRA-LIGAND FREE ENERGY PREDICTED BY IDOCK:   -0.26 KCAL/MOL
REMARK 927      BINDING AFFINITY PREDICTED BY RF-SCORE:    0.00 PKD
ROOT
HETATM    1  N   UNL     1      -9.249  12.099  68.695  1.00  0.00    -0.386 NA 
HETATM    2  C   UNL     1     -10.050  10.916  68.396  1.00  0.00    -0.183 C  
HETATM    3  H1  UNL     1      -8.281  11.834  68.877  1.00  0.00     0.000 HD 
HETATM    4  H2  UNL     1      -9.645  12.643  69.462  1.00  0.00     0.000 HD 
ENDROOT
BRANCH   2   5
HETATM    5  C   UNL     1      -9.424  10.211  67.226  1.00  0.00    -0.178 C  
HETATM    6  C   UNL     1     -10.111   9.550  66.283  1.00  0.00    -0.327 C  
ENDBRANCH   2   5
BRANCH   2   7
HETATM    7  C   UNL     1     -11.509  11.316  68.122  1.00  0.00    -0.376 C  
BRANCH   7   8
HETATM    8  C   UNL     1     -11.666  12.814  67.843  1.00  0.00    -0.408 C  
HETATM    9  C   UNL     1     -12.086  13.076  66.417  1.00  0.00    -0.358 C  
HETATM   10  O   UNL     1     -12.261  12.222  65.564  1.00  0.00    -0.577 OA 
HETATM   11  O   UNL     1     -12.256  14.395  66.167  1.00  0.00    -0.403 OA 
ENDBRANCH   7   8
ENDBRANCH   2   7
TORSDOF 3
ENDMDL
MODEL       87
REMARK 921   NORMALIZED FREE ENERGY PREDICTED BY IDOCK:   -2.72 KCAL/MOL
REMARK 922        TOTAL FREE ENERGY PREDICTED BY IDOCK:   -3.46 KCAL/MOL
REMARK 923 INTER-LIGAND FREE ENERGY PREDICTED BY IDOCK:   -3.26 KCAL/MOL
REMARK 924 INTRA-LIGAND FREE ENERGY PREDICTED BY IDOCK:   -0.20 KCAL/MOL
REMARK 927      BINDING AFFINITY PREDICTED BY RF-SCORE:    0.00 PKD
ROOT
HETATM    1  N   UNL     1     -10.626  15.581  66.447  1.00  0.00    -0.307 NA 
HETATM    2  C   UNL     1     -10.721  14.153  66.160  1.00  0.00    -0.297 C  
HETATM    3  H1  UNL     1      -9.754  15.959  66.075  1.00  0.00     0.000 HD 
HETATM    4  H2  UNL     1     -10.732  15.777  67.442  1.00  0.00     0.000 HD 
ENDROOT
BRANCH   2   5
HETATM    5  C   UNL     1     -10.609  13.966  64.673  1.00  0.00    -0.432 C  
HETATM    6  C   UNL     1     -10.665  12.779  64.052  1.00  0.00    -0.457 C  
ENDBRANCH   2   5
BRANCH   2   7
HETATM    7  C   UNL     1     -12.034  13.584  66.721  1.00  0.00    -0.453 C  
BRANCH   7   8
HETATM    8  C   UNL     1     -11.802  12.539  67.817  1.00  0.00    -0.375 C  
HETATM    9  C   UNL     1     -11.975  13.127  69.196  1.00  0.00    -0.281 C  
HETATM   10  O   UNL     1     -12.241  14.293  69.439  1.00  0.00    -0.324 OA 
HETATM   11  O   UNL     1     -11.801  12.205  70.172  1.00  0.00    -0.333 OA 
ENDBRANCH   7   8
ENDBRANCH   2   7
TORSDOF 3
ENDMDL
MODEL       88
REMARK 921   NORMALIZED FREE ENERGY PREDICTED BY IDOCK:   -2.72 KCAL/MOL
REMARK 922        TOTAL FREE ENERGY PREDICTED BY IDOCK:   -3.45 KCAL/MOL
REMARK 923 INTER-LIGAND FREE ENERGY PREDICTED BY IDOCK:   -3.39 KCAL/MOL
REMARK 924 INTRA-LIGAND FREE ENERGY PREDICTED BY IDOCK:   -0.06 KCAL/MOL
REMARK 927      BINDING AFFINITY PREDICTED BY RF-SCORE:    0.00 PKD
ROOT
HETATM    1  N   UNL     1      -9.963  12.872  68.653  1.00  0.00    -0.391 NA 
HETATM    2  C   UNL     1     -11.120  12.035  68.348  1.00  0.00    -0.245 C  
HETATM    3  H1  UNL     1      -9.407  13.026  67.812  1.00  0.00     0.000 HD 
HETATM    4  H2  UNL     1      -9.404  12.486  69.414  1.00  0.00     0.000 HD 
ENDROOT
BRANCH   2   5
HETATM    5  C   UNL     1     -11.908  12.706  67.259  1.00  0.00    -0.395 C  
HETATM    6  C   UNL     1     -11.844  14.014  66.973  1.00  0.00    -0.458 C  
ENDBRANCH   2   5
BRANCH   2   7
HETATM    7  C   UNL     1     -11.958  11.803  69.616  1.00  0.00    -0.378 C  
BRANCH   7   8
HETATM    8  C   UNL     1     -11.655  10.459  70.285  1.00  0.00    -0.410 C  
HETATM    9  C   UNL     1     -12.585  10.187  71.441  1.00  0.00    -0.422 C  
HETATM   10  O   UNL     1     -13.463  10.938  71.834  1.00  0.00    -0.345 OA 
HETATM   11  O   UNL     1     -12.344   8.988  72.022  1.00  0.00    -0.350 OA 
ENDBRANCH   7   8
ENDBRANCH   2   7
TORSDOF 3
ENDMDL
MODEL       89
REMARK 921   NORMALIZED FREE ENERGY PREDICTED BY IDOCK:   -2.69 KCAL/MOL
REMARK 922        TOTAL FREE ENERGY PREDICTED BY IDOCK:   -3.41 KCAL/MOL
REMARK 923 INTER-LIGAND FREE ENERGY PREDICTED BY IDOCK:   -3.25 KCAL/MOL
REMARK 924 INTRA-LIGAND FREE ENERGY PREDICTED BY IDOCK:   -0.16 KCAL/MOL
REMARK 927      BINDING AFFINITY PREDICTED BY RF-SCORE:    0.00 PKD
ROOT
HETATM    1  N   UNL     1     -11.210   6.949  66.854  1.00  0.00    -0.713 NA 
HETATM    2  C   UNL     1     -10.381   6.989  68.055  1.00  0.00    -0.193 C  
HETATM    3  H1  UNL     1     -11.533   5.998  66.678  1.00  0.00     0.000 HD 
HETATM    4  H2  UNL     1     -10.728   7.343  66.046  1.00  0.00     0.000 HD 
ENDROOT
BRANCH   2   5
HETATM    5  C   UNL     1     -11.189   6.441  69.199  1.00  0.00    -0.421 C  
HETATM    6  C   UNL     1     -10.664   5.937  70.324  1.00  0.00    -0.383 C  
ENDBRANCH   2   5
BRANCH   2   7
HETATM    7  C   UNL     1      -9.894   8.422  68.320  1.00  0.00    -0.189 C  
BRANCH   7   8
HETATM    8  C   UNL     1     -10.839   9.481  67.741  1.00  0.00    -0.258 C  
HETATM    9  C   UNL     1     -11.334  10.430  68.805  1.00  0.00    -0.214 C  
HETATM   10  O   UNL     1     -11.054  10.371  69.991  1.00  0.00    -0.272 OA 
HETATM   11  O   UNL     1     -12.146  11.387  68.299  1.00  0.00    -0.606 OA 
ENDBRANCH   7   8
ENDBRANCH   2   7
TORSDOF 3
ENDMDL
MODEL       90
REMARK 921   NORMALIZED FREE ENERGY PREDICTED BY IDOCK:   -2.68 KCAL/MOL
REMARK 922        TOTAL FREE ENERGY PREDICTED BY IDOCK:   -3.41 KCAL/MOL
REMARK 923 INTER-LIGAND FREE ENERGY PREDICTED BY IDOCK:   -3.11 KCAL/MOL
REMARK 924 INTRA-LIGAND FREE ENERGY PREDICTED BY IDOCK:   -0.30 KCAL/MOL
REMARK 927      BINDING AFFINITY PREDICTED BY RF-SCORE:    0.00 PKD
ROOT
HETATM    1  N   UNL     1      -9.797  13.134  65.192  1.00  0.00    -0.521 NA 
HETATM    2  C   UNL     1     -10.313  12.326  64.092  1.00  0.00    -0.369 C  
HETATM    3  H1  UNL     1      -9.829  14.124  64.949  1.00  0.00     0.000 HD 
HETATM    4  H2  UNL     1      -8.861  12.841  65.473  1.00  0.00     0.000 HD 
ENDROOT
BRANCH   2   5
HETATM    5  C   UNL     1     -11.709  12.792  63.785  1.00  0.00    -0.562 C  
HETATM    6  C   UNL     1     -12.691  11.998  63.336  1.00  0.00    -0.527 C  
ENDBRANCH   2   5
BRANCH   2   7
HETATM    7  C   UNL     1     -10.264  10.834  64.458  1.00  0.00    -0.428 C  
BRANCH   7   8
HETATM    8  C   UNL     1      -9.175  10.075  63.693  1.00  0.00    -0.314 C  
HETATM    9  C   UNL     1      -7.870  10.054  64.452  1.00  0.00    -0.144 C  
HETATM   10  O   UNL     1      -7.671  10.589  65.530  1.00  0.00    -0.152 OA 
HETATM   11  O   UNL     1      -6.909   9.361  63.798  1.00  0.00    -0.091 OA 
ENDBRANCH   7   8
ENDBRANCH   2   7
TORSDOF 3
ENDMDL
MODEL       91
REMARK 921   NORMALIZED FREE ENERGY PREDICTED BY IDOCK:   -2.67 KCAL/MOL
REMARK 922        TOTAL FREE ENERGY PREDICTED BY IDOCK:   -3.39 KCAL/MOL
REMARK 923 INTER-LIGAND FREE ENERGY PREDICTED BY IDOCK:   -3.26 KCAL/MOL
REMARK 924 INTRA-LIGAND FREE ENERGY PREDICTED BY IDOCK:   -0.13 KCAL/MOL
REMARK 927      BINDING AFFINITY PREDICTED BY RF-SCORE:    0.00 PKD
ROOT
HETATM    1  N   UNL     1     -12.205  12.350  66.219  1.00  0.00    -0.583 NA 
HETATM    2  C   UNL     1     -10.924  12.133  65.552  1.00  0.00    -0.301 C  
HETATM    3  H1  UNL     1     -12.663  13.180  65.842  1.00  0.00     0.000 HD 
HETATM    4  H2  UNL     1     -12.103  12.400  67.232  1.00  0.00     0.000 HD 
ENDROOT
BRANCH   2   5
HETATM    5  C   UNL     1     -11.179  12.021  64.075  1.00  0.00    -0.468 C  
HETATM    6  C   UNL     1     -12.396  12.041  63.513  1.00  0.00    -0.661 C  
ENDBRANCH   2   5
BRANCH   2   7
HETATM    7  C   UNL     1     -10.234  10.883  66.121  1.00  0.00    -0.304 C  
BRANCH   7   8
HETATM    8  C   UNL     1     -10.851  10.420  67.444  1.00  0.00    -0.344 C  
HETATM    9  C   UNL     1     -10.037  10.875  68.631  1.00  0.00    -0.191 C  
HETATM   10  O   UNL     1      -8.998  11.512  68.572  1.00  0.00    -0.165 OA 
HETATM   11  O   UNL     1     -10.589  10.496  69.806  1.00  0.00    -0.247 OA 
ENDBRANCH   7   8
ENDBRANCH   2   7
TORSDOF 3
ENDMDL
MODEL       92
REMARK 921   NORMALIZED FREE ENERGY PREDICTED BY IDOCK:   -2.65 KCAL/MOL
REMARK 922        TOTAL FREE ENERGY PREDICTED BY IDOCK:   -3.37 KCAL/MOL
REMARK 923 INTER-LIGAND FREE ENERGY PREDICTED BY IDOCK:   -3.16 KCAL/MOL
REMARK 924 INTRA-LIGAND FREE ENERGY PREDICTED BY IDOCK:   -0.21 KCAL/MOL
REMARK 927      BINDING AFFINITY PREDICTED BY RF-SCORE:    0.00 PKD
ROOT
HETATM    1  N   UNL     1     -11.873  10.951  67.845  1.00  0.00    -0.735 NA 
HETATM    2  C   UNL     1     -11.152  11.318  66.630  1.00  0.00    -0.235 C  
HETATM    3  H1  UNL     1     -11.524  10.065  68.209  1.00  0.00     0.000 HD 
HETATM    4  H2  UNL     1     -12.882  10.930  67.696  1.00  0.00     0.000 HD 
ENDROOT
BRANCH   2   5
HETATM    5  C   UNL     1      -9.685  11.376  66.957  1.00  0.00    -0.210 C  
HETATM    6  C   UNL     1      -9.190  11.655  68.170  1.00  0.00    -0.184 C  
ENDBRANCH   2   5
BRANCH   2   7
HETATM    7  C   UNL     1     -11.679  12.653  66.080  1.00  0.00    -0.461 C  
BRANCH   7   8
HETATM    8  C   UNL     1     -12.097  13.623  67.191  1.00  0.00    -0.404 C  
HETATM    9  C   UNL     1     -11.299  14.903  67.144  1.00  0.00    -0.343 C  
HETATM   10  O   UNL     1     -10.408  15.153  66.349  1.00  0.00    -0.269 OA 
HETATM   11  O   UNL     1     -11.681  15.778  68.103  1.00  0.00    -0.316 OA 
ENDBRANCH   7   8
ENDBRANCH   2   7
TORSDOF 3
ENDMDL
MODEL       93
REMARK 921   NORMALIZED FREE ENERGY PREDICTED BY IDOCK:   -2.65 KCAL/MOL
REMARK 922        TOTAL FREE ENERGY PREDICTED BY IDOCK:   -3.37 KCAL/MOL
REMARK 923 INTER-LIGAND FREE ENERGY PREDICTED BY IDOCK:   -3.30 KCAL/MOL
REMARK 924 INTRA-LIGAND FREE ENERGY PREDICTED BY IDOCK:   -0.07 KCAL/MOL
REMARK 927      BINDING AFFINITY PREDICTED BY RF-SCORE:    0.00 PKD
ROOT
HETATM    1  N   UNL     1     -10.071  13.066  63.812  1.00  0.00    -0.744 NA 
HETATM    2  C   UNL     1     -10.724  12.805  65.092  1.00  0.00    -0.294 C  
HETATM    3  H1  UNL     1     -10.097  12.231  63.226  1.00  0.00     0.000 HD 
HETATM    4  H2  UNL     1      -9.121  13.416  63.934  1.00  0.00     0.000 HD 
ENDROOT
BRANCH   2   5
HETATM    5  C   UNL     1     -12.129  12.347  64.815  1.00  0.00    -0.483 C  
HETATM    6  C   UNL     1     -12.641  12.175  63.588  1.00  0.00    -0.616 C  
ENDBRANCH   2   5
BRANCH   2   7
HETATM    7  C   UNL     1     -10.685  14.063  65.975  1.00  0.00    -0.294 C  
BRANCH   7   8
HETATM    8  C   UNL     1      -9.296  14.323  66.568  1.00  0.00    -0.292 C  
HETATM    9  C   UNL     1      -9.345  14.456  68.070  1.00  0.00    -0.200 C  
HETATM   10  O   UNL     1     -10.355  14.394  68.753  1.00  0.00    -0.234 OA 
HETATM   11  O   UNL     1      -8.119  14.657  68.606  1.00  0.00    -0.138 OA 
ENDBRANCH   7   8
ENDBRANCH   2   7
TORSDOF 3
ENDMDL
MODEL       94
REMARK 921   NORMALIZED FREE ENERGY PREDICTED BY IDOCK:   -2.64 KCAL/MOL
REMARK 922        TOTAL FREE ENERGY PREDICTED BY IDOCK:   -3.36 KCAL/MOL
REMARK 923 INTER-LIGAND FREE ENERGY PREDICTED BY IDOCK:   -3.25 KCAL/MOL
REMARK 924 INTRA-LIGAND FREE ENERGY PREDICTED BY IDOCK:   -0.11 KCAL/MOL
REMARK 927      BINDING AFFINITY PREDICTED BY RF-SCORE:    0.00 PKD
ROOT
HETATM    1  N   UNL     1     -11.335   7.366  73.369  1.00  0.00    -0.600 NA 
HETATM    2  C   UNL     1     -11.690   6.542  72.217  1.00  0.00    -0.281 C  
HETATM    3  H1  UNL     1     -11.065   6.776  74.156  1.00  0.00     0.000 HD 
HETATM    4  H2  UNL     1     -12.082   8.015  73.618  1.00  0.00     0.000 HD 
ENDROOT
BRANCH   2   5
HETATM    5  C   UNL     1     -10.516   5.662  71.892  1.00  0.00    -0.279 C  
HETATM    6  C   UNL     1      -9.312   6.114  71.516  1.00  0.00    -0.158 C  
ENDBRANCH   2   5
BRANCH   2   7
HETATM    7  C   UNL     1     -12.097   7.432  71.031  1.00  0.00    -0.330 C  
BRANCH   7   8
HETATM    8  C   UNL     1     -12.001   8.926  71.356  1.00  0.00    -0.374 C  
HETATM    9  C   UNL     1     -13.352   9.517  71.676  1.00  0.00    -0.407 C  
HETATM   10  O   UNL     1     -14.410   8.910  71.661  1.00  0.00    -0.337 OA 
HETATM   11  O   UNL     1     -13.274  10.831  71.993  1.00  0.00    -0.484 OA 
ENDBRANCH   7   8
ENDBRANCH   2   7
TORSDOF 3
ENDMDL
MODEL       95
REMARK 921   NORMALIZED FREE ENERGY PREDICTED BY IDOCK:   -2.64 KCAL/MOL
REMARK 922        TOTAL FREE ENERGY PREDICTED BY IDOCK:   -3.36 KCAL/MOL
REMARK 923 INTER-LIGAND FREE ENERGY PREDICTED BY IDOCK:   -3.21 KCAL/MOL
REMARK 924 INTRA-LIGAND FREE ENERGY PREDICTED BY IDOCK:   -0.15 KCAL/MOL
REMARK 927      BINDING AFFINITY PREDICTED BY RF-SCORE:    0.00 PKD
ROOT
HETATM    1  N   UNL     1     -10.395  12.638  66.263  1.00  0.00    -0.248 NA 
HETATM    2  C   UNL     1      -9.932  14.021  66.196  1.00  0.00    -0.312 C  
HETATM    3  H1  UNL     1      -9.602  11.998  66.250  1.00  0.00     0.000 HD 
HETATM    4  H2  UNL     1     -11.068  12.427  65.526  1.00  0.00     0.000 HD 
ENDROOT
BRANCH   2   5
HETATM    5  C   UNL     1      -8.992  14.255  67.346  1.00  0.00    -0.205 C  
HETATM    6  C   UNL     1      -7.661  14.114  67.278  1.00  0.00    -0.132 C  
ENDBRANCH   2   5
BRANCH   2   7
HETATM    7  C   UNL     1     -11.128  14.986  66.216  1.00  0.00    -0.334 C  
BRANCH   7   8
HETATM    8  C   UNL     1     -10.711  16.436  66.480  1.00  0.00    -0.163 C  
HETATM    9  C   UNL     1     -10.900  17.303  65.259  1.00  0.00     0.004 C  
HETATM   10  O   UNL     1     -11.308  16.918  64.175  1.00  0.00    -1.208 OA 
HETATM   11  O   UNL     1     -10.561  18.593  65.490  1.00  0.00    -0.608 OA 
ENDBRANCH   7   8
ENDBRANCH   2   7
TORSDOF 3
ENDMDL
MODEL       96
REMARK 921   NORMALIZED FREE ENERGY PREDICTED BY IDOCK:   -2.64 KCAL/MOL
REMARK 922        TOTAL FREE ENERGY PREDICTED BY IDOCK:   -3.35 KCAL/MOL
REMARK 923 INTER-LIGAND FREE ENERGY PREDICTED BY IDOCK:   -3.20 KCAL/MOL
REMARK 924 INTRA-LIGAND FREE ENERGY PREDICTED BY IDOCK:   -0.16 KCAL/MOL
REMARK 927      BINDING AFFINITY PREDICTED BY RF-SCORE:    0.00 PKD
ROOT
HETATM    1  N   UNL     1     -12.165  14.320  67.182  1.00  0.00    -0.589 NA 
HETATM    2  C   UNL     1     -11.087  13.338  67.261  1.00  0.00    -0.279 C  
HETATM    3  H1  UNL     1     -11.901  15.175  67.671  1.00  0.00     0.000 HD 
HETATM    4  H2  UNL     1     -13.048  13.943  67.525  1.00  0.00     0.000 HD 
ENDROOT
BRANCH   2   5
HETATM    5  C   UNL     1      -9.845  13.961  66.687  1.00  0.00    -0.288 C  
HETATM    6  C   UNL     1      -9.553  15.268  66.754  1.00  0.00    -0.257 C  
ENDBRANCH   2   5
BRANCH   2   7
HETATM    7  C   UNL     1     -11.485  12.049  66.525  1.00  0.00    -0.413 C  
BRANCH   7   8
HETATM    8  C   UNL     1     -11.193  12.115  65.022  1.00  0.00    -0.372 C  
HETATM    9  C   UNL     1     -10.407  10.915  64.552  1.00  0.00    -0.348 C  
HETATM   10  O   UNL     1     -10.017  10.003  65.262  1.00  0.00    -0.315 OA 
HETATM   11  O   UNL     1     -10.169  10.950  63.220  1.00  0.00    -0.337 OA 
ENDBRANCH   7   8
ENDBRANCH   2   7
TORSDOF 3
ENDMDL
MODEL       97
REMARK 921   NORMALIZED FREE ENERGY PREDICTED BY IDOCK:   -2.61 KCAL/MOL
REMARK 922        TOTAL FREE ENERGY PREDICTED BY IDOCK:   -3.32 KCAL/MOL
REMARK 923 INTER-LIGAND FREE ENERGY PREDICTED BY IDOCK:   -3.20 KCAL/MOL
REMARK 924 INTRA-LIGAND FREE ENERGY PREDICTED BY IDOCK:   -0.11 KCAL/MOL
REMARK 927      BINDING AFFINITY PREDICTED BY RF-SCORE:    0.00 PKD
ROOT
HETATM    1  N   UNL     1     -12.366  14.404  67.260  1.00  0.00    -0.594 NA 
HETATM    2  C   UNL     1     -11.251  13.714  66.618  1.00  0.00    -0.313 C  
HETATM    3  H1  UNL     1     -12.042  15.262  67.705  1.00  0.00     0.000 HD 
HETATM    4  H2  UNL     1     -12.860  13.798  67.916  1.00  0.00     0.000 HD 
ENDROOT
BRANCH   2   5
HETATM    5  C   UNL     1     -10.621  14.662  65.635  1.00  0.00    -0.344 C  
HETATM    6  C   UNL     1      -9.963  15.779  65.974  1.00  0.00    -0.358 C  
ENDBRANCH   2   5
BRANCH   2   7
HETATM    7  C   UNL     1     -11.740  12.420  65.948  1.00  0.00    -0.476 C  
BRANCH   7   8
HETATM    8  C   UNL     1     -10.916  11.196  66.361  1.00  0.00    -0.248 C  
HETATM    9  C   UNL     1     -10.232  10.557  65.177  1.00  0.00    -0.288 C  
HETATM   10  O   UNL     1     -10.325  10.932  64.020  1.00  0.00    -0.347 OA 
HETATM   11  O   UNL     1      -9.478   9.492  65.536  1.00  0.00    -0.236 OA 
ENDBRANCH   7   8
ENDBRANCH   2   7
TORSDOF 3
ENDMDL
MODEL       98
REMARK 921   NORMALIZED FREE ENERGY PREDICTED BY IDOCK:   -2.60 KCAL/MOL
REMARK 922        TOTAL FREE ENERGY PREDICTED BY IDOCK:   -3.31 KCAL/MOL
REMARK 923 INTER-LIGAND FREE ENERGY PREDICTED BY IDOCK:   -3.12 KCAL/MOL
REMARK 924 INTRA-LIGAND FREE ENERGY PREDICTED BY IDOCK:   -0.19 KCAL/MOL
REMARK 927      BINDING AFFINITY PREDICTED BY RF-SCORE:    0.00 PKD
ROOT
HETATM    1  N   UNL     1      -9.034  12.570  68.696  1.00  0.00    -0.388 NA 
HETATM    2  C   UNL     1      -9.787  13.699  68.158  1.00  0.00    -0.236 C  
HETATM    3  H1  UNL     1      -9.537  12.150  69.477  1.00  0.00     0.000 HD 
HETATM    4  H2  UNL     1      -8.084  12.835  68.953  1.00  0.00     0.000 HD 
ENDROOT
BRANCH   2   5
HETATM    5  C   UNL     1     -11.149  13.204  67.758  1.00  0.00    -0.287 C  
HETATM    6  C   UNL     1     -12.100  13.969  67.203  1.00  0.00    -0.436 C  
ENDBRANCH   2   5
BRANCH   2   7
HETATM    7  C   UNL     1      -9.029  14.333  66.980  1.00  0.00    -0.251 C  
BRANCH   7   8
HETATM    8  C   UNL     1      -9.004  15.863  67.051  1.00  0.00    -0.239 C  
HETATM    9  C   UNL     1      -9.717  16.489  65.877  1.00  0.00    -0.270 C  
HETATM   10  O   UNL     1     -10.235  15.878  64.958  1.00  0.00    -0.484 OA 
HETATM   11  O   UNL     1      -9.725  17.840  65.945  1.00  0.00    -0.528 OA 
ENDBRANCH   7   8
ENDBRANCH   2   7
TORSDOF 3
ENDMDL
MODEL       99
REMARK 921   NORMALIZED FREE ENERGY PREDICTED BY IDOCK:   -2.60 KCAL/MOL
REMARK 922        TOTAL FREE ENERGY PREDICTED BY IDOCK:   -3.31 KCAL/MOL
REMARK 923 INTER-LIGAND FREE ENERGY PREDICTED BY IDOCK:   -3.13 KCAL/MOL
REMARK 924 INTRA-LIGAND FREE ENERGY PREDICTED BY IDOCK:   -0.18 KCAL/MOL
REMARK 927      BINDING AFFINITY PREDICTED BY RF-SCORE:    0.00 PKD
ROOT
HETATM    1  N   UNL     1      -9.768   9.400  64.895  1.00  0.00    -0.410 NA 
HETATM    2  C   UNL     1      -9.474   9.716  66.290  1.00  0.00    -0.199 C  
HETATM    3  H1  UNL     1      -9.630   8.405  64.721  1.00  0.00     0.000 HD 
HETATM    4  H2  UNL     1      -9.226   9.978  64.252  1.00  0.00     0.000 HD 
ENDROOT
BRANCH   2   5
HETATM    5  C   UNL     1     -10.352   8.859  67.158  1.00  0.00    -0.351 C  
HETATM    6  C   UNL     1     -10.135   8.627  68.460  1.00  0.00    -0.211 C  
ENDBRANCH   2   5
BRANCH   2   7
HETATM    7  C   UNL     1      -9.682  11.216  66.552  1.00  0.00    -0.228 C  
BRANCH   7   8
HETATM    8  C   UNL     1     -10.679  11.852  65.577  1.00  0.00    -0.329 C  
HETATM    9  C   UNL     1     -11.889  12.399  66.293  1.00  0.00    -0.364 C  
HETATM   10  O   UNL     1     -12.089  12.335  67.495  1.00  0.00    -0.514 OA 
HETATM   11  O   UNL     1     -12.763  12.988  65.443  1.00  0.00    -0.521 OA 
ENDBRANCH   7   8
ENDBRANCH   2   7
TORSDOF 3
ENDMDL
MODEL      100
REMARK 921   NORMALIZED FREE ENERGY PREDICTED BY IDOCK:   -2.59 KCAL/MOL
REMARK 922        TOTAL FREE ENERGY PREDICTED BY IDOCK:   -3.30 KCAL/MOL
REMARK 923 INTER-LIGAND FREE ENERGY PREDICTED BY IDOCK:   -3.10 KCAL/MOL
REMARK 924 INTRA-LIGAND FREE ENERGY PREDICTED BY IDOCK:   -0.20 KCAL/MOL
REMARK 927      BINDING AFFINITY PREDICTED BY RF-SCORE:    0.00 PKD
ROOT
HETATM    1  N   UNL     1     -11.593   7.561  72.927  1.00  0.00    -0.590 NA 
HETATM    2  C   UNL     1     -11.312   8.828  72.258  1.00  0.00    -0.285 C  
HETATM    3  H1  UNL     1     -12.391   7.662  73.554  1.00  0.00     0.000 HD 
HETATM    4  H2  UNL     1     -10.772   7.197  73.412  1.00  0.00     0.000 HD 
ENDROOT
BRANCH   2   5
HETATM    5  C   UNL     1     -12.555   9.258  71.530  1.00  0.00    -0.430 C  
HETATM    6  C   UNL     1     -13.786   8.799  71.798  1.00  0.00    -0.461 C  
ENDBRANCH   2   5
BRANCH   2   7
HETATM    7  C   UNL     1     -10.108   8.676  71.314  1.00  0.00    -0.312 C  
BRANCH   7   8
HETATM    8  C   UNL     1     -10.522   8.294  69.889  1.00  0.00    -0.223 C  
HETATM    9  C   UNL     1     -10.764   6.810  69.757  1.00  0.00    -0.249 C  
HETATM   10  O   UNL     1     -10.629   5.989  70.650  1.00  0.00    -0.229 OA 
HETATM   11  O   UNL     1     -11.158   6.465  68.509  1.00  0.00    -0.318 OA 
ENDBRANCH   7   8
ENDBRANCH   2   7
TORSDOF 3
ENDMDL
MODEL      101
REMARK 921   NORMALIZED FREE ENERGY PREDICTED BY IDOCK:   -2.58 KCAL/MOL
REMARK 922        TOTAL FREE ENERGY PREDICTED BY IDOCK:   -3.29 KCAL/MOL
REMARK 923 INTER-LIGAND FREE ENERGY PREDICTED BY IDOCK:   -3.15 KCAL/MOL
REMARK 924 INTRA-LIGAND FREE ENERGY PREDICTED BY IDOCK:   -0.14 KCAL/MOL
REMARK 927      BINDING AFFINITY PREDICTED BY RF-SCORE:    0.00 PKD
ROOT
HETATM    1  N   UNL     1      -9.460   7.245  71.284  1.00  0.00    -0.155 NA 
HETATM    2  C   UNL     1     -10.718   7.856  71.703  1.00  0.00    -0.223 C  
HETATM    3  H1  UNL     1      -9.475   6.242  71.468  1.00  0.00     0.000 HD 
HETATM    4  H2  UNL     1      -8.655   7.699  71.716  1.00  0.00     0.000 HD 
ENDROOT
BRANCH   2   5
HETATM    5  C   UNL     1     -11.838   7.161  70.980  1.00  0.00    -0.373 C  
HETATM    6  C   UNL     1     -13.115   7.157  71.386  1.00  0.00    -0.408 C  
ENDBRANCH   2   5
BRANCH   2   7
HETATM    7  C   UNL     1     -10.695   9.367  71.426  1.00  0.00    -0.407 C  
BRANCH   7   8
HETATM    8  C   UNL     1     -10.995   9.702  69.961  1.00  0.00    -0.297 C  
HETATM    9  C   UNL     1     -12.004  10.817  69.838  1.00  0.00    -0.342 C  
HETATM   10  O   UNL     1     -12.551  11.382  70.771  1.00  0.00    -0.343 OA 
HETATM   11  O   UNL     1     -12.255  11.140  68.548  1.00  0.00    -0.600 OA 
ENDBRANCH   7   8
ENDBRANCH   2   7
TORSDOF 3
ENDMDL
MODEL      102
REMARK 921   NORMALIZED FREE ENERGY PREDICTED BY IDOCK:   -2.58 KCAL/MOL
REMARK 922        TOTAL FREE ENERGY PREDICTED BY IDOCK:   -3.28 KCAL/MOL
REMARK 923 INTER-LIGAND FREE ENERGY PREDICTED BY IDOCK:   -3.21 KCAL/MOL
REMARK 924 INTRA-LIGAND FREE ENERGY PREDICTED BY IDOCK:   -0.08 KCAL/MOL
REMARK 927      BINDING AFFINITY PREDICTED BY RF-SCORE:    0.00 PKD
ROOT
HETATM    1  N   UNL     1     -11.403   9.782  68.096  1.00  0.00    -0.520 NA 
HETATM    2  C   UNL     1     -11.270  10.928  68.991  1.00  0.00    -0.266 C  
HETATM    3  H1  UNL     1     -11.098   8.930  68.565  1.00  0.00     0.000 HD 
HETATM    4  H2  UNL     1     -10.910   9.929  67.215  1.00  0.00     0.000 HD 
ENDROOT
BRANCH   2   5
HETATM    5  C   UNL     1     -12.069  10.645  70.233  1.00  0.00    -0.423 C  
HETATM    6  C   UNL     1     -11.734   9.735  71.158  1.00  0.00    -0.465 C  
ENDBRANCH   2   5
BRANCH   2   7
HETATM    7  C   UNL     1     -11.729  12.213  68.284  1.00  0.00    -0.401 C  
BRANCH   7   8
HETATM    8  C   UNL     1     -11.666  12.099  66.757  1.00  0.00    -0.377 C  
HETATM    9  C   UNL     1     -10.323  12.532  66.220  1.00  0.00    -0.250 C  
HETATM   10  O   UNL     1      -9.394  12.949  66.891  1.00  0.00    -0.226 OA 
HETATM   11  O   UNL     1     -10.247  12.408  64.874  1.00  0.00    -0.281 OA 
ENDBRANCH   7   8
ENDBRANCH   2   7
TORSDOF 3
ENDMDL
MODEL      103
REMARK 921   NORMALIZED FREE ENERGY PREDICTED BY IDOCK:   -2.57 KCAL/MOL
REMARK 922        TOTAL FREE ENERGY PREDICTED BY IDOCK:   -3.28 KCAL/MOL
REMARK 923 INTER-LIGAND FREE ENERGY PREDICTED BY IDOCK:   -2.99 KCAL/MOL
REMARK 924 INTRA-LIGAND FREE ENERGY PREDICTED BY IDOCK:   -0.29 KCAL/MOL
REMARK 927      BINDING AFFINITY PREDICTED BY RF-SCORE:    0.00 PKD
ROOT
HETATM    1  N   UNL     1      -7.967  15.361  66.680  1.00  0.00    -0.319 NA 
HETATM    2  C   UNL     1      -9.418  15.476  66.793  1.00  0.00    -0.237 C  
HETATM    3  H1  UNL     1      -7.608  14.714  67.382  1.00  0.00     0.000 HD 
HETATM    4  H2  UNL     1      -7.508  16.270  66.731  1.00  0.00     0.000 HD 
ENDROOT
BRANCH   2   5
HETATM    5  C   UNL     1     -10.009  14.101  66.654  1.00  0.00    -0.280 C  
HETATM    6  C   UNL     1     -10.350  13.537  65.487  1.00  0.00    -0.309 C  
ENDBRANCH   2   5
BRANCH   2   7
HETATM    7  C   UNL     1      -9.959  16.451  65.735  1.00  0.00    -0.331 C  
BRANCH   7   8
HETATM    8  C   UNL     1     -10.379  17.797  66.335  1.00  0.00    -0.351 C  
HETATM    9  C   UNL     1      -9.241  18.788  66.338  1.00  0.00    -0.307 C  
HETATM   10  O   UNL     1      -8.109  18.565  65.942  1.00  0.00    -0.492 OA 
HETATM   11  O   UNL     1      -9.610  19.990  66.839  1.00  0.00    -0.359 OA 
ENDBRANCH   7   8
ENDBRANCH   2   7
TORSDOF 3
ENDMDL
MODEL      104
REMARK 921   NORMALIZED FREE ENERGY PREDICTED BY IDOCK:   -2.57 KCAL/MOL
REMARK 922        TOTAL FREE ENERGY PREDICTED BY IDOCK:   -3.28 KCAL/MOL
REMARK 923 INTER-LIGAND FREE ENERGY PREDICTED BY IDOCK:   -2.97 KCAL/MOL
REMARK 924 INTRA-LIGAND FREE ENERGY PREDICTED BY IDOCK:   -0.31 KCAL/MOL
REMARK 927      BINDING AFFINITY PREDICTED BY RF-SCORE:    0.00 PKD
ROOT
HETATM    1  N   UNL     1      -9.473   6.847  70.530  1.00  0.00    -0.169 NA 
HETATM    2  C   UNL     1     -10.665   6.050  70.258  1.00  0.00    -0.300 C  
HETATM    3  H1  UNL     1      -8.836   6.814  69.734  1.00  0.00     0.000 HD 
HETATM    4  H2  UNL     1      -9.015   6.563  71.396  1.00  0.00     0.000 HD 
ENDROOT
BRANCH   2   5
HETATM    5  C   UNL     1     -11.300   6.572  68.999  1.00  0.00    -0.296 C  
HETATM    6  C   UNL     1     -10.816   6.370  67.766  1.00  0.00    -0.418 C  
ENDBRANCH   2   5
BRANCH   2   7
HETATM    7  C   UNL     1     -11.625   6.100  71.458  1.00  0.00    -0.304 C  
BRANCH   7   8
HETATM    8  C   UNL     1     -12.585   7.293  71.395  1.00  0.00    -0.423 C  
HETATM    9  C   UNL     1     -12.010   8.509  72.079  1.00  0.00    -0.361 C  
HETATM   10  O   UNL     1     -10.930   8.559  72.643  1.00  0.00    -0.315 OA 
HETATM   11  O   UNL     1     -12.838   9.577  72.003  1.00  0.00    -0.381 OA 
ENDBRANCH   7   8
ENDBRANCH   2   7
TORSDOF 3
ENDMDL
MODEL      105
REMARK 921   NORMALIZED FREE ENERGY PREDICTED BY IDOCK:   -2.57 KCAL/MOL
REMARK 922        TOTAL FREE ENERGY PREDICTED BY IDOCK:   -3.28 KCAL/MOL
REMARK 923 INTER-LIGAND FREE ENERGY PREDICTED BY IDOCK:   -3.16 KCAL/MOL
REMARK 924 INTRA-LIGAND FREE ENERGY PREDICTED BY IDOCK:   -0.11 KCAL/MOL
REMARK 927      BINDING AFFINITY PREDICTED BY RF-SCORE:    0.00 PKD
ROOT
HETATM    1  N   UNL     1     -10.518  16.716  67.635  1.00  0.00    -0.313 NA 
HETATM    2  C   UNL     1      -9.868  16.624  68.939  1.00  0.00    -0.261 C  
HETATM    3  H1  UNL     1     -10.142  17.504  67.107  1.00  0.00     0.000 HD 
HETATM    4  H2  UNL     1     -11.534  16.764  67.720  1.00  0.00     0.000 HD 
ENDROOT
BRANCH   2   5
HETATM    5  C   UNL     1      -8.386  16.503  68.714  1.00  0.00    -0.248 C  
HETATM    6  C   UNL     1      -7.587  15.652  69.372  1.00  0.00    -0.221 C  
ENDBRANCH   2   5
BRANCH   2   7
HETATM    7  C   UNL     1     -10.434  15.437  69.734  1.00  0.00    -0.303 C  
BRANCH   7   8
HETATM    8  C   UNL     1     -11.966  15.412  69.744  1.00  0.00    -0.381 C  
HETATM    9  C   UNL     1     -12.520  15.619  71.133  1.00  0.00    -0.448 C  
HETATM   10  O   UNL     1     -11.854  15.764  72.145  1.00  0.00    -0.406 OA 
HETATM   11  O   UNL     1     -13.873  15.628  71.148  1.00  0.00    -0.583 OA 
ENDBRANCH   7   8
ENDBRANCH   2   7
TORSDOF 3
ENDMDL
MODEL      106
REMARK 921   NORMALIZED FREE ENERGY PREDICTED BY IDOCK:   -2.55 KCAL/MOL
REMARK 922        TOTAL FREE ENERGY PREDICTED BY IDOCK:   -3.25 KCAL/MOL
REMARK 923 INTER-LIGAND FREE ENERGY PREDICTED BY IDOCK:   -3.24 KCAL/MOL
REMARK 924 INTRA-LIGAND FREE ENERGY PREDICTED BY IDOCK:   -0.01 KCAL/MOL
REMARK 927      BINDING AFFINITY PREDICTED BY RF-SCORE:    0.00 PKD
ROOT
HETATM    1  N   UNL     1     -10.991  16.563  68.219  1.00  0.00    -0.349 NA 
HETATM    2  C   UNL     1     -10.706  15.342  67.470  1.00  0.00    -0.295 C  
HETATM    3  H1  UNL     1     -10.122  17.008  68.513  1.00  0.00     0.000 HD 
HETATM    4  H2  UNL     1     -11.615  16.388  69.007  1.00  0.00     0.000 HD 
ENDROOT
BRANCH   2   5
HETATM    5  C   UNL     1      -9.829  15.704  66.304  1.00  0.00    -0.318 C  
HETATM    6  C   UNL     1      -8.637  16.308  66.411  1.00  0.00    -0.361 C  
ENDBRANCH   2   5
BRANCH   2   7
HETATM    7  C   UNL     1     -12.016  14.672  67.026  1.00  0.00    -0.301 C  
BRANCH   7   8
HETATM    8  C   UNL     1     -11.888  13.149  66.910  1.00  0.00    -0.444 C  
HETATM    9  C   UNL     1     -11.906  12.481  68.263  1.00  0.00    -0.309 C  
HETATM   10  O   UNL     1     -11.985  13.058  69.335  1.00  0.00    -0.306 OA 
HETATM   11  O   UNL     1     -11.822  11.134  68.169  1.00  0.00    -0.559 OA 
ENDBRANCH   7   8
ENDBRANCH   2   7
TORSDOF 3
ENDMDL
MODEL      107
REMARK 921   NORMALIZED FREE ENERGY PREDICTED BY IDOCK:   -2.55 KCAL/MOL
REMARK 922        TOTAL FREE ENERGY PREDICTED BY IDOCK:   -3.25 KCAL/MOL
REMARK 923 INTER-LIGAND FREE ENERGY PREDICTED BY IDOCK:   -3.11 KCAL/MOL
REMARK 924 INTRA-LIGAND FREE ENERGY PREDICTED BY IDOCK:   -0.13 KCAL/MOL
REMARK 927      BINDING AFFINITY PREDICTED BY RF-SCORE:    0.00 PKD
ROOT
HETATM    1  N   UNL     1     -10.226  19.778  68.946  1.00  0.00    -0.591 NA 
HETATM    2  C   UNL     1      -9.710  18.482  68.517  1.00  0.00    -0.367 C  
HETATM    3  H1  UNL     1      -9.579  20.218  69.600  1.00  0.00     0.000 HD 
HETATM    4  H2  UNL     1     -11.167  19.703  69.334  1.00  0.00     0.000 HD 
ENDROOT
BRANCH   2   5
HETATM    5  C   UNL     1      -8.350  18.698  67.913  1.00  0.00    -0.293 C  
HETATM    6  C   UNL     1      -7.782  19.899  67.734  1.00  0.00    -0.327 C  
ENDBRANCH   2   5
BRANCH   2   7
HETATM    7  C   UNL     1     -10.686  17.819  67.532  1.00  0.00    -0.315 C  
BRANCH   7   8
HETATM    8  C   UNL     1     -10.206  16.441  67.065  1.00  0.00    -0.282 C  
HETATM    9  C   UNL     1     -10.991  15.327  67.714  1.00  0.00    -0.312 C  
HETATM   10  O   UNL     1     -11.884  15.474  68.532  1.00  0.00    -0.354 OA 
HETATM   11  O   UNL     1     -10.594  14.106  67.286  1.00  0.00    -0.273 OA 
ENDBRANCH   7   8
ENDBRANCH   2   7
TORSDOF 3
ENDMDL
MODEL      108
REMARK 921   NORMALIZED FREE ENERGY PREDICTED BY IDOCK:   -2.54 KCAL/MOL
REMARK 922        TOTAL FREE ENERGY PREDICTED BY IDOCK:   -3.24 KCAL/MOL
REMARK 923 INTER-LIGAND FREE ENERGY PREDICTED BY IDOCK:   -3.17 KCAL/MOL
REMARK 924 INTRA-LIGAND FREE ENERGY PREDICTED BY IDOCK:   -0.08 KCAL/MOL
REMARK 927      BINDING AFFINITY PREDICTED BY RF-SCORE:    0.00 PKD
ROOT
HETATM    1  N   UNL     1     -13.557   7.818  72.289  1.00  0.00    -0.518 NA 
HETATM    2  C   UNL     1     -12.211   8.022  71.761  1.00  0.00    -0.316 C  
HETATM    3  H1  UNL     1     -13.786   8.549  72.963  1.00  0.00     0.000 HD 
HETATM    4  H2  UNL     1     -13.673   6.885  72.685  1.00  0.00     0.000 HD 
ENDROOT
BRANCH   2   5
HETATM    5  C   UNL     1     -12.150   9.396  71.154  1.00  0.00    -0.406 C  
HETATM    6  C   UNL     1     -12.947  10.415  71.504  1.00  0.00    -0.562 C  
ENDBRANCH   2   5
BRANCH   2   7
HETATM    7  C   UNL     1     -11.865   6.920  70.746  1.00  0.00    -0.427 C  
BRANCH   7   8
HETATM    8  C   UNL     1     -10.542   6.217  71.069  1.00  0.00    -0.301 C  
HETATM    9  C   UNL     1     -10.666   5.321  72.277  1.00  0.00    -0.223 C  
HETATM   10  O   UNL     1     -11.674   5.174  72.948  1.00  0.00    -0.283 OA 
HETATM   11  O   UNL     1      -9.510   4.672  72.553  1.00  0.00    -0.133 OA 
ENDBRANCH   7   8
ENDBRANCH   2   7
TORSDOF 3
ENDMDL
MODEL      109
REMARK 921   NORMALIZED FREE ENERGY PREDICTED BY IDOCK:   -2.54 KCAL/MOL
REMARK 922        TOTAL FREE ENERGY PREDICTED BY IDOCK:   -3.24 KCAL/MOL
REMARK 923 INTER-LIGAND FREE ENERGY PREDICTED BY IDOCK:   -3.01 KCAL/MOL
REMARK 924 INTRA-LIGAND FREE ENERGY PREDICTED BY IDOCK:   -0.22 KCAL/MOL
REMARK 927      BINDING AFFINITY PREDICTED BY RF-SCORE:    0.00 PKD
ROOT
HETATM    1  N   UNL     1     -12.038   7.595  72.861  1.00  0.00    -0.568 NA 
HETATM    2  C   UNL     1     -11.117   7.569  71.728  1.00  0.00    -0.241 C  
HETATM    3  H1  UNL     1     -11.596   8.040  73.665  1.00  0.00     0.000 HD 
HETATM    4  H2  UNL     1     -12.389   6.664  73.086  1.00  0.00     0.000 HD 
ENDROOT
BRANCH   2   5
HETATM    5  C   UNL     1     -10.696   8.982  71.436  1.00  0.00    -0.401 C  
HETATM    6  C   UNL     1     -11.334   9.804  70.591  1.00  0.00    -0.401 C  
ENDBRANCH   2   5
BRANCH   2   7
HETATM    7  C   UNL     1     -11.783   6.898  70.516  1.00  0.00    -0.401 C  
BRANCH   7   8
HETATM    8  C   UNL     1     -10.880   5.853  69.851  1.00  0.00    -0.439 C  
HETATM    9  C   UNL     1     -10.446   6.286  68.472  1.00  0.00    -0.229 C  
HETATM   10  O   UNL     1     -10.778   7.322  67.919  1.00  0.00    -0.213 OA 
HETATM   11  O   UNL     1      -9.624   5.383  67.888  1.00  0.00    -0.120 OA 
ENDBRANCH   7   8
ENDBRANCH   2   7
TORSDOF 3
ENDMDL
MODEL      110
REMARK 921   NORMALIZED FREE ENERGY PREDICTED BY IDOCK:   -2.53 KCAL/MOL
REMARK 922        TOTAL FREE ENERGY PREDICTED BY IDOCK:   -3.23 KCAL/MOL
REMARK 923 INTER-LIGAND FREE ENERGY PREDICTED BY IDOCK:   -3.11 KCAL/MOL
REMARK 924 INTRA-LIGAND FREE ENERGY PREDICTED BY IDOCK:   -0.12 KCAL/MOL
REMARK 927      BINDING AFFINITY PREDICTED BY RF-SCORE:    0.00 PKD
ROOT
HETATM    1  N   UNL     1      -9.640  11.336  69.225  1.00  0.00    -0.409 NA 
HETATM    2  C   UNL     1     -10.079   9.992  69.591  1.00  0.00    -0.236 C  
HETATM    3  H1  UNL     1      -8.657  11.326  68.953  1.00  0.00     0.000 HD 
HETATM    4  H2  UNL     1      -9.822  12.011  69.968  1.00  0.00     0.000 HD 
ENDROOT
BRANCH   2   5
HETATM    5  C   UNL     1      -9.821   9.083  68.422  1.00  0.00    -0.183 C  
HETATM    6  C   UNL     1     -10.626   8.974  67.355  1.00  0.00    -0.309 C  
ENDBRANCH   2   5
BRANCH   2   7
HETATM    7  C   UNL     1     -11.560  10.009  70.001  1.00  0.00    -0.279 C  
BRANCH   7   8
HETATM    8  C   UNL     1     -12.061  11.416  70.341  1.00  0.00    -0.473 C  
HETATM    9  C   UNL     1     -13.027  11.401  71.500  1.00  0.00    -0.399 C  
HETATM   10  O   UNL     1     -13.400  10.404  72.096  1.00  0.00    -0.441 OA 
HETATM   11  O   UNL     1     -13.453  12.643  71.828  1.00  0.00    -0.379 OA 
ENDBRANCH   7   8
ENDBRANCH   2   7
TORSDOF 3
ENDMDL
MODEL      111
REMARK 921   NORMALIZED FREE ENERGY PREDICTED BY IDOCK:   -2.53 KCAL/MOL
REMARK 922        TOTAL FREE ENERGY PREDICTED BY IDOCK:   -3.23 KCAL/MOL
REMARK 923 INTER-LIGAND FREE ENERGY PREDICTED BY IDOCK:   -3.16 KCAL/MOL
REMARK 924 INTRA-LIGAND FREE ENERGY PREDICTED BY IDOCK:   -0.07 KCAL/MOL
REMARK 927      BINDING AFFINITY PREDICTED BY RF-SCORE:    0.00 PKD
ROOT
HETATM    1  N   UNL     1      -9.431  11.878  68.816  1.00  0.00    -0.393 NA 
HETATM    2  C   UNL     1     -10.847  12.084  68.525  1.00  0.00    -0.233 C  
HETATM    3  H1  UNL     1      -9.206  12.233  69.745  1.00  0.00     0.000 HD 
HETATM    4  H2  UNL     1      -8.832  12.284  68.097  1.00  0.00     0.000 HD 
ENDROOT
BRANCH   2   5
HETATM    5  C   UNL     1     -11.648  11.408  69.602  1.00  0.00    -0.399 C  
HETATM    6  C   UNL     1     -11.368  10.200  70.110  1.00  0.00    -0.372 C  
ENDBRANCH   2   5
BRANCH   2   7
HETATM    7  C   UNL     1     -11.186  11.548  67.125  1.00  0.00    -0.365 C  
BRANCH   7   8
HETATM    8  C   UNL     1     -11.383  12.668  66.098  1.00  0.00    -0.375 C  
HETATM    9  C   UNL     1     -11.215  12.167  64.684  1.00  0.00    -0.323 C  
HETATM   10  O   UNL     1     -10.933  11.022  64.369  1.00  0.00    -0.293 OA 
HETATM   11  O   UNL     1     -11.416  13.142  63.768  1.00  0.00    -0.408 OA 
ENDBRANCH   7   8
ENDBRANCH   2   7
TORSDOF 3
ENDMDL
MODEL      112
REMARK 921   NORMALIZED FREE ENERGY PREDICTED BY IDOCK:   -2.51 KCAL/MOL
REMARK 922        TOTAL FREE ENERGY PREDICTED BY IDOCK:   -3.20 KCAL/MOL
REMARK 923 INTER-LIGAND FREE ENERGY PREDICTED BY IDOCK:   -3.04 KCAL/MOL
REMARK 924 INTRA-LIGAND FREE ENERGY PREDICTED BY IDOCK:   -0.16 KCAL/MOL
REMARK 927      BINDING AFFINITY PREDICTED BY RF-SCORE:    0.00 PKD
ROOT
HETATM    1  N   UNL     1     -11.499  14.746  66.750  1.00  0.00    -0.353 NA 
HETATM    2  C   UNL     1     -11.300  13.582  65.891  1.00  0.00    -0.308 C  
HETATM    3  H1  UNL     1     -11.164  15.590  66.285  1.00  0.00     0.000 HD 
HETATM    4  H2  UNL     1     -11.068  14.620  67.667  1.00  0.00     0.000 HD 
ENDROOT
BRANCH   2   5
HETATM    5  C   UNL     1     -12.010  13.835  64.591  1.00  0.00    -0.445 C  
HETATM    6  C   UNL     1     -11.989  13.001  63.542  1.00  0.00    -0.615 C  
ENDBRANCH   2   5
BRANCH   2   7
HETATM    7  C   UNL     1     -11.803  12.310  66.593  1.00  0.00    -0.362 C  
BRANCH   7   8
HETATM    8  C   UNL     1     -10.660  11.431  67.110  1.00  0.00    -0.279 C  
HETATM    9  C   UNL     1     -10.674  11.325  68.616  1.00  0.00    -0.205 C  
HETATM   10  O   UNL     1     -11.469  11.880  69.356  1.00  0.00    -0.270 OA 
HETATM   11  O   UNL     1      -9.685  10.527  69.081  1.00  0.00    -0.203 OA 
ENDBRANCH   7   8
ENDBRANCH   2   7
TORSDOF 3
ENDMDL
MODEL      113
REMARK 921   NORMALIZED FREE ENERGY PREDICTED BY IDOCK:   -2.48 KCAL/MOL
REMARK 922        TOTAL FREE ENERGY PREDICTED BY IDOCK:   -3.17 KCAL/MOL
REMARK 923 INTER-LIGAND FREE ENERGY PREDICTED BY IDOCK:   -3.07 KCAL/MOL
REMARK 924 INTRA-LIGAND FREE ENERGY PREDICTED BY IDOCK:   -0.10 KCAL/MOL
REMARK 927      BINDING AFFINITY PREDICTED BY RF-SCORE:    0.00 PKD
ROOT
HETATM    1  N   UNL     1      -9.305   8.856  71.390  1.00  0.00    -0.258 NA 
HETATM    2  C   UNL     1     -10.677   9.261  71.684  1.00  0.00    -0.323 C  
HETATM    3  H1  UNL     1      -8.825   8.586  72.249  1.00  0.00     0.000 HD 
HETATM    4  H2  UNL     1      -8.797   9.578  70.881  1.00  0.00     0.000 HD 
ENDROOT
BRANCH   2   5
HETATM    5  C   UNL     1     -11.361   8.120  72.384  1.00  0.00    -0.456 C  
HETATM    6  C   UNL     1     -10.721   7.106  72.984  1.00  0.00    -0.359 C  
ENDBRANCH   2   5
BRANCH   2   7
HETATM    7  C   UNL     1     -11.401   9.668  70.391  1.00  0.00    -0.337 C  
BRANCH   7   8
HETATM    8  C   UNL     1     -10.620   9.278  69.132  1.00  0.00    -0.228 C  
HETATM    9  C   UNL     1     -11.011  10.126  67.946  1.00  0.00    -0.277 C  
HETATM   10  O   UNL     1     -11.858  11.005  67.954  1.00  0.00    -0.600 OA 
HETATM   11  O   UNL     1     -10.306   9.809  66.835  1.00  0.00    -0.233 OA 
ENDBRANCH   7   8
ENDBRANCH   2   7
TORSDOF 3
ENDMDL
MODEL      114
REMARK 921   NORMALIZED FREE ENERGY PREDICTED BY IDOCK:   -2.48 KCAL/MOL
REMARK 922        TOTAL FREE ENERGY PREDICTED BY IDOCK:   -3.17 KCAL/MOL
REMARK 923 INTER-LIGAND FREE ENERGY PREDICTED BY IDOCK:   -3.06 KCAL/MOL
REMARK 924 INTRA-LIGAND FREE ENERGY PREDICTED BY IDOCK:   -0.10 KCAL/MOL
REMARK 927      BINDING AFFINITY PREDICTED BY RF-SCORE:    0.00 PKD
ROOT
HETATM    1  N   UNL     1     -10.206  12.512  69.040  1.00  0.00    -0.426 NA 
HETATM    2  C   UNL     1     -11.522  12.036  68.626  1.00  0.00    -0.297 C  
HETATM    3  H1  UNL     1     -10.203  12.722  70.038  1.00  0.00     0.000 HD 
HETATM    4  H2  UNL     1      -9.898  13.310  68.483  1.00  0.00     0.000 HD 
ENDROOT
BRANCH   2   5
HETATM    5  C   UNL     1     -11.868  10.834  69.460  1.00  0.00    -0.380 C  
HETATM    6  C   UNL     1     -11.883  10.821  70.800  1.00  0.00    -0.443 C  
ENDBRANCH   2   5
BRANCH   2   7
HETATM    7  C   UNL     1     -11.526  11.721  67.121  1.00  0.00    -0.366 C  
BRANCH   7   8
HETATM    8  C   UNL     1     -10.523  10.625  66.747  1.00  0.00    -0.303 C  
HETATM    9  C   UNL     1     -10.238  10.611  65.265  1.00  0.00    -0.282 C  
HETATM   10  O   UNL     1     -10.747  11.351  64.440  1.00  0.00    -0.317 OA 
HETATM   11  O   UNL     1      -9.331   9.664  64.928  1.00  0.00    -0.247 OA 
ENDBRANCH   7   8
ENDBRANCH   2   7
TORSDOF 3
ENDMDL
MODEL      115
REMARK 921   NORMALIZED FREE ENERGY PREDICTED BY IDOCK:   -2.47 KCAL/MOL
REMARK 922        TOTAL FREE ENERGY PREDICTED BY IDOCK:   -3.16 KCAL/MOL
REMARK 923 INTER-LIGAND FREE ENERGY PREDICTED BY IDOCK:   -3.03 KCAL/MOL
REMARK 924 INTRA-LIGAND FREE ENERGY PREDICTED BY IDOCK:   -0.13 KCAL/MOL
REMARK 927      BINDING AFFINITY PREDICTED BY RF-SCORE:    0.00 PKD
ROOT
HETATM    1  N   UNL     1     -12.118  10.525  68.446  1.00  0.00    -0.774 NA 
HETATM    2  C   UNL     1     -10.911  10.815  69.214  1.00  0.00    -0.242 C  
HETATM    3  H1  UNL     1     -12.142  11.090  67.597  1.00  0.00     0.000 HD 
HETATM    4  H2  UNL     1     -12.962  10.644  69.006  1.00  0.00     0.000 HD 
ENDROOT
BRANCH   2   5
HETATM    5  C   UNL     1      -9.722  10.563  68.329  1.00  0.00    -0.163 C  
HETATM    6  C   UNL     1      -9.797  10.083  67.079  1.00  0.00    -0.238 C  
ENDBRANCH   2   5
BRANCH   2   7
HETATM    7  C   UNL     1     -10.875   9.964  70.493  1.00  0.00    -0.391 C  
BRANCH   7   8
HETATM    8  C   UNL     1     -11.152   8.482  70.222  1.00  0.00    -0.222 C  
HETATM    9  C   UNL     1     -11.576   7.754  71.474  1.00  0.00    -0.270 C  
HETATM   10  O   UNL     1     -11.671   8.253  72.584  1.00  0.00    -0.403 OA 
HETATM   11  O   UNL     1     -11.851   6.450  71.240  1.00  0.00    -0.327 OA 
ENDBRANCH   7   8
ENDBRANCH   2   7
TORSDOF 3
ENDMDL
MODEL      116
REMARK 921   NORMALIZED FREE ENERGY PREDICTED BY IDOCK:   -2.47 KCAL/MOL
REMARK 922        TOTAL FREE ENERGY PREDICTED BY IDOCK:   -3.15 KCAL/MOL
REMARK 923 INTER-LIGAND FREE ENERGY PREDICTED BY IDOCK:   -3.06 KCAL/MOL
REMARK 924 INTRA-LIGAND FREE ENERGY PREDICTED BY IDOCK:   -0.10 KCAL/MOL
REMARK 927      BINDING AFFINITY PREDICTED BY RF-SCORE:    0.00 PKD
ROOT
HETATM    1  N   UNL     1      -5.864  18.847  67.562  1.00  0.00    -0.174 NA 
HETATM    2  C   UNL     1      -6.364  20.213  67.691  1.00  0.00    -0.225 C  
HETATM    3  H1  UNL     1      -4.862  18.819  67.750  1.00  0.00     0.000 HD 
HETATM    4  H2  UNL     1      -6.093  18.442  66.654  1.00  0.00     0.000 HD 
ENDROOT
BRANCH   2   5
HETATM    5  C   UNL     1      -6.030  20.705  69.071  1.00  0.00    -0.380 C  
HETATM    6  C   UNL     1      -5.950  19.921  70.156  1.00  0.00    -0.363 C  
ENDBRANCH   2   5
BRANCH   2   7
HETATM    7  C   UNL     1      -7.875  20.255  67.408  1.00  0.00    -0.361 C  
BRANCH   7   8
HETATM    8  C   UNL     1      -8.591  18.971  67.837  1.00  0.00    -0.333 C  
HETATM    9  C   UNL     1     -10.059  19.006  67.489  1.00  0.00    -0.373 C  
HETATM   10  O   UNL     1     -10.636  19.938  66.954  1.00  0.00    -0.454 OA 
HETATM   11  O   UNL     1     -10.695  17.864  67.838  1.00  0.00    -0.392 OA 
ENDBRANCH   7   8
ENDBRANCH   2   7
TORSDOF 3
ENDMDL
MODEL      117
REMARK 921   NORMALIZED FREE ENERGY PREDICTED BY IDOCK:   -2.45 KCAL/MOL
REMARK 922        TOTAL FREE ENERGY PREDICTED BY IDOCK:   -3.14 KCAL/MOL
REMARK 923 INTER-LIGAND FREE ENERGY PREDICTED BY IDOCK:   -3.06 KCAL/MOL
REMARK 924 INTRA-LIGAND FREE ENERGY PREDICTED BY IDOCK:   -0.08 KCAL/MOL
REMARK 927      BINDING AFFINITY PREDICTED BY RF-SCORE:    0.00 PKD
ROOT
HETATM    1  N   UNL     1     -12.410  14.039  68.949  1.00  0.00    -0.508 NA 
HETATM    2  C   UNL     1     -11.322  13.075  68.821  1.00  0.00    -0.289 C  
HETATM    3  H1  UNL     1     -12.045  14.991  68.913  1.00  0.00     0.000 HD 
HETATM    4  H2  UNL     1     -12.966  13.877  69.789  1.00  0.00     0.000 HD 
ENDROOT
BRANCH   2   5
HETATM    5  C   UNL     1     -10.596  13.357  67.536  1.00  0.00    -0.255 C  
HETATM    6  C   UNL     1      -9.278  13.584  67.444  1.00  0.00    -0.223 C  
ENDBRANCH   2   5
BRANCH   2   7
HETATM    7  C   UNL     1     -11.872  11.641  68.876  1.00  0.00    -0.392 C  
BRANCH   7   8
HETATM    8  C   UNL     1     -12.100  11.152  70.311  1.00  0.00    -0.462 C  
HETATM    9  C   UNL     1     -11.323   9.891  70.601  1.00  0.00    -0.339 C  
HETATM   10  O   UNL     1     -10.615   9.297  69.804  1.00  0.00    -0.216 OA 
HETATM   11  O   UNL     1     -11.495   9.466  71.875  1.00  0.00    -0.373 OA 
ENDBRANCH   7   8
ENDBRANCH   2   7
TORSDOF 3
ENDMDL
MODEL      118
REMARK 921   NORMALIZED FREE ENERGY PREDICTED BY IDOCK:   -2.45 KCAL/MOL
REMARK 922        TOTAL FREE ENERGY PREDICTED BY IDOCK:   -3.13 KCAL/MOL
REMARK 923 INTER-LIGAND FREE ENERGY PREDICTED BY IDOCK:   -3.10 KCAL/MOL
REMARK 924 INTRA-LIGAND FREE ENERGY PREDICTED BY IDOCK:   -0.03 KCAL/MOL
REMARK 927      BINDING AFFINITY PREDICTED BY RF-SCORE:    0.00 PKD
ROOT
HETATM    1  N   UNL     1      -9.830  13.612  67.992  1.00  0.00    -0.236 NA 
HETATM    2  C   UNL     1     -10.850  14.224  67.145  1.00  0.00    -0.296 C  
HETATM    3  H1  UNL     1      -9.244  14.332  68.414  1.00  0.00     0.000 HD 
HETATM    4  H2  UNL     1      -9.278  12.921  67.483  1.00  0.00     0.000 HD 
ENDROOT
BRANCH   2   5
HETATM    5  C   UNL     1     -11.644  15.182  67.988  1.00  0.00    -0.345 C  
HETATM    6  C   UNL     1     -11.718  15.132  69.326  1.00  0.00    -0.352 C  
ENDBRANCH   2   5
BRANCH   2   7
HETATM    7  C   UNL     1     -11.734  13.139  66.508  1.00  0.00    -0.433 C  
BRANCH   7   8
HETATM    8  C   UNL     1     -10.976  11.830  66.265  1.00  0.00    -0.346 C  
HETATM    9  C   UNL     1     -11.258  10.812  67.343  1.00  0.00    -0.241 C  
HETATM   10  O   UNL     1     -11.975  10.990  68.313  1.00  0.00    -0.593 OA 
HETATM   11  O   UNL     1     -10.615   9.641  67.121  1.00  0.00    -0.256 OA 
ENDBRANCH   7   8
ENDBRANCH   2   7
TORSDOF 3
ENDMDL
MODEL      119
REMARK 921   NORMALIZED FREE ENERGY PREDICTED BY IDOCK:   -2.44 KCAL/MOL
REMARK 922        TOTAL FREE ENERGY PREDICTED BY IDOCK:   -3.12 KCAL/MOL
REMARK 923 INTER-LIGAND FREE ENERGY PREDICTED BY IDOCK:   -3.07 KCAL/MOL
REMARK 924 INTRA-LIGAND FREE ENERGY PREDICTED BY IDOCK:   -0.05 KCAL/MOL
REMARK 927      BINDING AFFINITY PREDICTED BY RF-SCORE:    0.00 PKD
ROOT
HETATM    1  N   UNL     1      -9.983  18.454  69.140  1.00  0.00    -0.305 NA 
HETATM    2  C   UNL     1     -10.777  17.967  68.015  1.00  0.00    -0.285 C  
HETATM    3  H1  UNL     1     -10.392  18.143  70.021  1.00  0.00     0.000 HD 
HETATM    4  H2  UNL     1      -9.865  19.466  69.111  1.00  0.00     0.000 HD 
ENDROOT
BRANCH   2   5
HETATM    5  C   UNL     1     -10.853  16.469  68.111  1.00  0.00    -0.345 C  
HETATM    6  C   UNL     1     -11.714  15.802  68.892  1.00  0.00    -0.404 C  
ENDBRANCH   2   5
BRANCH   2   7
HETATM    7  C   UNL     1     -10.161  18.435  66.687  1.00  0.00    -0.399 C  
BRANCH   7   8
HETATM    8  C   UNL     1      -9.661  19.883  66.747  1.00  0.00    -0.538 C  
HETATM    9  C   UNL     1      -8.176  19.951  67.006  1.00  0.00    -0.316 C  
HETATM   10  O   UNL     1      -7.443  18.991  67.176  1.00  0.00    -0.226 OA 
HETATM   11  O   UNL     1      -7.720  21.225  67.033  1.00  0.00    -0.259 OA 
ENDBRANCH   7   8
ENDBRANCH   2   7
TORSDOF 3
ENDMDL
MODEL      120
REMARK 921   NORMALIZED FREE ENERGY PREDICTED BY IDOCK:   -2.43 KCAL/MOL
REMARK 922        TOTAL FREE ENERGY PREDICTED BY IDOCK:   -3.11 KCAL/MOL
REMARK 923 INTER-LIGAND FREE ENERGY PREDICTED BY IDOCK:   -3.05 KCAL/MOL
REMARK 924 INTRA-LIGAND FREE ENERGY PREDICTED BY IDOCK:   -0.07 KCAL/MOL
REMARK 927      BINDING AFFINITY PREDICTED BY RF-SCORE:    0.00 PKD
ROOT
HETATM    1  N   UNL     1     -10.545  11.912  67.266  1.00  0.00    -0.221 NA 
HETATM    2  C   UNL     1      -9.450  12.589  66.578  1.00  0.00    -0.240 C  
HETATM    3  H1  UNL     1     -10.223  11.028  67.659  1.00  0.00     0.000 HD 
HETATM    4  H2  UNL     1     -11.356  11.786  66.660  1.00  0.00     0.000 HD 
ENDROOT
BRANCH   2   5
HETATM    5  C   UNL     1      -8.327  12.778  67.559  1.00  0.00    -0.179 C  
HETATM    6  C   UNL     1      -7.058  12.412  67.337  1.00  0.00    -0.152 C  
ENDBRANCH   2   5
BRANCH   2   7
HETATM    7  C   UNL     1      -9.937  13.922  65.986  1.00  0.00    -0.325 C  
BRANCH   7   8
HETATM    8  C   UNL     1     -11.216  13.766  65.157  1.00  0.00    -0.320 C  
HETATM    9  C   UNL     1     -11.686  15.087  64.599  1.00  0.00    -0.382 C  
HETATM   10  O   UNL     1     -11.148  16.166  64.789  1.00  0.00    -0.532 OA 
HETATM   11  O   UNL     1     -12.799  14.956  63.842  1.00  0.00    -0.697 OA 
ENDBRANCH   7   8
ENDBRANCH   2   7
TORSDOF 3
ENDMDL
MODEL      121
REMARK 921   NORMALIZED FREE ENERGY PREDICTED BY IDOCK:   -2.43 KCAL/MOL
REMARK 922        TOTAL FREE ENERGY PREDICTED BY IDOCK:   -3.11 KCAL/MOL
REMARK 923 INTER-LIGAND FREE ENERGY PREDICTED BY IDOCK:   -2.99 KCAL/MOL
REMARK 924 INTRA-LIGAND FREE ENERGY PREDICTED BY IDOCK:   -0.11 KCAL/MOL
REMARK 927      BINDING AFFINITY PREDICTED BY RF-SCORE:    0.00 PKD
ROOT
HETATM    1  N   UNL     1      -9.310   6.170  70.030  1.00  0.00    -0.153 NA 
HETATM    2  C   UNL     1     -10.718   5.838  69.835  1.00  0.00    -0.342 C  
HETATM    3  H1  UNL     1      -8.743   5.755  69.291  1.00  0.00     0.000 HD 
HETATM    4  H2  UNL     1      -8.981   5.901  70.958  1.00  0.00     0.000 HD 
ENDROOT
BRANCH   2   5
HETATM    5  C   UNL     1     -11.126   6.318  68.469  1.00  0.00    -0.397 C  
HETATM    6  C   UNL     1     -10.540   5.935  67.326  1.00  0.00    -0.365 C  
ENDBRANCH   2   5
BRANCH   2   7
HETATM    7  C   UNL     1     -11.572   6.463  70.950  1.00  0.00    -0.393 C  
BRANCH   7   8
HETATM    8  C   UNL     1     -11.225   5.911  72.337  1.00  0.00    -0.340 C  
HETATM    9  C   UNL     1     -10.616   6.970  73.223  1.00  0.00    -0.344 C  
HETATM   10  O   UNL     1     -10.393   8.123  72.895  1.00  0.00    -0.318 OA 
HETATM   11  O   UNL     1     -10.332   6.500  74.460  1.00  0.00    -0.341 OA 
ENDBRANCH   7   8
ENDBRANCH   2   7
TORSDOF 3
ENDMDL
MODEL      122
REMARK 921   NORMALIZED FREE ENERGY PREDICTED BY IDOCK:   -2.41 KCAL/MOL
REMARK 922        TOTAL FREE ENERGY PREDICTED BY IDOCK:   -3.09 KCAL/MOL
REMARK 923 INTER-LIGAND FREE ENERGY PREDICTED BY IDOCK:   -3.16 KCAL/MOL
REMARK 924 INTRA-LIGAND FREE ENERGY PREDICTED BY IDOCK:    0.07 KCAL/MOL
REMARK 927      BINDING AFFINITY PREDICTED BY RF-SCORE:    0.00 PKD
ROOT
HETATM    1  N   UNL     1      -9.356  12.515  65.711  1.00  0.00    -0.449 NA 
HETATM    2  C   UNL     1     -10.650  11.868  65.513  1.00  0.00    -0.269 C  
HETATM    3  H1  UNL     1      -8.600  11.860  65.514  1.00  0.00     0.000 HD 
HETATM    4  H2  UNL     1      -9.274  12.923  66.642  1.00  0.00     0.000 HD 
ENDROOT
BRANCH   2   5
HETATM    5  C   UNL     1     -10.701  11.347  64.104  1.00  0.00    -0.434 C  
HETATM    6  C   UNL     1      -9.751  10.587  63.542  1.00  0.00    -0.374 C  
ENDBRANCH   2   5
BRANCH   2   7
HETATM    7  C   UNL     1     -11.790  12.855  65.810  1.00  0.00    -0.469 C  
BRANCH   7   8
HETATM    8  C   UNL     1     -11.295  14.298  65.960  1.00  0.00    -0.335 C  
HETATM    9  C   UNL     1     -10.926  14.617  67.388  1.00  0.00    -0.308 C  
HETATM   10  O   UNL     1     -11.023  13.849  68.332  1.00  0.00    -0.237 OA 
HETATM   11  O   UNL     1     -10.460  15.880  67.526  1.00  0.00    -0.284 OA 
ENDBRANCH   7   8
ENDBRANCH   2   7
TORSDOF 3
ENDMDL
MODEL      123
REMARK 921   NORMALIZED FREE ENERGY PREDICTED BY IDOCK:   -2.39 KCAL/MOL
REMARK 922        TOTAL FREE ENERGY PREDICTED BY IDOCK:   -3.06 KCAL/MOL
REMARK 923 INTER-LIGAND FREE ENERGY PREDICTED BY IDOCK:   -2.94 KCAL/MOL
REMARK 924 INTRA-LIGAND FREE ENERGY PREDICTED BY IDOCK:   -0.12 KCAL/MOL
REMARK 927      BINDING AFFINITY PREDICTED BY RF-SCORE:    0.00 PKD
ROOT
HETATM    1  N   UNL     1      -8.728  19.124  68.606  1.00  0.00    -0.359 NA 
HETATM    2  C   UNL     1      -9.174  17.823  68.117  1.00  0.00    -0.277 C  
HETATM    3  H1  UNL     1      -8.005  19.503  67.994  1.00  0.00     0.000 HD 
HETATM    4  H2  UNL     1      -8.419  19.079  69.577  1.00  0.00     0.000 HD 
ENDROOT
BRANCH   2   5
HETATM    5  C   UNL     1      -9.658  17.997  66.704  1.00  0.00    -0.315 C  
HETATM    6  C   UNL     1     -10.475  18.979  66.298  1.00  0.00    -0.534 C  
ENDBRANCH   2   5
BRANCH   2   7
HETATM    7  C   UNL     1     -10.263  17.252  69.039  1.00  0.00    -0.318 C  
BRANCH   7   8
HETATM    8  C   UNL     1     -10.675  15.828  68.653  1.00  0.00    -0.263 C  
HETATM    9  C   UNL     1     -11.950  15.408  69.342  1.00  0.00    -0.327 C  
HETATM   10  O   UNL     1     -12.583  16.088  70.133  1.00  0.00    -0.259 OA 
HETATM   11  O   UNL     1     -12.338  14.162  68.985  1.00  0.00    -0.294 OA 
ENDBRANCH   7   8
ENDBRANCH   2   7
TORSDOF 3
ENDMDL
MODEL      124
REMARK 921   NORMALIZED FREE ENERGY PREDICTED BY IDOCK:   -2.38 KCAL/MOL
REMARK 922        TOTAL FREE ENERGY PREDICTED BY IDOCK:   -3.05 KCAL/MOL
REMARK 923 INTER-LIGAND FREE ENERGY PREDICTED BY IDOCK:   -2.84 KCAL/MOL
REMARK 924 INTRA-LIGAND FREE ENERGY PREDICTED BY IDOCK:   -0.21 KCAL/MOL
REMARK 927      BINDING AFFINITY PREDICTED BY RF-SCORE:    0.00 PKD
ROOT
HETATM    1  N   UNL     1      -9.917  16.500  68.976  1.00  0.00    -0.262 NA 
HETATM    2  C   UNL     1      -9.554  17.765  68.344  1.00  0.00    -0.323 C  
HETATM    3  H1  UNL     1     -10.857  16.222  68.695  1.00  0.00     0.000 HD 
HETATM    4  H2  UNL     1      -9.819  16.539  69.990  1.00  0.00     0.000 HD 
ENDROOT
BRANCH   2   5
HETATM    5  C   UNL     1      -9.676  17.597  66.856  1.00  0.00    -0.292 C  
HETATM    6  C   UNL     1     -10.512  18.300  66.080  1.00  0.00    -0.380 C  
ENDBRANCH   2   5
BRANCH   2   7
HETATM    7  C   UNL     1      -8.137  18.184  68.768  1.00  0.00    -0.251 C  
BRANCH   7   8
HETATM    8  C   UNL     1      -7.910  19.695  68.653  1.00  0.00    -0.349 C  
HETATM    9  C   UNL     1      -6.908  20.030  67.576  1.00  0.00    -0.237 C  
HETATM   10  O   UNL     1      -6.316  19.218  66.884  1.00  0.00    -0.183 OA 
HETATM   11  O   UNL     1      -6.722  21.364  67.447  1.00  0.00    -0.563 OA 
ENDBRANCH   7   8
ENDBRANCH   2   7
TORSDOF 3
ENDMDL
MODEL      125
REMARK 921   NORMALIZED FREE ENERGY PREDICTED BY IDOCK:   -2.36 KCAL/MOL
REMARK 922        TOTAL FREE ENERGY PREDICTED BY IDOCK:   -3.03 KCAL/MOL
REMARK 923 INTER-LIGAND FREE ENERGY PREDICTED BY IDOCK:   -2.93 KCAL/MOL
REMARK 924 INTRA-LIGAND FREE ENERGY PREDICTED BY IDOCK:   -0.10 KCAL/MOL
REMARK 927      BINDING AFFINITY PREDICTED BY RF-SCORE:    0.00 PKD
ROOT
HETATM    1  N   UNL     1     -10.694  16.913  68.677  1.00  0.00    -0.348 NA 
HETATM    2  C   UNL     1      -9.873  18.096  68.437  1.00  0.00    -0.370 C  
HETATM    3  H1  UNL     1     -11.609  17.184  69.036  1.00  0.00     0.000 HD 
HETATM    4  H2  UNL     1     -10.227  16.244  69.290  1.00  0.00     0.000 HD 
ENDROOT
BRANCH   2   5
HETATM    5  C   UNL     1     -10.615  18.993  67.485  1.00  0.00    -0.546 C  
HETATM    6  C   UNL     1     -10.201  20.214  67.118  1.00  0.00    -0.554 C  
ENDBRANCH   2   5
BRANCH   2   7
HETATM    7  C   UNL     1      -8.494  17.687  67.896  1.00  0.00    -0.233 C  
BRANCH   7   8
HETATM    8  C   UNL     1      -7.765  16.707  68.822  1.00  0.00    -0.233 C  
HETATM    9  C   UNL     1      -6.509  17.312  69.399  1.00  0.00    -0.235 C  
HETATM   10  O   UNL     1      -6.087  18.431  69.156  1.00  0.00    -0.220 OA 
HETATM   11  O   UNL     1      -5.873  16.465  70.241  1.00  0.00    -0.192 OA 
ENDBRANCH   7   8
ENDBRANCH   2   7
TORSDOF 3
ENDMDL
MODEL      126
REMARK 921   NORMALIZED FREE ENERGY PREDICTED BY IDOCK:   -2.35 KCAL/MOL
REMARK 922        TOTAL FREE ENERGY PREDICTED BY IDOCK:   -3.02 KCAL/MOL
REMARK 923 INTER-LIGAND FREE ENERGY PREDICTED BY IDOCK:   -2.88 KCAL/MOL
REMARK 924 INTRA-LIGAND FREE ENERGY PREDICTED BY IDOCK:   -0.14 KCAL/MOL
REMARK 927      BINDING AFFINITY PREDICTED BY RF-SCORE:    0.00 PKD
ROOT
HETATM    1  N   UNL     1     -12.524  12.777  65.680  1.00  0.00    -0.608 NA 
HETATM    2  C   UNL     1     -11.653  13.385  66.682  1.00  0.00    -0.362 C  
HETATM    3  H1  UNL     1     -13.201  13.459  65.340  1.00  0.00     0.000 HD 
HETATM    4  H2  UNL     1     -12.977  11.933  66.032  1.00  0.00     0.000 HD 
ENDROOT
BRANCH   2   5
HETATM    5  C   UNL     1     -10.991  14.583  66.061  1.00  0.00    -0.324 C  
HETATM    6  C   UNL     1      -9.665  14.752  65.966  1.00  0.00    -0.350 C  
ENDBRANCH   2   5
BRANCH   2   7
HETATM    7  C   UNL     1     -10.632  12.357  67.195  1.00  0.00    -0.247 C  
BRANCH   7   8
HETATM    8  C   UNL     1     -10.640  11.061  66.378  1.00  0.00    -0.308 C  
HETATM    9  C   UNL     1     -10.371   9.853  67.241  1.00  0.00    -0.245 C  
HETATM   10  O   UNL     1     -10.147   9.877  68.440  1.00  0.00    -0.157 OA 
HETATM   11  O   UNL     1     -10.405   8.700  66.533  1.00  0.00    -0.282 OA 
ENDBRANCH   7   8
ENDBRANCH   2   7
TORSDOF 3
ENDMDL
MODEL      127
REMARK 921   NORMALIZED FREE ENERGY PREDICTED BY IDOCK:   -2.34 KCAL/MOL
REMARK 922        TOTAL FREE ENERGY PREDICTED BY IDOCK:   -3.01 KCAL/MOL
REMARK 923 INTER-LIGAND FREE ENERGY PREDICTED BY IDOCK:   -2.87 KCAL/MOL
REMARK 924 INTRA-LIGAND FREE ENERGY PREDICTED BY IDOCK:   -0.14 KCAL/MOL
REMARK 927      BINDING AFFINITY PREDICTED BY RF-SCORE:    0.00 PKD
ROOT
HETATM    1  N   UNL     1     -11.155  14.995  66.289  1.00  0.00    -0.343 NA 
HETATM    2  C   UNL     1     -11.675  14.552  67.579  1.00  0.00    -0.386 C  
HETATM    3  H1  UNL     1     -10.921  15.988  66.324  1.00  0.00     0.000 HD 
HETATM    4  H2  UNL     1     -11.799  14.783  65.526  1.00  0.00     0.000 HD 
ENDROOT
BRANCH   2   5
HETATM    5  C   UNL     1     -10.641  14.856  68.628  1.00  0.00    -0.251 C  
HETATM    6  C   UNL     1     -10.604  15.984  69.349  1.00  0.00    -0.275 C  
ENDBRANCH   2   5
BRANCH   2   7
HETATM    7  C   UNL     1     -12.028  13.057  67.525  1.00  0.00    -0.360 C  
BRANCH   7   8
HETATM    8  C   UNL     1     -11.828  12.356  68.873  1.00  0.00    -0.350 C  
HETATM    9  C   UNL     1     -11.477  10.898  68.699  1.00  0.00    -0.311 C  
HETATM   10  O   UNL     1     -11.382  10.317  67.630  1.00  0.00    -0.335 OA 
HETATM   11  O   UNL     1     -11.271  10.277  69.883  1.00  0.00    -0.259 OA 
ENDBRANCH   7   8
ENDBRANCH   2   7
TORSDOF 3
ENDMDL
MODEL      128
REMARK 921   NORMALIZED FREE ENERGY PREDICTED BY IDOCK:   -2.31 KCAL/MOL
REMARK 922        TOTAL FREE ENERGY PREDICTED BY IDOCK:   -2.97 KCAL/MOL
REMARK 923 INTER-LIGAND FREE ENERGY PREDICTED BY IDOCK:   -2.85 KCAL/MOL
REMARK 924 INTRA-LIGAND FREE ENERGY PREDICTED BY IDOCK:   -0.12 KCAL/MOL
REMARK 927      BINDING AFFINITY PREDICTED BY RF-SCORE:    0.00 PKD
ROOT
HETATM    1  N   UNL     1      -8.171  10.746  64.282  1.00  0.00    -0.368 NA 
HETATM    2  C   UNL     1      -9.593  10.419  64.333  1.00  0.00    -0.316 C  
HETATM    3  H1  UNL     1      -7.962  11.287  63.443  1.00  0.00     0.000 HD 
HETATM    4  H2  UNL     1      -7.586   9.913  64.351  1.00  0.00     0.000 HD 
ENDROOT
BRANCH   2   5
HETATM    5  C   UNL     1     -10.369  11.705  64.278  1.00  0.00    -0.371 C  
HETATM    6  C   UNL     1     -11.445  11.908  63.505  1.00  0.00    -0.523 C  
ENDBRANCH   2   5
BRANCH   2   7
HETATM    7  C   UNL     1      -9.906   9.603  65.597  1.00  0.00    -0.369 C  
BRANCH   7   8
HETATM    8  C   UNL     1     -10.107  10.485  66.833  1.00  0.00    -0.265 C  
HETATM    9  C   UNL     1     -10.423   9.665  68.060  1.00  0.00    -0.229 C  
HETATM   10  O   UNL     1     -10.536   8.451  68.089  1.00  0.00    -0.212 OA 
HETATM   11  O   UNL     1     -10.574  10.433  69.164  1.00  0.00    -0.199 OA 
ENDBRANCH   7   8
ENDBRANCH   2   7
TORSDOF 3
ENDMDL
MODEL      129
REMARK 921   NORMALIZED FREE ENERGY PREDICTED BY IDOCK:   -2.30 KCAL/MOL
REMARK 922        TOTAL FREE ENERGY PREDICTED BY IDOCK:   -2.96 KCAL/MOL
REMARK 923 INTER-LIGAND FREE ENERGY PREDICTED BY IDOCK:   -2.72 KCAL/MOL
REMARK 924 INTRA-LIGAND FREE ENERGY PREDICTED BY IDOCK:   -0.24 KCAL/MOL
REMARK 927      BINDING AFFINITY PREDICTED BY RF-SCORE:    0.00 PKD
ROOT
HETATM    1  N   UNL     1     -11.219   9.149  68.694  1.00  0.00    -0.409 NA 
HETATM    2  C   UNL     1     -10.569   9.645  69.903  1.00  0.00    -0.249 C  
HETATM    3  H1  UNL     1     -10.651   9.364  67.874  1.00  0.00     0.000 HD 
HETATM    4  H2  UNL     1     -12.171   9.503  68.601  1.00  0.00     0.000 HD 
ENDROOT
BRANCH   2   5
HETATM    5  C   UNL     1      -9.199   9.032  69.983  1.00  0.00    -0.193 C  
HETATM    6  C   UNL     1      -8.362   9.180  71.019  1.00  0.00    -0.205 C  
ENDBRANCH   2   5
BRANCH   2   7
HETATM    7  C   UNL     1     -11.425   9.321  71.138  1.00  0.00    -0.403 C  
BRANCH   7   8
HETATM    8  C   UNL     1     -11.895   7.863  71.162  1.00  0.00    -0.307 C  
HETATM    9  C   UNL     1     -11.465   7.158  72.425  1.00  0.00    -0.264 C  
HETATM   10  O   UNL     1     -10.802   7.654  73.321  1.00  0.00    -0.394 OA 
HETATM   11  O   UNL     1     -11.901   5.877  72.470  1.00  0.00    -0.295 OA 
ENDBRANCH   7   8
ENDBRANCH   2   7
TORSDOF 3
ENDMDL
MODEL      130
REMARK 921   NORMALIZED FREE ENERGY PREDICTED BY IDOCK:   -2.30 KCAL/MOL
REMARK 922        TOTAL FREE ENERGY PREDICTED BY IDOCK:   -2.96 KCAL/MOL
REMARK 923 INTER-LIGAND FREE ENERGY PREDICTED BY IDOCK:   -2.83 KCAL/MOL
REMARK 924 INTRA-LIGAND FREE ENERGY PREDICTED BY IDOCK:   -0.13 KCAL/MOL
REMARK 927      BINDING AFFINITY PREDICTED BY RF-SCORE:    0.00 PKD
ROOT
HETATM    1  N   UNL     1     -12.380  14.688  68.292  1.00  0.00    -0.593 NA 
HETATM    2  C   UNL     1     -11.581  13.468  68.360  1.00  0.00    -0.343 C  
HETATM    3  H1  UNL     1     -12.226  15.258  69.124  1.00  0.00     0.000 HD 
HETATM    4  H2  UNL     1     -13.369  14.487  68.146  1.00  0.00     0.000 HD 
ENDROOT
BRANCH   2   5
HETATM    5  C   UNL     1     -10.139  13.863  68.521  1.00  0.00    -0.234 C  
HETATM    6  C   UNL     1      -9.723  14.969  69.152  1.00  0.00    -0.212 C  
ENDBRANCH   2   5
BRANCH   2   7
HETATM    7  C   UNL     1     -11.813  12.610  67.106  1.00  0.00    -0.399 C  
BRANCH   7   8
HETATM    8  C   UNL     1     -11.213  11.206  67.234  1.00  0.00    -0.347 C  
HETATM    9  C   UNL     1     -10.321  10.870  66.064  1.00  0.00    -0.245 C  
HETATM   10  O   UNL     1     -10.107  11.596  65.107  1.00  0.00    -0.243 OA 
HETATM   11  O   UNL     1      -9.763   9.643  66.182  1.00  0.00    -0.212 OA 
ENDBRANCH   7   8
ENDBRANCH   2   7
TORSDOF 3
ENDMDL
MODEL      131
REMARK 921   NORMALIZED FREE ENERGY PREDICTED BY IDOCK:   -2.30 KCAL/MOL
REMARK 922        TOTAL FREE ENERGY PREDICTED BY IDOCK:   -2.95 KCAL/MOL
REMARK 923 INTER-LIGAND FREE ENERGY PREDICTED BY IDOCK:   -2.75 KCAL/MOL
REMARK 924 INTRA-LIGAND FREE ENERGY PREDICTED BY IDOCK:   -0.20 KCAL/MOL
REMARK 927      BINDING AFFINITY PREDICTED BY RF-SCORE:    0.00 PKD
ROOT
HETATM    1  N   UNL     1      -7.412  19.672  68.842  1.00  0.00    -0.347 NA 
HETATM    2  C   UNL     1      -7.810  18.335  68.411  1.00  0.00    -0.305 C  
HETATM    3  H1  UNL     1      -6.545  19.627  69.378  1.00  0.00     0.000 HD 
HETATM    4  H2  UNL     1      -8.155  20.142  69.360  1.00  0.00     0.000 HD 
ENDROOT
BRANCH   2   5
HETATM    5  C   UNL     1      -6.680  17.745  67.615  1.00  0.00    -0.192 C  
HETATM    6  C   UNL     1      -6.818  16.754  66.724  1.00  0.00    -0.265 C  
ENDBRANCH   2   5
BRANCH   2   7
HETATM    7  C   UNL     1      -9.117  18.403  67.605  1.00  0.00    -0.282 C  
BRANCH   7   8
HETATM    8  C   UNL     1     -10.311  17.821  68.369  1.00  0.00    -0.378 C  
HETATM    9  C   UNL     1     -10.708  16.466  67.837  1.00  0.00    -0.332 C  
HETATM   10  O   UNL     1     -10.179  15.892  66.899  1.00  0.00    -0.264 OA 
HETATM   11  O   UNL     1     -11.744  15.930  68.523  1.00  0.00    -0.383 OA 
ENDBRANCH   7   8
ENDBRANCH   2   7
TORSDOF 3
ENDMDL
MODEL      132
REMARK 921   NORMALIZED FREE ENERGY PREDICTED BY IDOCK:   -2.29 KCAL/MOL
REMARK 922        TOTAL FREE ENERGY PREDICTED BY IDOCK:   -2.94 KCAL/MOL
REMARK 923 INTER-LIGAND FREE ENERGY PREDICTED BY IDOCK:   -2.82 KCAL/MOL
REMARK 924 INTRA-LIGAND FREE ENERGY PREDICTED BY IDOCK:   -0.12 KCAL/MOL
REMARK 927      BINDING AFFINITY PREDICTED BY RF-SCORE:    0.00 PKD
ROOT
HETATM    1  N   UNL     1      -9.087   6.590  71.293  1.00  0.00    -0.148 NA 
HETATM    2  C   UNL     1     -10.009   7.308  72.168  1.00  0.00    -0.165 C  
HETATM    3  H1  UNL     1      -8.315   6.202  71.836  1.00  0.00     0.000 HD 
HETATM    4  H2  UNL     1      -8.755   7.177  70.527  1.00  0.00     0.000 HD 
ENDROOT
BRANCH   2   5
HETATM    5  C   UNL     1     -10.484   6.355  73.229  1.00  0.00    -0.275 C  
HETATM    6  C   UNL     1     -11.225   5.264  72.991  1.00  0.00    -0.387 C  
ENDBRANCH   2   5
BRANCH   2   7
HETATM    7  C   UNL     1     -11.171   7.894  71.350  1.00  0.00    -0.280 C  
BRANCH   7   8
HETATM    8  C   UNL     1     -11.963   8.952  72.126  1.00  0.00    -0.419 C  
HETATM    9  C   UNL     1     -12.320  10.133  71.256  1.00  0.00    -0.400 C  
HETATM   10  O   UNL     1     -12.008  10.268  70.085  1.00  0.00    -0.262 OA 
HETATM   11  O   UNL     1     -13.044  11.060  71.925  1.00  0.00    -0.486 OA 
ENDBRANCH   7   8
ENDBRANCH   2   7
TORSDOF 3
ENDMDL
MODEL      133
REMARK 921   NORMALIZED FREE ENERGY PREDICTED BY IDOCK:   -2.28 KCAL/MOL
REMARK 922        TOTAL FREE ENERGY PREDICTED BY IDOCK:   -2.93 KCAL/MOL
REMARK 923 INTER-LIGAND FREE ENERGY PREDICTED BY IDOCK:   -2.80 KCAL/MOL
REMARK 924 INTRA-LIGAND FREE ENERGY PREDICTED BY IDOCK:   -0.12 KCAL/MOL
REMARK 927      BINDING AFFINITY PREDICTED BY RF-SCORE:    0.00 PKD
ROOT
HETATM    1  N   UNL     1     -10.482  13.475  67.135  1.00  0.00    -0.256 NA 
HETATM    2  C   UNL     1     -11.114  14.791  67.140  1.00  0.00    -0.333 C  
HETATM    3  H1  UNL     1      -9.840  13.393  66.347  1.00  0.00     0.000 HD 
HETATM    4  H2  UNL     1     -11.171  12.722  67.145  1.00  0.00     0.000 HD 
ENDROOT
BRANCH   2   5
HETATM    5  C   UNL     1     -10.028  15.830  67.180  1.00  0.00    -0.242 C  
HETATM    6  C   UNL     1      -8.757  15.612  66.813  1.00  0.00    -0.306 C  
ENDBRANCH   2   5
BRANCH   2   7
HETATM    7  C   UNL     1     -12.081  14.913  68.328  1.00  0.00    -0.146 C  
BRANCH   7   8
HETATM    8  C   UNL     1     -11.434  15.575  69.549  1.00  0.00    -0.341 C  
HETATM    9  C   UNL     1     -12.419  15.748  70.679  1.00  0.00    -0.354 C  
HETATM   10  O   UNL     1     -13.597  15.434  70.644  1.00  0.00    -0.341 OA 
HETATM   11  O   UNL     1     -11.849  16.306  71.773  1.00  0.00    -0.487 OA 
ENDBRANCH   7   8
ENDBRANCH   2   7
TORSDOF 3
ENDMDL
MODEL      134
REMARK 921   NORMALIZED FREE ENERGY PREDICTED BY IDOCK:   -2.27 KCAL/MOL
REMARK 922        TOTAL FREE ENERGY PREDICTED BY IDOCK:   -2.93 KCAL/MOL
REMARK 923 INTER-LIGAND FREE ENERGY PREDICTED BY IDOCK:   -2.72 KCAL/MOL
REMARK 924 INTRA-LIGAND FREE ENERGY PREDICTED BY IDOCK:   -0.21 KCAL/MOL
REMARK 927      BINDING AFFINITY PREDICTED BY RF-SCORE:    0.00 PKD
ROOT
HETATM    1  N   UNL     1     -10.723   8.248  72.558  1.00  0.00    -0.344 NA 
HETATM    2  C   UNL     1     -10.790   9.261  71.509  1.00  0.00    -0.372 C  
HETATM    3  H1  UNL     1     -11.195   8.579  73.400  1.00  0.00     0.000 HD 
HETATM    4  H2  UNL     1      -9.763   7.960  72.749  1.00  0.00     0.000 HD 
ENDROOT
BRANCH   2   5
HETATM    5  C   UNL     1     -12.237   9.581  71.261  1.00  0.00    -0.433 C  
HETATM    6  C   UNL     1     -12.779  10.799  71.403  1.00  0.00    -0.544 C  
ENDBRANCH   2   5
BRANCH   2   7
HETATM    7  C   UNL     1     -10.078   8.762  70.241  1.00  0.00    -0.214 C  
BRANCH   7   8
HETATM    8  C   UNL     1      -9.368   9.888  69.483  1.00  0.00    -0.236 C  
HETATM    9  C   UNL     1     -10.036  10.181  68.163  1.00  0.00    -0.152 C  
HETATM   10  O   UNL     1     -11.008   9.594  67.716  1.00  0.00    -0.260 OA 
HETATM   11  O   UNL     1      -9.433  11.195  67.498  1.00  0.00    -0.166 OA 
ENDBRANCH   7   8
ENDBRANCH   2   7
TORSDOF 3
ENDMDL
MODEL      135
REMARK 921   NORMALIZED FREE ENERGY PREDICTED BY IDOCK:   -2.27 KCAL/MOL
REMARK 922        TOTAL FREE ENERGY PREDICTED BY IDOCK:   -2.92 KCAL/MOL
REMARK 923 INTER-LIGAND FREE ENERGY PREDICTED BY IDOCK:   -2.86 KCAL/MOL
REMARK 924 INTRA-LIGAND FREE ENERGY PREDICTED BY IDOCK:   -0.06 KCAL/MOL
REMARK 927      BINDING AFFINITY PREDICTED BY RF-SCORE:    0.00 PKD
ROOT
HETATM    1  N   UNL     1     -12.049   8.153  73.171  1.00  0.00    -0.530 NA 
HETATM    2  C   UNL     1     -12.151   8.929  71.939  1.00  0.00    -0.373 C  
HETATM    3  H1  UNL     1     -12.781   8.430  73.825  1.00  0.00     0.000 HD 
HETATM    4  H2  UNL     1     -11.120   8.220  73.587  1.00  0.00     0.000 HD 
ENDROOT
BRANCH   2   5
HETATM    5  C   UNL     1     -13.529   8.727  71.372  1.00  0.00    -0.286 C  
HETATM    6  C   UNL     1     -14.222   7.583  71.456  1.00  0.00    -0.580 C  
ENDBRANCH   2   5
BRANCH   2   7
HETATM    7  C   UNL     1     -11.049   8.511  70.953  1.00  0.00    -0.295 C  
BRANCH   7   8
HETATM    8  C   UNL     1      -9.669   9.045  71.351  1.00  0.00    -0.369 C  
HETATM    9  C   UNL     1      -8.665   8.888  70.235  1.00  0.00    -0.169 C  
HETATM   10  O   UNL     1      -8.889   8.380  69.149  1.00  0.00    -0.140 OA 
HETATM   11  O   UNL     1      -7.450   9.384  70.566  1.00  0.00    -0.116 OA 
ENDBRANCH   7   8
ENDBRANCH   2   7
TORSDOF 3
ENDMDL
MODEL      136
REMARK 921   NORMALIZED FREE ENERGY PREDICTED BY IDOCK:   -2.25 KCAL/MOL
REMARK 922        TOTAL FREE ENERGY PREDICTED BY IDOCK:   -2.90 KCAL/MOL
REMARK 923 INTER-LIGAND FREE ENERGY PREDICTED BY IDOCK:   -2.78 KCAL/MOL
REMARK 924 INTRA-LIGAND FREE ENERGY PREDICTED BY IDOCK:   -0.12 KCAL/MOL
REMARK 927      BINDING AFFINITY PREDICTED BY RF-SCORE:    0.00 PKD
ROOT
HETATM    1  N   UNL     1      -9.030   9.933  68.325  1.00  0.00    -0.119 NA 
HETATM    2  C   UNL     1     -10.330   9.583  67.759  1.00  0.00    -0.239 C  
HETATM    3  H1  UNL     1      -8.648   9.144  68.846  1.00  0.00     0.000 HD 
HETATM    4  H2  UNL     1      -9.077  10.778  68.894  1.00  0.00     0.000 HD 
ENDROOT
BRANCH   2   5
HETATM    5  C   UNL     1     -10.152   8.364  66.898  1.00  0.00    -0.364 C  
HETATM    6  C   UNL     1     -10.894   7.252  66.997  1.00  0.00    -0.350 C  
ENDBRANCH   2   5
BRANCH   2   7
HETATM    7  C   UNL     1     -10.905  10.772  66.974  1.00  0.00    -0.311 C  
BRANCH   7   8
HETATM    8  C   UNL     1     -10.300  10.900  65.572  1.00  0.00    -0.316 C  
HETATM    9  C   UNL     1     -10.969  11.991  64.771  1.00  0.00    -0.311 C  
HETATM   10  O   UNL     1     -11.897  12.684  65.157  1.00  0.00    -0.353 OA 
HETATM   11  O   UNL     1     -10.423  12.131  63.541  1.00  0.00    -0.419 OA 
ENDBRANCH   7   8
ENDBRANCH   2   7
TORSDOF 3
ENDMDL
MODEL      137
REMARK 921   NORMALIZED FREE ENERGY PREDICTED BY IDOCK:   -2.24 KCAL/MOL
REMARK 922        TOTAL FREE ENERGY PREDICTED BY IDOCK:   -2.88 KCAL/MOL
REMARK 923 INTER-LIGAND FREE ENERGY PREDICTED BY IDOCK:   -2.92 KCAL/MOL
REMARK 924 INTRA-LIGAND FREE ENERGY PREDICTED BY IDOCK:    0.04 KCAL/MOL
REMARK 927      BINDING AFFINITY PREDICTED BY RF-SCORE:    0.00 PKD
ROOT
HETATM    1  N   UNL     1      -9.906  11.320  68.305  1.00  0.00    -0.190 NA 
HETATM    2  C   UNL     1     -10.903  12.369  68.500  1.00  0.00    -0.242 C  
HETATM    3  H1  UNL     1      -9.363  11.186  69.157  1.00  0.00     0.000 HD 
HETATM    4  H2  UNL     1      -9.309  11.508  67.499  1.00  0.00     0.000 HD 
ENDROOT
BRANCH   2   5
HETATM    5  C   UNL     1     -11.765  11.982  69.669  1.00  0.00    -0.405 C  
HETATM    6  C   UNL     1     -12.193  10.736  69.915  1.00  0.00    -0.384 C  
ENDBRANCH   2   5
BRANCH   2   7
HETATM    7  C   UNL     1     -11.721  12.572  67.215  1.00  0.00    -0.431 C  
BRANCH   7   8
HETATM    8  C   UNL     1     -11.074  13.578  66.258  1.00  0.00    -0.308 C  
HETATM    9  C   UNL     1     -11.192  14.993  66.770  1.00  0.00    -0.322 C  
HETATM   10  O   UNL     1     -11.750  15.327  67.802  1.00  0.00    -0.319 OA 
HETATM   11  O   UNL     1     -10.598  15.887  65.946  1.00  0.00    -0.323 OA 
ENDBRANCH   7   8
ENDBRANCH   2   7
TORSDOF 3
ENDMDL
MODEL      138
REMARK 921   NORMALIZED FREE ENERGY PREDICTED BY IDOCK:   -2.23 KCAL/MOL
REMARK 922        TOTAL FREE ENERGY PREDICTED BY IDOCK:   -2.88 KCAL/MOL
REMARK 923 INTER-LIGAND FREE ENERGY PREDICTED BY IDOCK:   -2.78 KCAL/MOL
REMARK 924 INTRA-LIGAND FREE ENERGY PREDICTED BY IDOCK:   -0.10 KCAL/MOL
REMARK 927      BINDING AFFINITY PREDICTED BY RF-SCORE:    0.00 PKD
ROOT
HETATM    1  N   UNL     1      -9.863   7.449  73.874  1.00  0.00    -0.377 NA 
HETATM    2  C   UNL     1     -11.099   7.362  73.102  1.00  0.00    -0.309 C  
HETATM    3  H1  UNL     1      -9.860   6.748  74.616  1.00  0.00     0.000 HD 
HETATM    4  H2  UNL     1      -9.707   8.389  74.238  1.00  0.00     0.000 HD 
ENDROOT
BRANCH   2   5
HETATM    5  C   UNL     1     -11.216   5.963  72.564  1.00  0.00    -0.341 C  
HETATM    6  C   UNL     1     -11.268   4.861  73.324  1.00  0.00    -0.423 C  
ENDBRANCH   2   5
BRANCH   2   7
HETATM    7  C   UNL     1     -11.104   8.418  71.985  1.00  0.00    -0.397 C  
BRANCH   7   8
HETATM    8  C   UNL     1      -9.702   8.949  71.670  1.00  0.00    -0.379 C  
HETATM    9  C   UNL     1      -9.496   9.138  70.187  1.00  0.00    -0.208 C  
HETATM   10  O   UNL     1     -10.317   8.883  69.321  1.00  0.00    -0.205 OA 
HETATM   11  O   UNL     1      -8.270   9.634  69.900  1.00  0.00    -0.138 OA 
ENDBRANCH   7   8
ENDBRANCH   2   7
TORSDOF 3
ENDMDL
MODEL      139
REMARK 921   NORMALIZED FREE ENERGY PREDICTED BY IDOCK:   -2.23 KCAL/MOL
REMARK 922        TOTAL FREE ENERGY PREDICTED BY IDOCK:   -2.88 KCAL/MOL
REMARK 923 INTER-LIGAND FREE ENERGY PREDICTED BY IDOCK:   -2.68 KCAL/MOL
REMARK 924 INTRA-LIGAND FREE ENERGY PREDICTED BY IDOCK:   -0.20 KCAL/MOL
REMARK 927      BINDING AFFINITY PREDICTED BY RF-SCORE:    0.00 PKD
ROOT
HETATM    1  N   UNL     1     -12.195  14.787  68.252  1.00  0.00    -0.591 NA 
HETATM    2  C   UNL     1     -11.783  14.555  66.871  1.00  0.00    -0.382 C  
HETATM    3  H1  UNL     1     -13.159  14.484  68.389  1.00  0.00     0.000 HD 
HETATM    4  H2  UNL     1     -12.059  15.759  68.531  1.00  0.00     0.000 HD 
ENDROOT
BRANCH   2   5
HETATM    5  C   UNL     1     -11.968  13.094  66.568  1.00  0.00    -0.459 C  
HETATM    6  C   UNL     1     -11.563  12.097  67.366  1.00  0.00    -0.410 C  
ENDBRANCH   2   5
BRANCH   2   7
HETATM    7  C   UNL     1     -10.330  15.013  66.665  1.00  0.00    -0.278 C  
BRANCH   7   8
HETATM    8  C   UNL     1      -9.562  15.148  67.984  1.00  0.00    -0.204 C  
HETATM    9  C   UNL     1      -8.262  14.383  67.954  1.00  0.00    -0.156 C  
HETATM   10  O   UNL     1      -7.858  13.710  67.020  1.00  0.00    -0.067 OA 
HETATM   11  O   UNL     1      -7.562  14.519  69.105  1.00  0.00    -0.131 OA 
ENDBRANCH   7   8
ENDBRANCH   2   7
TORSDOF 3
ENDMDL
MODEL      140
REMARK 921   NORMALIZED FREE ENERGY PREDICTED BY IDOCK:   -2.23 KCAL/MOL
REMARK 922        TOTAL FREE ENERGY PREDICTED BY IDOCK:   -2.87 KCAL/MOL
REMARK 923 INTER-LIGAND FREE ENERGY PREDICTED BY IDOCK:   -2.79 KCAL/MOL
REMARK 924 INTRA-LIGAND FREE ENERGY PREDICTED BY IDOCK:   -0.08 KCAL/MOL
REMARK 927      BINDING AFFINITY PREDICTED BY RF-SCORE:    0.00 PKD
ROOT
HETATM    1  N   UNL     1     -10.803  18.663  68.045  1.00  0.00    -0.295 NA 
HETATM    2  C   UNL     1     -10.154  17.429  68.477  1.00  0.00    -0.352 C  
HETATM    3  H1  UNL     1     -10.261  19.472  68.349  1.00  0.00     0.000 HD 
HETATM    4  H2  UNL     1     -11.772  18.714  68.361  1.00  0.00     0.000 HD 
ENDROOT
BRANCH   2   5
HETATM    5  C   UNL     1      -8.756  17.417  67.923  1.00  0.00    -0.237 C  
HETATM    6  C   UNL     1      -7.702  17.994  68.516  1.00  0.00    -0.308 C  
ENDBRANCH   2   5
BRANCH   2   7
HETATM    7  C   UNL     1     -10.971  16.210  68.020  1.00  0.00    -0.338 C  
BRANCH   7   8
HETATM    8  C   UNL     1     -11.886  15.666  69.123  1.00  0.00    -0.378 C  
HETATM    9  C   UNL     1     -11.575  14.226  69.447  1.00  0.00    -0.306 C  
HETATM   10  O   UNL     1     -10.725  13.545  68.897  1.00  0.00    -0.244 OA 
HETATM   11  O   UNL     1     -12.358  13.745  70.441  1.00  0.00    -0.333 OA 
ENDBRANCH   7   8
ENDBRANCH   2   7
TORSDOF 3
ENDMDL
MODEL      141
REMARK 921   NORMALIZED FREE ENERGY PREDICTED BY IDOCK:   -2.22 KCAL/MOL
REMARK 922        TOTAL FREE ENERGY PREDICTED BY IDOCK:   -2.86 KCAL/MOL
REMARK 923 INTER-LIGAND FREE ENERGY PREDICTED BY IDOCK:   -2.76 KCAL/MOL
REMARK 924 INTRA-LIGAND FREE ENERGY PREDICTED BY IDOCK:   -0.10 KCAL/MOL
REMARK 927      BINDING AFFINITY PREDICTED BY RF-SCORE:    0.00 PKD
ROOT
HETATM    1  N   UNL     1     -11.290  16.709  69.458  1.00  0.00    -0.287 NA 
HETATM    2  C   UNL     1     -10.177  17.498  68.940  1.00  0.00    -0.353 C  
HETATM    3  H1  UNL     1     -12.118  17.295  69.569  1.00  0.00     0.000 HD 
HETATM    4  H2  UNL     1     -11.046  16.229  70.325  1.00  0.00     0.000 HD 
ENDROOT
BRANCH   2   5
HETATM    5  C   UNL     1     -10.610  18.120  67.642  1.00  0.00    -0.424 C  
HETATM    6  C   UNL     1     -10.700  19.440  67.428  1.00  0.00    -0.594 C  
ENDBRANCH   2   5
BRANCH   2   7
HETATM    7  C   UNL     1      -8.930  16.614  68.774  1.00  0.00    -0.253 C  
BRANCH   7   8
HETATM    8  C   UNL     1      -7.867  17.257  67.878  1.00  0.00    -0.197 C  
HETATM    9  C   UNL     1      -7.134  16.228  67.052  1.00  0.00    -0.224 C  
HETATM   10  O   UNL     1      -7.325  15.024  67.091  1.00  0.00    -0.190 OA 
HETATM   11  O   UNL     1      -6.212  16.790  66.236  1.00  0.00    -0.236 OA 
ENDBRANCH   7   8
ENDBRANCH   2   7
TORSDOF 3
ENDMDL
MODEL      142
REMARK 921   NORMALIZED FREE ENERGY PREDICTED BY IDOCK:   -2.21 KCAL/MOL
REMARK 922        TOTAL FREE ENERGY PREDICTED BY IDOCK:   -2.85 KCAL/MOL
REMARK 923 INTER-LIGAND FREE ENERGY PREDICTED BY IDOCK:   -2.73 KCAL/MOL
REMARK 924 INTRA-LIGAND FREE ENERGY PREDICTED BY IDOCK:   -0.13 KCAL/MOL
REMARK 927      BINDING AFFINITY PREDICTED BY RF-SCORE:    0.00 PKD
ROOT
HETATM    1  N   UNL     1      -8.710   9.286  70.207  1.00  0.00    -0.199 NA 
HETATM    2  C   UNL     1      -9.687   9.060  71.269  1.00  0.00    -0.301 C  
HETATM    3  H1  UNL     1      -7.909   9.804  70.568  1.00  0.00     0.000 HD 
HETATM    4  H2  UNL     1      -9.128   9.746  69.398  1.00  0.00     0.000 HD 
ENDROOT
BRANCH   2   5
HETATM    5  C   UNL     1      -8.998   8.334  72.390  1.00  0.00    -0.297 C  
HETATM    6  C   UNL     1      -7.683   8.080  72.433  1.00  0.00    -0.146 C  
ENDBRANCH   2   5
BRANCH   2   7
HETATM    7  C   UNL     1     -10.894   8.279  70.725  1.00  0.00    -0.252 C  
BRANCH   7   8
HETATM    8  C   UNL     1     -11.978   8.058  71.785  1.00  0.00    -0.342 C  
HETATM    9  C   UNL     1     -13.017   9.152  71.760  1.00  0.00    -0.380 C  
HETATM   10  O   UNL     1     -13.007  10.120  71.016  1.00  0.00    -0.364 OA 
HETATM   11  O   UNL     1     -13.995   8.950  72.673  1.00  0.00    -0.448 OA 
ENDBRANCH   7   8
ENDBRANCH   2   7
TORSDOF 3
ENDMDL
MODEL      143
REMARK 921   NORMALIZED FREE ENERGY PREDICTED BY IDOCK:   -2.20 KCAL/MOL
REMARK 922        TOTAL FREE ENERGY PREDICTED BY IDOCK:   -2.84 KCAL/MOL
REMARK 923 INTER-LIGAND FREE ENERGY PREDICTED BY IDOCK:   -2.71 KCAL/MOL
REMARK 924 INTRA-LIGAND FREE ENERGY PREDICTED BY IDOCK:   -0.13 KCAL/MOL
REMARK 927      BINDING AFFINITY PREDICTED BY RF-SCORE:    0.00 PKD
ROOT
HETATM    1  N   UNL     1     -10.199  16.370  68.765  1.00  0.00    -0.242 NA 
HETATM    2  C   UNL     1     -10.865  16.243  67.472  1.00  0.00    -0.268 C  
HETATM    3  H1  UNL     1     -10.840  16.122  69.519  1.00  0.00     0.000 HD 
HETATM    4  H2  UNL     1      -9.798  17.299  68.897  1.00  0.00     0.000 HD 
ENDROOT
BRANCH   2   5
HETATM    5  C   UNL     1     -11.373  14.834  67.345  1.00  0.00    -0.361 C  
HETATM    6  C   UNL     1     -11.594  14.013  68.380  1.00  0.00    -0.366 C  
ENDBRANCH   2   5
BRANCH   2   7
HETATM    7  C   UNL     1      -9.898  16.618  66.337  1.00  0.00    -0.308 C  
BRANCH   7   8
HETATM    8  C   UNL     1      -8.452  16.765  66.820  1.00  0.00    -0.268 C  
HETATM    9  C   UNL     1      -7.899  18.137  66.519  1.00  0.00    -0.257 C  
HETATM   10  O   UNL     1      -8.498  19.029  65.941  1.00  0.00    -0.464 OA 
HETATM   11  O   UNL     1      -6.631  18.287  66.967  1.00  0.00    -0.178 OA 
ENDBRANCH   7   8
ENDBRANCH   2   7
TORSDOF 3
ENDMDL
MODEL      144
REMARK 921   NORMALIZED FREE ENERGY PREDICTED BY IDOCK:   -2.20 KCAL/MOL
REMARK 922        TOTAL FREE ENERGY PREDICTED BY IDOCK:   -2.83 KCAL/MOL
REMARK 923 INTER-LIGAND FREE ENERGY PREDICTED BY IDOCK:   -2.71 KCAL/MOL
REMARK 924 INTRA-LIGAND FREE ENERGY PREDICTED BY IDOCK:   -0.12 KCAL/MOL
REMARK 927      BINDING AFFINITY PREDICTED BY RF-SCORE:    0.00 PKD
ROOT
HETATM    1  N   UNL     1     -10.921   5.835  66.331  1.00  0.00    -0.740 NA 
HETATM    2  C   UNL     1     -10.943   7.040  67.155  1.00  0.00    -0.323 C  
HETATM    3  H1  UNL     1     -11.040   6.078  65.347  1.00  0.00     0.000 HD 
HETATM    4  H2  UNL     1     -11.611   5.151  66.640  1.00  0.00     0.000 HD 
ENDROOT
BRANCH   2   5
HETATM    5  C   UNL     1      -9.864   7.963  66.663  1.00  0.00    -0.311 C  
HETATM    6  C   UNL     1      -8.631   7.569  66.316  1.00  0.00    -0.153 C  
ENDBRANCH   2   5
BRANCH   2   7
HETATM    7  C   UNL     1     -10.766   6.675  68.637  1.00  0.00    -0.303 C  
BRANCH   7   8
HETATM    8  C   UNL     1     -10.279   5.235  68.835  1.00  0.00    -0.248 C  
HETATM    9  C   UNL     1     -10.179   4.874  70.297  1.00  0.00    -0.229 C  
HETATM   10  O   UNL     1     -10.425   5.623  71.228  1.00  0.00    -0.219 OA 
HETATM   11  O   UNL     1      -9.778   3.595  70.482  1.00  0.00    -0.186 OA 
ENDBRANCH   7   8
ENDBRANCH   2   7
TORSDOF 3
ENDMDL
MODEL      145
REMARK 921   NORMALIZED FREE ENERGY PREDICTED BY IDOCK:   -2.19 KCAL/MOL
REMARK 922        TOTAL FREE ENERGY PREDICTED BY IDOCK:   -2.83 KCAL/MOL
REMARK 923 INTER-LIGAND FREE ENERGY PREDICTED BY IDOCK:   -2.55 KCAL/MOL
REMARK 924 INTRA-LIGAND FREE ENERGY PREDICTED BY IDOCK:   -0.28 KCAL/MOL
REMARK 927      BINDING AFFINITY PREDICTED BY RF-SCORE:    0.00 PKD
ROOT
HETATM    1  N   UNL     1      -8.373  11.950  69.053  1.00  0.00    -0.362 NA 
HETATM    2  C   UNL     1      -9.547  11.096  68.899  1.00  0.00    -0.142 C  
HETATM    3  H1  UNL     1      -8.208  12.149  70.040  1.00  0.00     0.000 HD 
HETATM    4  H2  UNL     1      -8.449  12.805  68.501  1.00  0.00     0.000 HD 
ENDROOT
BRANCH   2   5
HETATM    5  C   UNL     1      -9.323   9.845  69.701  1.00  0.00    -0.247 C  
HETATM    6  C   UNL     1     -10.168   9.381  70.632  1.00  0.00    -0.353 C  
ENDBRANCH   2   5
BRANCH   2   7
HETATM    7  C   UNL     1      -9.796  10.798  67.411  1.00  0.00    -0.204 C  
BRANCH   7   8
HETATM    8  C   UNL     1     -11.054  11.489  66.875  1.00  0.00    -0.366 C  
HETATM    9  C   UNL     1     -10.771  12.905  66.436  1.00  0.00    -0.270 C  
HETATM   10  O   UNL     1      -9.690  13.465  66.512  1.00  0.00    -0.269 OA 
HETATM   11  O   UNL     1     -11.870  13.514  65.934  1.00  0.00    -0.338 OA 
ENDBRANCH   7   8
ENDBRANCH   2   7
TORSDOF 3
ENDMDL
MODEL      146
REMARK 921   NORMALIZED FREE ENERGY PREDICTED BY IDOCK:   -2.18 KCAL/MOL
REMARK 922        TOTAL FREE ENERGY PREDICTED BY IDOCK:   -2.82 KCAL/MOL
REMARK 923 INTER-LIGAND FREE ENERGY PREDICTED BY IDOCK:   -2.60 KCAL/MOL
REMARK 924 INTRA-LIGAND FREE ENERGY PREDICTED BY IDOCK:   -0.22 KCAL/MOL
REMARK 927      BINDING AFFINITY PREDICTED BY RF-SCORE:    0.00 PKD
ROOT
HETATM    1  N   UNL     1     -11.371   4.487  65.104  1.00  0.00    -1.113 NA 
HETATM    2  C   UNL     1     -10.462   4.860  66.184  1.00  0.00    -0.302 C  
HETATM    3  H1  UNL     1     -12.315   4.357  65.466  1.00  0.00     0.000 HD 
HETATM    4  H2  UNL     1     -11.041   3.666  64.596  1.00  0.00     0.000 HD 
ENDROOT
BRANCH   2   5
HETATM    5  C   UNL     1     -10.998   6.103  66.837  1.00  0.00    -0.384 C  
HETATM    6  C   UNL     1     -10.357   7.280  66.865  1.00  0.00    -0.358 C  
ENDBRANCH   2   5
BRANCH   2   7
HETATM    7  C   UNL     1      -9.038   5.056  65.638  1.00  0.00    -0.157 C  
BRANCH   7   8
HETATM    8  C   UNL     1      -8.060   3.994  66.149  1.00  0.00    -0.098 C  
HETATM    9  C   UNL     1      -7.388   4.423  67.430  1.00  0.00    -0.069 C  
HETATM   10  O   UNL     1      -7.563   5.489  67.998  1.00  0.00    -0.080 OA 
HETATM   11  O   UNL     1      -6.543   3.479  67.906  1.00  0.00    -0.040 OA 
ENDBRANCH   7   8
ENDBRANCH   2   7
TORSDOF 3
ENDMDL
MODEL      147
REMARK 921   NORMALIZED FREE ENERGY PREDICTED BY IDOCK:   -2.18 KCAL/MOL
REMARK 922        TOTAL FREE ENERGY PREDICTED BY IDOCK:   -2.82 KCAL/MOL
REMARK 923 INTER-LIGAND FREE ENERGY PREDICTED BY IDOCK:   -2.69 KCAL/MOL
REMARK 924 INTRA-LIGAND FREE ENERGY PREDICTED BY IDOCK:   -0.13 KCAL/MOL
REMARK 927      BINDING AFFINITY PREDICTED BY RF-SCORE:    0.00 PKD
ROOT
HETATM    1  N   UNL     1      -9.214  12.313  68.605  1.00  0.00    -0.394 NA 
HETATM    2  C   UNL     1     -10.232  11.294  68.372  1.00  0.00    -0.195 C  
HETATM    3  H1  UNL     1      -8.291  11.883  68.671  1.00  0.00     0.000 HD 
HETATM    4  H2  UNL     1      -9.427  12.884  69.423  1.00  0.00     0.000 HD 
ENDROOT
BRANCH   2   5
HETATM    5  C   UNL     1      -9.864  10.543  67.123  1.00  0.00    -0.213 C  
HETATM    6  C   UNL     1      -8.690  10.659  66.487  1.00  0.00    -0.151 C  
ENDBRANCH   2   5
BRANCH   2   7
HETATM    7  C   UNL     1     -11.622  11.942  68.273  1.00  0.00    -0.390 C  
BRANCH   7   8
HETATM    8  C   UNL     1     -11.704  13.277  69.021  1.00  0.00    -0.368 C  
HETATM    9  C   UNL     1     -12.261  13.106  70.412  1.00  0.00    -0.316 C  
HETATM   10  O   UNL     1     -12.634  12.051  70.900  1.00  0.00    -0.336 OA 
HETATM   11  O   UNL     1     -12.310  14.275  71.092  1.00  0.00    -0.329 OA 
ENDBRANCH   7   8
ENDBRANCH   2   7
TORSDOF 3
ENDMDL
MODEL      148
REMARK 921   NORMALIZED FREE ENERGY PREDICTED BY IDOCK:   -2.16 KCAL/MOL
REMARK 922        TOTAL FREE ENERGY PREDICTED BY IDOCK:   -2.79 KCAL/MOL
REMARK 923 INTER-LIGAND FREE ENERGY PREDICTED BY IDOCK:   -2.68 KCAL/MOL
REMARK 924 INTRA-LIGAND FREE ENERGY PREDICTED BY IDOCK:   -0.11 KCAL/MOL
REMARK 927      BINDING AFFINITY PREDICTED BY RF-SCORE:    0.00 PKD
ROOT
HETATM    1  N   UNL     1     -12.710   7.897  72.238  1.00  0.00    -0.513 NA 
HETATM    2  C   UNL     1     -11.365   8.284  71.823  1.00  0.00    -0.288 C  
HETATM    3  H1  UNL     1     -13.387   8.140  71.514  1.00  0.00     0.000 HD 
HETATM    4  H2  UNL     1     -12.960   8.299  73.142  1.00  0.00     0.000 HD 
ENDROOT
BRANCH   2   5
HETATM    5  C   UNL     1     -11.067   7.606  70.515  1.00  0.00    -0.267 C  
HETATM    6  C   UNL     1     -11.519   6.393  70.170  1.00  0.00    -0.484 C  
ENDBRANCH   2   5
BRANCH   2   7
HETATM    7  C   UNL     1     -10.346   7.919  72.914  1.00  0.00    -0.413 C  
BRANCH   7   8
HETATM    8  C   UNL     1      -8.928   8.394  72.578  1.00  0.00    -0.308 C  
HETATM    9  C   UNL     1      -7.911   7.847  73.549  1.00  0.00    -0.167 C  
HETATM   10  O   UNL     1      -8.160   7.134  74.507  1.00  0.00    -0.144 OA 
HETATM   11  O   UNL     1      -6.651   8.238  73.244  1.00  0.00    -0.097 OA 
ENDBRANCH   7   8
ENDBRANCH   2   7
TORSDOF 3
ENDMDL
MODEL      149
REMARK 921   NORMALIZED FREE ENERGY PREDICTED BY IDOCK:   -2.15 KCAL/MOL
REMARK 922        TOTAL FREE ENERGY PREDICTED BY IDOCK:   -2.79 KCAL/MOL
REMARK 923 INTER-LIGAND FREE ENERGY PREDICTED BY IDOCK:   -2.58 KCAL/MOL
REMARK 924 INTRA-LIGAND FREE ENERGY PREDICTED BY IDOCK:   -0.21 KCAL/MOL
REMARK 927      BINDING AFFINITY PREDICTED BY RF-SCORE:    0.00 PKD
ROOT
HETATM    1  N   UNL     1     -11.393   4.517  65.068  1.00  0.00    -1.108 NA 
HETATM    2  C   UNL     1     -10.532   4.739  66.225  1.00  0.00    -0.269 C  
HETATM    3  H1  UNL     1     -12.374   4.590  65.338  1.00  0.00     0.000 HD 
HETATM    4  H2  UNL     1     -11.190   3.629  64.608  1.00  0.00     0.000 HD 
ENDROOT
BRANCH   2   5
HETATM    5  C   UNL     1     -10.864   6.087  66.803  1.00  0.00    -0.356 C  
HETATM    6  C   UNL     1     -10.685   6.426  68.087  1.00  0.00    -0.359 C  
ENDBRANCH   2   5
BRANCH   2   7
HETATM    7  C   UNL     1      -9.054   4.629  65.818  1.00  0.00    -0.139 C  
BRANCH   7   8
HETATM    8  C   UNL     1      -8.829   4.919  64.331  1.00  0.00    -0.119 C  
HETATM    9  C   UNL     1      -8.248   6.294  64.111  1.00  0.00    -0.010 C  
HETATM   10  O   UNL     1      -8.001   7.106  64.988  1.00  0.00    -0.119 OA 
HETATM   11  O   UNL     1      -8.018   6.549  62.802  1.00  0.00    -0.100 OA 
ENDBRANCH   7   8
ENDBRANCH   2   7
TORSDOF 3
ENDMDL
MODEL      150
REMARK 921   NORMALIZED FREE ENERGY PREDICTED BY IDOCK:   -2.15 KCAL/MOL
REMARK 922        TOTAL FREE ENERGY PREDICTED BY IDOCK:   -2.78 KCAL/MOL
REMARK 923 INTER-LIGAND FREE ENERGY PREDICTED BY IDOCK:   -2.66 KCAL/MOL
REMARK 924 INTRA-LIGAND FREE ENERGY PREDICTED BY IDOCK:   -0.11 KCAL/MOL
REMARK 927      BINDING AFFINITY PREDICTED BY RF-SCORE:    0.00 PKD
ROOT
HETATM    1  N   UNL     1     -10.047   8.801  65.835  1.00  0.00    -0.388 NA 
HETATM    2  C   UNL     1     -10.073   8.227  67.178  1.00  0.00    -0.264 C  
HETATM    3  H1  UNL     1      -9.594   8.159  65.185  1.00  0.00     0.000 HD 
HETATM    4  H2  UNL     1      -9.612   9.724  65.824  1.00  0.00     0.000 HD 
ENDROOT
BRANCH   2   5
HETATM    5  C   UNL     1     -10.776   6.901  67.105  1.00  0.00    -0.436 C  
HETATM    6  C   UNL     1     -10.156   5.712  67.133  1.00  0.00    -0.215 C  
ENDBRANCH   2   5
BRANCH   2   7
HETATM    7  C   UNL     1     -10.755   9.195  68.157  1.00  0.00    -0.186 C  
BRANCH   7   8
HETATM    8  C   UNL     1     -10.591   8.767  69.619  1.00  0.00    -0.220 C  
HETATM    9  C   UNL     1     -11.372   9.658  70.554  1.00  0.00    -0.296 C  
HETATM   10  O   UNL     1     -12.038  10.623  70.218  1.00  0.00    -0.287 OA 
HETATM   11  O   UNL     1     -11.257   9.270  71.845  1.00  0.00    -0.370 OA 
ENDBRANCH   7   8
ENDBRANCH   2   7
TORSDOF 3
ENDMDL
MODEL      151
REMARK 921   NORMALIZED FREE ENERGY PREDICTED BY IDOCK:   -2.14 KCAL/MOL
REMARK 922        TOTAL FREE ENERGY PREDICTED BY IDOCK:   -2.77 KCAL/MOL
REMARK 923 INTER-LIGAND FREE ENERGY PREDICTED BY IDOCK:   -2.48 KCAL/MOL
REMARK 924 INTRA-LIGAND FREE ENERGY PREDICTED BY IDOCK:   -0.29 KCAL/MOL
REMARK 927      BINDING AFFINITY PREDICTED BY RF-SCORE:    0.00 PKD
ROOT
HETATM    1  N   UNL     1     -11.859  10.903  67.906  1.00  0.00    -0.735 NA 
HETATM    2  C   UNL     1     -11.327  12.255  67.764  1.00  0.00    -0.301 C  
HETATM    3  H1  UNL     1     -12.799  10.850  67.513  1.00  0.00     0.000 HD 
HETATM    4  H2  UNL     1     -11.833  10.584  68.874  1.00  0.00     0.000 HD 
ENDROOT
BRANCH   2   5
HETATM    5  C   UNL     1     -11.355  12.617  66.305  1.00  0.00    -0.376 C  
HETATM    6  C   UNL     1     -11.154  11.748  65.305  1.00  0.00    -0.333 C  
ENDBRANCH   2   5
BRANCH   2   7
HETATM    7  C   UNL     1      -9.911  12.335  68.356  1.00  0.00    -0.199 C  
BRANCH   7   8
HETATM    8  C   UNL     1      -9.282  10.954  68.568  1.00  0.00    -0.181 C  
HETATM    9  C   UNL     1      -8.232  10.652  67.527  1.00  0.00    -0.111 C  
HETATM   10  O   UNL     1      -7.920  11.387  66.604  1.00  0.00    -0.156 OA 
HETATM   11  O   UNL     1      -7.650   9.446  67.722  1.00  0.00    -0.087 OA 
ENDBRANCH   7   8
ENDBRANCH   2   7
TORSDOF 3
ENDMDL
MODEL      152
REMARK 921   NORMALIZED FREE ENERGY PREDICTED BY IDOCK:   -2.14 KCAL/MOL
REMARK 922        TOTAL FREE ENERGY PREDICTED BY IDOCK:   -2.76 KCAL/MOL
REMARK 923 INTER-LIGAND FREE ENERGY PREDICTED BY IDOCK:   -2.59 KCAL/MOL
REMARK 924 INTRA-LIGAND FREE ENERGY PREDICTED BY IDOCK:   -0.17 KCAL/MOL
REMARK 927      BINDING AFFINITY PREDICTED BY RF-SCORE:    0.00 PKD
ROOT
HETATM    1  N   UNL     1     -12.120  12.375  66.447  1.00  0.00    -0.614 NA 
HETATM    2  C   UNL     1     -11.879  12.841  67.810  1.00  0.00    -0.332 C  
HETATM    3  H1  UNL     1     -12.877  12.908  66.020  1.00  0.00     0.000 HD 
HETATM    4  H2  UNL     1     -12.296  11.371  66.415  1.00  0.00     0.000 HD 
ENDROOT
BRANCH   2   5
HETATM    5  C   UNL     1     -11.577  14.313  67.753  1.00  0.00    -0.383 C  
HETATM    6  C   UNL     1     -11.723  15.156  68.785  1.00  0.00    -0.366 C  
ENDBRANCH   2   5
BRANCH   2   7
HETATM    7  C   UNL     1     -10.738  12.037  68.453  1.00  0.00    -0.255 C  
BRANCH   7   8
HETATM    8  C   UNL     1      -9.920  11.249  67.425  1.00  0.00    -0.206 C  
HETATM    9  C   UNL     1      -8.495  11.740  67.348  1.00  0.00    -0.158 C  
HETATM   10  O   UNL     1      -8.031  12.666  67.993  1.00  0.00    -0.132 OA 
HETATM   11  O   UNL     1      -7.756  11.031  66.463  1.00  0.00    -0.146 OA 
ENDBRANCH   7   8
ENDBRANCH   2   7
TORSDOF 3
ENDMDL
MODEL      153
REMARK 921   NORMALIZED FREE ENERGY PREDICTED BY IDOCK:   -2.13 KCAL/MOL
REMARK 922        TOTAL FREE ENERGY PREDICTED BY IDOCK:   -2.76 KCAL/MOL
REMARK 923 INTER-LIGAND FREE ENERGY PREDICTED BY IDOCK:   -2.48 KCAL/MOL
REMARK 924 INTRA-LIGAND FREE ENERGY PREDICTED BY IDOCK:   -0.28 KCAL/MOL
REMARK 927      BINDING AFFINITY PREDICTED BY RF-SCORE:    0.00 PKD
ROOT
HETATM    1  N   UNL     1      -9.293  13.404  65.938  1.00  0.00    -0.491 NA 
HETATM    2  C   UNL     1      -8.974  12.040  66.350  1.00  0.00    -0.161 C  
HETATM    3  H1  UNL     1      -9.410  13.450  64.926  1.00  0.00     0.000 HD 
HETATM    4  H2  UNL     1      -8.600  14.074  66.272  1.00  0.00     0.000 HD 
ENDROOT
BRANCH   2   5
HETATM    5  C   UNL     1     -10.072  11.137  65.862  1.00  0.00    -0.296 C  
HETATM    6  C   UNL     1      -9.935  10.242  64.874  1.00  0.00    -0.393 C  
ENDBRANCH   2   5
BRANCH   2   7
HETATM    7  C   UNL     1      -8.798  11.972  67.875  1.00  0.00    -0.174 C  
BRANCH   7   8
HETATM    8  C   UNL     1     -10.084  11.558  68.599  1.00  0.00    -0.214 C  
HETATM    9  C   UNL     1     -10.973  12.744  68.881  1.00  0.00    -0.231 C  
HETATM   10  O   UNL     1     -10.715  13.903  68.602  1.00  0.00    -0.248 OA 
HETATM   11  O   UNL     1     -12.125  12.385  69.494  1.00  0.00    -0.268 OA 
ENDBRANCH   7   8
ENDBRANCH   2   7
TORSDOF 3
ENDMDL
MODEL      154
REMARK 921   NORMALIZED FREE ENERGY PREDICTED BY IDOCK:   -2.13 KCAL/MOL
REMARK 922        TOTAL FREE ENERGY PREDICTED BY IDOCK:   -2.75 KCAL/MOL
REMARK 923 INTER-LIGAND FREE ENERGY PREDICTED BY IDOCK:   -2.63 KCAL/MOL
REMARK 924 INTRA-LIGAND FREE ENERGY PREDICTED BY IDOCK:   -0.12 KCAL/MOL
REMARK 927      BINDING AFFINITY PREDICTED BY RF-SCORE:    0.00 PKD
ROOT
HETATM    1  N   UNL     1      -7.987   9.901  69.581  1.00  0.00    -0.145 NA 
HETATM    2  C   UNL     1      -8.991   9.439  70.535  1.00  0.00    -0.253 C  
HETATM    3  H1  UNL     1      -7.049   9.717  69.938  1.00  0.00     0.000 HD 
HETATM    4  H2  UNL     1      -8.115  10.884  69.340  1.00  0.00     0.000 HD 
ENDROOT
BRANCH   2   5
HETATM    5  C   UNL     1      -8.756   7.976  70.789  1.00  0.00    -0.139 C  
HETATM    6  C   UNL     1      -8.983   7.006  69.892  1.00  0.00    -0.142 C  
ENDBRANCH   2   5
BRANCH   2   7
HETATM    7  C   UNL     1     -10.404   9.718  69.998  1.00  0.00    -0.307 C  
BRANCH   7   8
HETATM    8  C   UNL     1     -11.460   9.749  71.108  1.00  0.00    -0.472 C  
HETATM    9  C   UNL     1     -12.325  10.982  71.021  1.00  0.00    -0.385 C  
HETATM   10  O   UNL     1     -12.205  11.873  70.197  1.00  0.00    -0.288 OA 
HETATM   11  O   UNL     1     -13.281  11.004  71.980  1.00  0.00    -0.499 OA 
ENDBRANCH   7   8
ENDBRANCH   2   7
TORSDOF 3
ENDMDL
MODEL      155
REMARK 921   NORMALIZED FREE ENERGY PREDICTED BY IDOCK:   -2.12 KCAL/MOL
REMARK 922        TOTAL FREE ENERGY PREDICTED BY IDOCK:   -2.75 KCAL/MOL
REMARK 923 INTER-LIGAND FREE ENERGY PREDICTED BY IDOCK:   -2.48 KCAL/MOL
REMARK 924 INTRA-LIGAND FREE ENERGY PREDICTED BY IDOCK:   -0.27 KCAL/MOL
REMARK 927      BINDING AFFINITY PREDICTED BY RF-SCORE:    0.00 PKD
ROOT
HETATM    1  N   UNL     1      -7.075  16.348  68.335  1.00  0.00    -0.151 NA 
HETATM    2  C   UNL     1      -7.198  17.497  67.442  1.00  0.00    -0.169 C  
HETATM    3  H1  UNL     1      -6.207  16.405  68.866  1.00  0.00     0.000 HD 
HETATM    4  H2  UNL     1      -7.156  15.465  67.831  1.00  0.00     0.000 HD 
ENDROOT
BRANCH   2   5
HETATM    5  C   UNL     1      -7.122  18.746  68.275  1.00  0.00    -0.278 C  
HETATM    6  C   UNL     1      -7.472  19.966  67.844  1.00  0.00    -0.328 C  
ENDBRANCH   2   5
BRANCH   2   7
HETATM    7  C   UNL     1      -8.507  17.410  66.641  1.00  0.00    -0.291 C  
BRANCH   7   8
HETATM    8  C   UNL     1      -9.528  16.463  67.280  1.00  0.00    -0.231 C  
HETATM    9  C   UNL     1     -10.672  17.217  67.912  1.00  0.00    -0.351 C  
HETATM   10  O   UNL     1     -10.785  18.432  67.947  1.00  0.00    -0.392 OA 
HETATM   11  O   UNL     1     -11.594  16.388  68.454  1.00  0.00    -0.286 OA 
ENDBRANCH   7   8
ENDBRANCH   2   7
TORSDOF 3
ENDMDL
MODEL      156
REMARK 921   NORMALIZED FREE ENERGY PREDICTED BY IDOCK:   -2.12 KCAL/MOL
REMARK 922        TOTAL FREE ENERGY PREDICTED BY IDOCK:   -2.74 KCAL/MOL
REMARK 923 INTER-LIGAND FREE ENERGY PREDICTED BY IDOCK:   -2.59 KCAL/MOL
REMARK 924 INTRA-LIGAND FREE ENERGY PREDICTED BY IDOCK:   -0.15 KCAL/MOL
REMARK 927      BINDING AFFINITY PREDICTED BY RF-SCORE:    0.00 PKD
ROOT
HETATM    1  N   UNL     1     -11.904   6.677  69.861  1.00  0.00    -0.653 NA 
HETATM    2  C   UNL     1     -10.667   6.656  69.086  1.00  0.00    -0.264 C  
HETATM    3  H1  UNL     1     -12.540   7.384  69.493  1.00  0.00     0.000 HD 
HETATM    4  H2  UNL     1     -11.726   6.806  70.857  1.00  0.00     0.000 HD 
ENDROOT
BRANCH   2   5
HETATM    5  C   UNL     1     -11.021   6.409  67.646  1.00  0.00    -0.441 C  
HETATM    6  C   UNL     1     -10.456   5.468  66.878  1.00  0.00    -0.348 C  
ENDBRANCH   2   5
BRANCH   2   7
HETATM    7  C   UNL     1      -9.708   5.590  69.641  1.00  0.00    -0.230 C  
BRANCH   7   8
HETATM    8  C   UNL     1     -10.174   5.023  70.986  1.00  0.00    -0.283 C  
HETATM    9  C   UNL     1      -9.163   5.272  72.078  1.00  0.00    -0.137 C  
HETATM   10  O   UNL     1      -8.088   5.831  71.933  1.00  0.00    -0.110 OA 
HETATM   11  O   UNL     1      -9.578   4.801  73.277  1.00  0.00    -0.129 OA 
ENDBRANCH   7   8
ENDBRANCH   2   7
TORSDOF 3
ENDMDL
MODEL      157
REMARK 921   NORMALIZED FREE ENERGY PREDICTED BY IDOCK:   -2.12 KCAL/MOL
REMARK 922        TOTAL FREE ENERGY PREDICTED BY IDOCK:   -2.74 KCAL/MOL
REMARK 923 INTER-LIGAND FREE ENERGY PREDICTED BY IDOCK:   -2.48 KCAL/MOL
REMARK 924 INTRA-LIGAND FREE ENERGY PREDICTED BY IDOCK:   -0.26 KCAL/MOL
REMARK 927      BINDING AFFINITY PREDICTED BY RF-SCORE:    0.00 PKD
ROOT
HETATM    1  N   UNL     1     -11.624   8.842  71.983  1.00  0.00    -0.367 NA 
HETATM    2  C   UNL     1     -10.178   8.898  71.786  1.00  0.00    -0.344 C  
HETATM    3  H1  UNL     1     -12.094   9.462  71.324  1.00  0.00     0.000 HD 
HETATM    4  H2  UNL     1     -11.884   9.046  72.949  1.00  0.00     0.000 HD 
ENDROOT
BRANCH   2   5
HETATM    5  C   UNL     1      -9.888   8.533  70.357  1.00  0.00    -0.198 C  
HETATM    6  C   UNL     1     -10.451   7.505  69.708  1.00  0.00    -0.232 C  
ENDBRANCH   2   5
BRANCH   2   7
HETATM    7  C   UNL     1      -9.469   7.965  72.781  1.00  0.00    -0.304 C  
BRANCH   7   8
HETATM    8  C   UNL     1     -10.452   7.149  73.627  1.00  0.00    -0.412 C  
HETATM    9  C   UNL     1     -10.394   5.679  73.289  1.00  0.00    -0.211 C  
HETATM   10  O   UNL     1      -9.682   5.178  72.435  1.00  0.00    -0.149 OA 
HETATM   11  O   UNL     1     -11.239   4.946  74.051  1.00  0.00    -0.259 OA 
ENDBRANCH   7   8
ENDBRANCH   2   7
TORSDOF 3
ENDMDL
MODEL      158
REMARK 921   NORMALIZED FREE ENERGY PREDICTED BY IDOCK:   -2.11 KCAL/MOL
REMARK 922        TOTAL FREE ENERGY PREDICTED BY IDOCK:   -2.73 KCAL/MOL
REMARK 923 INTER-LIGAND FREE ENERGY PREDICTED BY IDOCK:   -2.59 KCAL/MOL
REMARK 924 INTRA-LIGAND FREE ENERGY PREDICTED BY IDOCK:   -0.14 KCAL/MOL
REMARK 927      BINDING AFFINITY PREDICTED BY RF-SCORE:    0.00 PKD
ROOT
HETATM    1  N   UNL     1     -10.158  10.242  65.053  1.00  0.00    -0.323 NA 
HETATM    2  C   UNL     1      -9.814  11.409  64.247  1.00  0.00    -0.261 C  
HETATM    3  H1  UNL     1     -10.466  10.531  65.982  1.00  0.00     0.000 HD 
HETATM    4  H2  UNL     1      -9.390   9.572  65.099  1.00  0.00     0.000 HD 
ENDROOT
BRANCH   2   5
HETATM    5  C   UNL     1     -11.016  12.310  64.192  1.00  0.00    -0.415 C  
HETATM    6  C   UNL     1     -12.192  11.970  63.648  1.00  0.00    -0.642 C  
ENDBRANCH   2   5
BRANCH   2   7
HETATM    7  C   UNL     1      -9.349  10.973  62.849  1.00  0.00    -0.380 C  
BRANCH   7   8
HETATM    8  C   UNL     1      -8.725   9.573  62.846  1.00  0.00    -0.233 C  
HETATM    9  C   UNL     1      -7.237   9.624  62.601  1.00  0.00    -0.103 C  
HETATM   10  O   UNL     1      -6.588  10.637  62.401  1.00  0.00    -0.142 OA 
HETATM   11  O   UNL     1      -6.672   8.394  62.625  1.00  0.00    -0.090 OA 
ENDBRANCH   7   8
ENDBRANCH   2   7
TORSDOF 3
ENDMDL
MODEL      159
REMARK 921   NORMALIZED FREE ENERGY PREDICTED BY IDOCK:   -2.11 KCAL/MOL
REMARK 922        TOTAL FREE ENERGY PREDICTED BY IDOCK:   -2.73 KCAL/MOL
REMARK 923 INTER-LIGAND FREE ENERGY PREDICTED BY IDOCK:   -2.62 KCAL/MOL
REMARK 924 INTRA-LIGAND FREE ENERGY PREDICTED BY IDOCK:   -0.11 KCAL/MOL
REMARK 927      BINDING AFFINITY PREDICTED BY RF-SCORE:    0.00 PKD
ROOT
HETATM    1  N   UNL     1      -9.924  12.665  64.142  1.00  0.00    -0.609 NA 
HETATM    2  C   UNL     1     -10.633  12.055  65.263  1.00  0.00    -0.287 C  
HETATM    3  H1  UNL     1     -10.529  13.332  63.663  1.00  0.00     0.000 HD 
HETATM    4  H2  UNL     1      -9.548  11.964  63.503  1.00  0.00     0.000 HD 
ENDROOT
BRANCH   2   5
HETATM    5  C   UNL     1     -11.102  13.155  66.174  1.00  0.00    -0.301 C  
HETATM    6  C   UNL     1     -11.741  12.956  67.335  1.00  0.00    -0.428 C  
ENDBRANCH   2   5
BRANCH   2   7
HETATM    7  C   UNL     1      -9.721  11.050  65.986  1.00  0.00    -0.265 C  
BRANCH   7   8
HETATM    8  C   UNL     1     -10.259   9.616  65.923  1.00  0.00    -0.219 C  
HETATM    9  C   UNL     1      -9.547   8.709  66.897  1.00  0.00    -0.194 C  
HETATM   10  O   UNL     1      -8.636   9.042  67.637  1.00  0.00    -0.120 OA 
HETATM   11  O   UNL     1     -10.035   7.447  66.870  1.00  0.00    -0.199 OA 
ENDBRANCH   7   8
ENDBRANCH   2   7
TORSDOF 3
ENDMDL
MODEL      160
REMARK 921   NORMALIZED FREE ENERGY PREDICTED BY IDOCK:   -2.08 KCAL/MOL
REMARK 922        TOTAL FREE ENERGY PREDICTED BY IDOCK:   -2.70 KCAL/MOL
REMARK 923 INTER-LIGAND FREE ENERGY PREDICTED BY IDOCK:   -2.59 KCAL/MOL
REMARK 924 INTRA-LIGAND FREE ENERGY PREDICTED BY IDOCK:   -0.11 KCAL/MOL
REMARK 927      BINDING AFFINITY PREDICTED BY RF-SCORE:    0.00 PKD
ROOT
HETATM    1  N   UNL     1      -7.908  19.439  69.029  1.00  0.00    -0.341 NA 
HETATM    2  C   UNL     1      -7.450  18.161  68.492  1.00  0.00    -0.280 C  
HETATM    3  H1  UNL     1      -7.403  19.664  69.886  1.00  0.00     0.000 HD 
HETATM    4  H2  UNL     1      -8.919  19.453  69.168  1.00  0.00     0.000 HD 
ENDROOT
BRANCH   2   5
HETATM    5  C   UNL     1      -5.966  18.252  68.271  1.00  0.00    -0.175 C  
HETATM    6  C   UNL     1      -5.266  17.426  67.481  1.00  0.00    -0.131 C  
ENDBRANCH   2   5
BRANCH   2   7
HETATM    7  C   UNL     1      -8.212  17.822  67.201  1.00  0.00    -0.233 C  
BRANCH   7   8
HETATM    8  C   UNL     1      -9.208  18.916  66.801  1.00  0.00    -0.335 C  
HETATM    9  C   UNL     1     -10.241  18.402  65.828  1.00  0.00    -0.095 C  
HETATM   10  O   UNL     1     -10.287  17.268  65.379  1.00  0.00    -0.626 OA 
HETATM   11  O   UNL     1     -11.144  19.352  65.491  1.00  0.00    -0.374 OA 
ENDBRANCH   7   8
ENDBRANCH   2   7
TORSDOF 3
ENDMDL
MODEL      161
REMARK 921   NORMALIZED FREE ENERGY PREDICTED BY IDOCK:   -2.07 KCAL/MOL
REMARK 922        TOTAL FREE ENERGY PREDICTED BY IDOCK:   -2.69 KCAL/MOL
REMARK 923 INTER-LIGAND FREE ENERGY PREDICTED BY IDOCK:   -2.53 KCAL/MOL
REMARK 924 INTRA-LIGAND FREE ENERGY PREDICTED BY IDOCK:   -0.16 KCAL/MOL
REMARK 927      BINDING AFFINITY PREDICTED BY RF-SCORE:    0.00 PKD
ROOT
HETATM    1  N   UNL     1     -12.102   6.575  70.168  1.00  0.00    -0.499 NA 
HETATM    2  C   UNL     1     -11.283   7.176  69.121  1.00  0.00     0.039 C  
HETATM    3  H1  UNL     1     -12.829   5.990  69.756  1.00  0.00     0.000 HD 
HETATM    4  H2  UNL     1     -12.491   7.277  70.798  1.00  0.00     0.000 HD 
ENDROOT
BRANCH   2   5
HETATM    5  C   UNL     1     -10.713   6.068  68.280  1.00  0.00    -0.352 C  
HETATM    6  C   UNL     1     -10.743   6.042  66.940  1.00  0.00    -0.407 C  
ENDBRANCH   2   5
BRANCH   2   7
HETATM    7  C   UNL     1     -10.187   8.058  69.742  1.00  0.00    -0.206 C  
BRANCH   7   8
HETATM    8  C   UNL     1     -10.238   9.504  69.237  1.00  0.00    -0.212 C  
HETATM    9  C   UNL     1     -11.137  10.363  70.092  1.00  0.00    -0.314 C  
HETATM   10  O   UNL     1     -11.776   9.977  71.057  1.00  0.00    -0.334 OA 
HETATM   11  O   UNL     1     -11.166  11.649  69.672  1.00  0.00    -0.242 OA 
ENDBRANCH   7   8
ENDBRANCH   2   7
TORSDOF 3
ENDMDL
MODEL      162
REMARK 921   NORMALIZED FREE ENERGY PREDICTED BY IDOCK:   -2.06 KCAL/MOL
REMARK 922        TOTAL FREE ENERGY PREDICTED BY IDOCK:   -2.67 KCAL/MOL
REMARK 923 INTER-LIGAND FREE ENERGY PREDICTED BY IDOCK:   -2.57 KCAL/MOL
REMARK 924 INTRA-LIGAND FREE ENERGY PREDICTED BY IDOCK:   -0.10 KCAL/MOL
REMARK 927      BINDING AFFINITY PREDICTED BY RF-SCORE:    0.00 PKD
ROOT
HETATM    1  N   UNL     1     -10.244  13.363  66.725  1.00  0.00    -0.255 NA 
HETATM    2  C   UNL     1     -10.376  14.717  67.254  1.00  0.00    -0.256 C  
HETATM    3  H1  UNL     1      -9.636  13.361  65.905  1.00  0.00     0.000 HD 
HETATM    4  H2  UNL     1     -11.151  12.942  66.527  1.00  0.00     0.000 HD 
ENDROOT
BRANCH   2   5
HETATM    5  C   UNL     1      -8.999  15.233  67.566  1.00  0.00    -0.192 C  
HETATM    6  C   UNL     1      -8.738  16.465  68.025  1.00  0.00    -0.183 C  
ENDBRANCH   2   5
BRANCH   2   7
HETATM    7  C   UNL     1     -11.291  14.719  68.489  1.00  0.00    -0.309 C  
BRANCH   7   8
HETATM    8  C   UNL     1     -11.537  13.311  69.042  1.00  0.00    -0.359 C  
HETATM    9  C   UNL     1     -12.243  13.350  70.375  1.00  0.00    -0.345 C  
HETATM   10  O   UNL     1     -12.568  14.362  70.974  1.00  0.00    -0.306 OA 
HETATM   11  O   UNL     1     -12.491  12.110  70.859  1.00  0.00    -0.368 OA 
ENDBRANCH   7   8
ENDBRANCH   2   7
TORSDOF 3
ENDMDL
MODEL      163
REMARK 921   NORMALIZED FREE ENERGY PREDICTED BY IDOCK:   -1.98 KCAL/MOL
REMARK 922        TOTAL FREE ENERGY PREDICTED BY IDOCK:   -2.59 KCAL/MOL
REMARK 923 INTER-LIGAND FREE ENERGY PREDICTED BY IDOCK:   -2.51 KCAL/MOL
REMARK 924 INTRA-LIGAND FREE ENERGY PREDICTED BY IDOCK:   -0.08 KCAL/MOL
REMARK 927      BINDING AFFINITY PREDICTED BY RF-SCORE:    0.00 PKD
ROOT
HETATM    1  N   UNL     1     -10.274   5.213  71.344  1.00  0.00    -0.209 NA 
HETATM    2  C   UNL     1     -10.270   6.594  70.871  1.00  0.00    -0.196 C  
HETATM    3  H1  UNL     1      -9.872   5.158  72.279  1.00  0.00     0.000 HD 
HETATM    4  H2  UNL     1      -9.805   4.586  70.690  1.00  0.00     0.000 HD 
ENDROOT
BRANCH   2   5
HETATM    5  C   UNL     1     -11.026   7.431  71.865  1.00  0.00    -0.267 C  
HETATM    6  C   UNL     1     -10.774   7.454  73.181  1.00  0.00    -0.436 C  
ENDBRANCH   2   5
BRANCH   2   7
HETATM    7  C   UNL     1     -10.876   6.676  69.460  1.00  0.00    -0.339 C  
BRANCH   7   8
HETATM    8  C   UNL     1     -10.476   7.957  68.721  1.00  0.00    -0.198 C  
HETATM    9  C   UNL     1     -10.523   7.777  67.224  1.00  0.00    -0.322 C  
HETATM   10  O   UNL     1     -10.815   6.743  66.645  1.00  0.00    -0.256 OA 
HETATM   11  O   UNL     1     -10.200   8.912  66.561  1.00  0.00    -0.284 OA 
ENDBRANCH   7   8
ENDBRANCH   2   7
TORSDOF 3
ENDMDL
MODEL      164
REMARK 921   NORMALIZED FREE ENERGY PREDICTED BY IDOCK:   -1.98 KCAL/MOL
REMARK 922        TOTAL FREE ENERGY PREDICTED BY IDOCK:   -2.58 KCAL/MOL
REMARK 923 INTER-LIGAND FREE ENERGY PREDICTED BY IDOCK:   -2.27 KCAL/MOL
REMARK 924 INTRA-LIGAND FREE ENERGY PREDICTED BY IDOCK:   -0.31 KCAL/MOL
REMARK 927      BINDING AFFINITY PREDICTED BY RF-SCORE:    0.00 PKD
ROOT
HETATM    1  N   UNL     1      -6.748  20.520  67.992  1.00  0.00    -0.299 NA 
HETATM    2  C   UNL     1      -6.580  19.837  66.713  1.00  0.00    -0.193 C  
HETATM    3  H1  UNL     1      -5.881  20.986  68.260  1.00  0.00     0.000 HD 
HETATM    4  H2  UNL     1      -7.081  19.887  68.720  1.00  0.00     0.000 HD 
ENDROOT
BRANCH   2   5
HETATM    5  C   UNL     1      -6.142  20.853  65.695  1.00  0.00    -0.277 C  
HETATM    6  C   UNL     1      -5.620  20.550  64.498  1.00  0.00    -0.258 C  
ENDBRANCH   2   5
BRANCH   2   7
HETATM    7  C   UNL     1      -7.886  19.134  66.309  1.00  0.00    -0.307 C  
BRANCH   7   8
HETATM    8  C   UNL     1      -7.818  17.615  66.492  1.00  0.00    -0.307 C  
HETATM    9  C   UNL     1      -8.230  17.200  67.883  1.00  0.00    -0.202 C  
HETATM   10  O   UNL     1      -8.556  17.960  68.780  1.00  0.00    -0.281 OA 
HETATM   11  O   UNL     1      -8.201  15.857  68.046  1.00  0.00    -0.145 OA 
ENDBRANCH   7   8
ENDBRANCH   2   7
TORSDOF 3
ENDMDL
MODEL      165
REMARK 921   NORMALIZED FREE ENERGY PREDICTED BY IDOCK:   -1.97 KCAL/MOL
REMARK 922        TOTAL FREE ENERGY PREDICTED BY IDOCK:   -2.57 KCAL/MOL
REMARK 923 INTER-LIGAND FREE ENERGY PREDICTED BY IDOCK:   -2.30 KCAL/MOL
REMARK 924 INTRA-LIGAND FREE ENERGY PREDICTED BY IDOCK:   -0.27 KCAL/MOL
REMARK 927      BINDING AFFINITY PREDICTED BY RF-SCORE:    0.00 PKD
ROOT
HETATM    1  N   UNL     1      -9.836   4.472  71.605  1.00  0.00    -0.181 NA 
HETATM    2  C   UNL     1     -10.523   5.145  72.703  1.00  0.00    -0.212 C  
HETATM    3  H1  UNL     1      -9.237   3.729  71.965  1.00  0.00     0.000 HD 
HETATM    4  H2  UNL     1      -9.318   5.129  71.021  1.00  0.00     0.000 HD 
ENDROOT
BRANCH   2   5
HETATM    5  C   UNL     1     -11.298   4.112  73.472  1.00  0.00    -0.297 C  
HETATM    6  C   UNL     1     -10.789   2.952  73.907  1.00  0.00    -0.291 C  
ENDBRANCH   2   5
BRANCH   2   7
HETATM    7  C   UNL     1     -11.425   6.265  72.159  1.00  0.00    -0.354 C  
BRANCH   7   8
HETATM    8  C   UNL     1     -10.854   7.662  72.425  1.00  0.00    -0.341 C  
HETATM    9  C   UNL     1      -9.884   8.084  71.349  1.00  0.00    -0.171 C  
HETATM   10  O   UNL     1      -9.557   7.408  70.388  1.00  0.00    -0.166 OA 
HETATM   11  O   UNL     1      -9.396   9.329  71.559  1.00  0.00    -0.287 OA 
ENDBRANCH   7   8
ENDBRANCH   2   7
TORSDOF 3
ENDMDL
MODEL      166
REMARK 921   NORMALIZED FREE ENERGY PREDICTED BY IDOCK:   -1.97 KCAL/MOL
REMARK 922        TOTAL FREE ENERGY PREDICTED BY IDOCK:   -2.56 KCAL/MOL
REMARK 923 INTER-LIGAND FREE ENERGY PREDICTED BY IDOCK:   -2.41 KCAL/MOL
REMARK 924 INTRA-LIGAND FREE ENERGY PREDICTED BY IDOCK:   -0.15 KCAL/MOL
REMARK 927      BINDING AFFINITY PREDICTED BY RF-SCORE:    0.00 PKD
ROOT
HETATM    1  N   UNL     1     -11.506   6.471  68.323  1.00  0.00    -0.543 NA 
HETATM    2  C   UNL     1     -11.343   6.340  69.768  1.00  0.00    -0.436 C  
HETATM    3  H1  UNL     1     -12.201   7.186  68.109  1.00  0.00     0.000 HD 
HETATM    4  H2  UNL     1     -11.730   5.579  67.883  1.00  0.00     0.000 HD 
ENDROOT
BRANCH   2   5
HETATM    5  C   UNL     1     -10.963   7.687  70.319  1.00  0.00    -0.261 C  
HETATM    6  C   UNL     1     -11.704   8.384  71.192  1.00  0.00    -0.315 C  
ENDBRANCH   2   5
BRANCH   2   7
HETATM    7  C   UNL     1     -10.295   5.263  70.090  1.00  0.00    -0.354 C  
BRANCH   7   8
HETATM    8  C   UNL     1      -9.614   4.710  68.834  1.00  0.00    -0.233 C  
HETATM    9  C   UNL     1      -8.230   5.283  68.649  1.00  0.00    -0.093 C  
HETATM   10  O   UNL     1      -7.703   6.107  69.379  1.00  0.00    -0.095 OA 
HETATM   11  O   UNL     1      -7.609   4.779  67.558  1.00  0.00    -0.081 OA 
ENDBRANCH   7   8
ENDBRANCH   2   7
TORSDOF 3
ENDMDL
MODEL      167
REMARK 921   NORMALIZED FREE ENERGY PREDICTED BY IDOCK:   -1.96 KCAL/MOL
REMARK 922        TOTAL FREE ENERGY PREDICTED BY IDOCK:   -2.55 KCAL/MOL
REMARK 923 INTER-LIGAND FREE ENERGY PREDICTED BY IDOCK:   -2.62 KCAL/MOL
REMARK 924 INTRA-LIGAND FREE ENERGY PREDICTED BY IDOCK:    0.07 KCAL/MOL
REMARK 927      BINDING AFFINITY PREDICTED BY RF-SCORE:    0.00 PKD
ROOT
HETATM    1  N   UNL     1     -12.142  10.679  68.922  1.00  0.00    -0.756 NA 
HETATM    2  C   UNL     1     -11.863  11.774  67.998  1.00  0.00    -0.234 C  
HETATM    3  H1  UNL     1     -12.599   9.910  68.432  1.00  0.00     0.000 HD 
HETATM    4  H2  UNL     1     -12.682  10.991  69.729  1.00  0.00     0.000 HD 
ENDROOT
BRANCH   2   5
HETATM    5  C   UNL     1     -11.021  11.234  66.875  1.00  0.00    -0.348 C  
HETATM    6  C   UNL     1     -10.315  10.097  66.936  1.00  0.00    -0.298 C  
ENDBRANCH   2   5
BRANCH   2   7
HETATM    7  C   UNL     1     -11.174  12.932  68.737  1.00  0.00    -0.323 C  
BRANCH   7   8
HETATM    8  C   UNL     1      -9.650  12.911  68.574  1.00  0.00    -0.113 C  
HETATM    9  C   UNL     1      -9.151  14.126  67.831  1.00  0.00    -0.189 C  
HETATM   10  O   UNL     1      -9.852  15.017  67.381  1.00  0.00    -0.223 OA 
HETATM   11  O   UNL     1      -7.803  14.131  67.708  1.00  0.00    -0.139 OA 
ENDBRANCH   7   8
ENDBRANCH   2   7
TORSDOF 3
ENDMDL
MODEL      168
REMARK 921   NORMALIZED FREE ENERGY PREDICTED BY IDOCK:   -1.94 KCAL/MOL
REMARK 922        TOTAL FREE ENERGY PREDICTED BY IDOCK:   -2.54 KCAL/MOL
REMARK 923 INTER-LIGAND FREE ENERGY PREDICTED BY IDOCK:   -2.47 KCAL/MOL
REMARK 924 INTRA-LIGAND FREE ENERGY PREDICTED BY IDOCK:   -0.06 KCAL/MOL
REMARK 927      BINDING AFFINITY PREDICTED BY RF-SCORE:    0.00 PKD
ROOT
HETATM    1  N   UNL     1     -11.239   9.482  67.776  1.00  0.00    -0.454 NA 
HETATM    2  C   UNL     1     -10.895  10.812  68.271  1.00  0.00    -0.229 C  
HETATM    3  H1  UNL     1     -11.415   8.849  68.557  1.00  0.00     0.000 HD 
HETATM    4  H2  UNL     1     -10.528   9.116  67.143  1.00  0.00     0.000 HD 
ENDROOT
BRANCH   2   5
HETATM    5  C   UNL     1     -12.019  11.289  69.147  1.00  0.00    -0.405 C  
HETATM    6  C   UNL     1     -12.001  11.257  70.487  1.00  0.00    -0.467 C  
ENDBRANCH   2   5
BRANCH   2   7
HETATM    7  C   UNL     1     -10.629  11.764  67.094  1.00  0.00    -0.267 C  
BRANCH   7   8
HETATM    8  C   UNL     1      -9.172  11.723  66.620  1.00  0.00    -0.201 C  
HETATM    9  C   UNL     1      -8.285  12.608  67.461  1.00  0.00    -0.178 C  
HETATM   10  O   UNL     1      -8.658  13.302  68.392  1.00  0.00    -0.173 OA 
HETATM   11  O   UNL     1      -6.991  12.556  67.068  1.00  0.00    -0.098 OA 
ENDBRANCH   7   8
ENDBRANCH   2   7
TORSDOF 3
ENDMDL
MODEL      169
REMARK 921   NORMALIZED FREE ENERGY PREDICTED BY IDOCK:   -1.93 KCAL/MOL
REMARK 922        TOTAL FREE ENERGY PREDICTED BY IDOCK:   -2.52 KCAL/MOL
REMARK 923 INTER-LIGAND FREE ENERGY PREDICTED BY IDOCK:   -2.44 KCAL/MOL
REMARK 924 INTRA-LIGAND FREE ENERGY PREDICTED BY IDOCK:   -0.09 KCAL/MOL
REMARK 927      BINDING AFFINITY PREDICTED BY RF-SCORE:    0.00 PKD
ROOT
HETATM    1  N   UNL     1     -11.177   5.051  65.879  1.00  0.00    -0.825 NA 
HETATM    2  C   UNL     1     -10.580   5.618  67.085  1.00  0.00    -0.270 C  
HETATM    3  H1  UNL     1     -11.800   5.730  65.441  1.00  0.00     0.000 HD 
HETATM    4  H2  UNL     1     -11.651   4.167  66.069  1.00  0.00     0.000 HD 
ENDROOT
BRANCH   2   5
HETATM    5  C   UNL     1      -9.864   6.882  66.702  1.00  0.00    -0.217 C  
HETATM    6  C   UNL     1     -10.336   8.117  66.922  1.00  0.00    -0.401 C  
ENDBRANCH   2   5
BRANCH   2   7
HETATM    7  C   UNL     1      -9.643   4.595  67.746  1.00  0.00    -0.203 C  
BRANCH   7   8
HETATM    8  C   UNL     1      -9.885   4.461  69.253  1.00  0.00    -0.218 C  
HETATM    9  C   UNL     1      -9.129   3.295  69.840  1.00  0.00    -0.128 C  
HETATM   10  O   UNL     1      -8.425   2.521  69.213  1.00  0.00    -0.057 OA 
HETATM   11  O   UNL     1      -9.314   3.185  71.176  1.00  0.00    -0.115 OA 
ENDBRANCH   7   8
ENDBRANCH   2   7
TORSDOF 3
ENDMDL
MODEL      170
REMARK 921   NORMALIZED FREE ENERGY PREDICTED BY IDOCK:   -1.93 KCAL/MOL
REMARK 922        TOTAL FREE ENERGY PREDICTED BY IDOCK:   -2.52 KCAL/MOL
REMARK 923 INTER-LIGAND FREE ENERGY PREDICTED BY IDOCK:   -2.29 KCAL/MOL
REMARK 924 INTRA-LIGAND FREE ENERGY PREDICTED BY IDOCK:   -0.23 KCAL/MOL
REMARK 927      BINDING AFFINITY PREDICTED BY RF-SCORE:    0.00 PKD
ROOT
HETATM    1  N   UNL     1      -9.630  13.592  65.698  1.00  0.00    -0.506 NA 
HETATM    2  C   UNL     1     -10.112  12.219  65.805  1.00  0.00    -0.252 C  
HETATM    3  H1  UNL     1      -9.486  13.842  64.719  1.00  0.00     0.000 HD 
HETATM    4  H2  UNL     1      -8.790  13.745  66.256  1.00  0.00     0.000 HD 
ENDROOT
BRANCH   2   5
HETATM    5  C   UNL     1     -11.375  12.103  64.997  1.00  0.00    -0.379 C  
HETATM    6  C   UNL     1     -11.956  13.122  64.350  1.00  0.00    -0.454 C  
ENDBRANCH   2   5
BRANCH   2   7
HETATM    7  C   UNL     1     -10.328  11.843  67.280  1.00  0.00    -0.228 C  
BRANCH   7   8
HETATM    8  C   UNL     1      -9.278  10.852  67.794  1.00  0.00    -0.155 C  
HETATM    9  C   UNL     1      -7.988  11.543  68.160  1.00  0.00    -0.136 C  
HETATM   10  O   UNL     1      -7.770  12.738  68.047  1.00  0.00    -0.113 OA 
HETATM   11  O   UNL     1      -7.064  10.680  68.643  1.00  0.00    -0.068 OA 
ENDBRANCH   7   8
ENDBRANCH   2   7
TORSDOF 3
ENDMDL
MODEL      171
REMARK 921   NORMALIZED FREE ENERGY PREDICTED BY IDOCK:   -1.92 KCAL/MOL
REMARK 922        TOTAL FREE ENERGY PREDICTED BY IDOCK:   -2.52 KCAL/MOL
REMARK 923 INTER-LIGAND FREE ENERGY PREDICTED BY IDOCK:   -2.42 KCAL/MOL
REMARK 924 INTRA-LIGAND FREE ENERGY PREDICTED BY IDOCK:   -0.10 KCAL/MOL
REMARK 927      BINDING AFFINITY PREDICTED BY RF-SCORE:    0.00 PKD
ROOT
HETATM    1  N   UNL     1      -9.327  10.998  68.853  1.00  0.00    -0.308 NA 
HETATM    2  C   UNL     1      -9.652   9.668  69.359  1.00  0.00    -0.191 C  
HETATM    3  H1  UNL     1      -8.401  10.998  68.427  1.00  0.00     0.000 HD 
HETATM    4  H2  UNL     1      -9.413  11.712  69.577  1.00  0.00     0.000 HD 
ENDROOT
BRANCH   2   5
HETATM    5  C   UNL     1      -9.552   8.696  68.216  1.00  0.00    -0.160 C  
HETATM    6  C   UNL     1     -10.482   8.550  67.262  1.00  0.00    -0.366 C  
ENDBRANCH   2   5
BRANCH   2   7
HETATM    7  C   UNL     1     -11.048   9.668  70.002  1.00  0.00    -0.293 C  
BRANCH   7   8
HETATM    8  C   UNL     1     -11.004   9.378  71.506  1.00  0.00    -0.429 C  
HETATM    9  C   UNL     1     -12.027   8.343  71.906  1.00  0.00    -0.338 C  
HETATM   10  O   UNL     1     -12.821   7.806  71.151  1.00  0.00    -0.262 OA 
HETATM   11  O   UNL     1     -11.976   8.058  73.228  1.00  0.00    -0.073 OA 
ENDBRANCH   7   8
ENDBRANCH   2   7
TORSDOF 3
ENDMDL
MODEL      172
REMARK 921   NORMALIZED FREE ENERGY PREDICTED BY IDOCK:   -1.92 KCAL/MOL
REMARK 922        TOTAL FREE ENERGY PREDICTED BY IDOCK:   -2.51 KCAL/MOL
REMARK 923 INTER-LIGAND FREE ENERGY PREDICTED BY IDOCK:   -2.35 KCAL/MOL
REMARK 924 INTRA-LIGAND FREE ENERGY PREDICTED BY IDOCK:   -0.16 KCAL/MOL
REMARK 927      BINDING AFFINITY PREDICTED BY RF-SCORE:    0.00 PKD
ROOT
HETATM    1  N   UNL     1      -8.590  11.382  68.926  1.00  0.00    -0.354 NA 
HETATM    2  C   UNL     1      -8.619  10.721  67.625  1.00  0.00    -0.123 C  
HETATM    3  H1  UNL     1      -8.103  10.800  69.607  1.00  0.00     0.000 HD 
HETATM    4  H2  UNL     1      -9.524  11.640  69.243  1.00  0.00     0.000 HD 
ENDROOT
BRANCH   2   5
HETATM    5  C   UNL     1      -7.202  10.430  67.216  1.00  0.00    -0.089 C  
HETATM    6  C   UNL     1      -6.338  11.351  66.768  1.00  0.00    -0.142 C  
ENDBRANCH   2   5
BRANCH   2   7
HETATM    7  C   UNL     1      -9.353  11.599  66.598  1.00  0.00    -0.203 C  
BRANCH   7   8
HETATM    8  C   UNL     1      -9.748  12.965  67.167  1.00  0.00    -0.221 C  
HETATM    9  C   UNL     1     -11.241  13.178  67.124  1.00  0.00    -0.294 C  
HETATM   10  O   UNL     1     -12.055  12.388  66.674  1.00  0.00    -0.592 OA 
HETATM   11  O   UNL     1     -11.603  14.371  67.651  1.00  0.00    -0.332 OA 
ENDBRANCH   7   8
ENDBRANCH   2   7
TORSDOF 3
ENDMDL
MODEL      173
REMARK 921   NORMALIZED FREE ENERGY PREDICTED BY IDOCK:   -1.92 KCAL/MOL
REMARK 922        TOTAL FREE ENERGY PREDICTED BY IDOCK:   -2.51 KCAL/MOL
REMARK 923 INTER-LIGAND FREE ENERGY PREDICTED BY IDOCK:   -2.37 KCAL/MOL
REMARK 924 INTRA-LIGAND FREE ENERGY PREDICTED BY IDOCK:   -0.15 KCAL/MOL
REMARK 927      BINDING AFFINITY PREDICTED BY RF-SCORE:    0.00 PKD
ROOT
HETATM    1  N   UNL     1     -11.741   6.575  69.285  1.00  0.00    -0.606 NA 
HETATM    2  C   UNL     1     -10.797   5.869  70.146  1.00  0.00    -0.332 C  
HETATM    3  H1  UNL     1     -12.573   6.838  69.813  1.00  0.00     0.000 HD 
HETATM    4  H2  UNL     1     -11.973   6.035  68.452  1.00  0.00     0.000 HD 
ENDROOT
BRANCH   2   5
HETATM    5  C   UNL     1     -10.473   6.759  71.314  1.00  0.00    -0.237 C  
HETATM    6  C   UNL     1     -10.744   8.071  71.364  1.00  0.00    -0.270 C  
ENDBRANCH   2   5
BRANCH   2   7
HETATM    7  C   UNL     1      -9.543   5.474  69.350  1.00  0.00    -0.196 C  
BRANCH   7   8
HETATM    8  C   UNL     1      -9.677   5.772  67.853  1.00  0.00    -0.134 C  
HETATM    9  C   UNL     1      -9.705   4.506  67.031  1.00  0.00    -0.202 C  
HETATM   10  O   UNL     1      -9.608   3.374  67.474  1.00  0.00    -0.208 OA 
HETATM   11  O   UNL     1      -9.853   4.758  65.710  1.00  0.00    -0.178 OA 
ENDBRANCH   7   8
ENDBRANCH   2   7
TORSDOF 3
ENDMDL
MODEL      174
REMARK 921   NORMALIZED FREE ENERGY PREDICTED BY IDOCK:   -1.92 KCAL/MOL
REMARK 922        TOTAL FREE ENERGY PREDICTED BY IDOCK:   -2.51 KCAL/MOL
REMARK 923 INTER-LIGAND FREE ENERGY PREDICTED BY IDOCK:   -2.43 KCAL/MOL
REMARK 924 INTRA-LIGAND FREE ENERGY PREDICTED BY IDOCK:   -0.08 KCAL/MOL
REMARK 927      BINDING AFFINITY PREDICTED BY RF-SCORE:    0.00 PKD
ROOT
HETATM    1  N   UNL     1      -8.404   7.448  67.885  1.00  0.00    -0.119 NA 
HETATM    2  C   UNL     1      -9.474   8.244  67.289  1.00  0.00    -0.151 C  
HETATM    3  H1  UNL     1      -8.731   7.005  68.744  1.00  0.00     0.000 HD 
HETATM    4  H2  UNL     1      -7.560   8.000  68.039  1.00  0.00     0.000 HD 
ENDROOT
BRANCH   2   5
HETATM    5  C   UNL     1     -10.651   7.340  67.051  1.00  0.00    -0.415 C  
HETATM    6  C   UNL     1     -10.750   6.087  67.515  1.00  0.00    -0.383 C  
ENDBRANCH   2   5
BRANCH   2   7
HETATM    7  C   UNL     1      -8.982   8.912  65.995  1.00  0.00    -0.235 C  
BRANCH   7   8
HETATM    8  C   UNL     1      -9.899  10.050  65.535  1.00  0.00    -0.373 C  
HETATM    9  C   UNL     1      -9.427  10.658  64.237  1.00  0.00    -0.274 C  
HETATM   10  O   UNL     1      -8.429  10.323  63.621  1.00  0.00    -0.168 OA 
HETATM   11  O   UNL     1     -10.247  11.645  63.806  1.00  0.00    -0.312 OA 
ENDBRANCH   7   8
ENDBRANCH   2   7
TORSDOF 3
ENDMDL
MODEL      175
REMARK 921   NORMALIZED FREE ENERGY PREDICTED BY IDOCK:   -1.91 KCAL/MOL
REMARK 922        TOTAL FREE ENERGY PREDICTED BY IDOCK:   -2.49 KCAL/MOL
REMARK 923 INTER-LIGAND FREE ENERGY PREDICTED BY IDOCK:   -2.35 KCAL/MOL
REMARK 924 INTRA-LIGAND FREE ENERGY PREDICTED BY IDOCK:   -0.15 KCAL/MOL
REMARK 927      BINDING AFFINITY PREDICTED BY RF-SCORE:    0.00 PKD
ROOT
HETATM    1  N   UNL     1      -9.321  12.861  68.607  1.00  0.00    -0.408 NA 
HETATM    2  C   UNL     1     -10.396  12.350  67.763  1.00  0.00    -0.216 C  
HETATM    3  H1  UNL     1      -9.702  13.446  69.351  1.00  0.00     0.000 HD 
HETATM    4  H2  UNL     1      -8.611  13.352  68.064  1.00  0.00     0.000 HD 
ENDROOT
BRANCH   2   5
HETATM    5  C   UNL     1     -11.362  11.601  68.638  1.00  0.00    -0.326 C  
HETATM    6  C   UNL     1     -11.951  12.112  69.727  1.00  0.00    -0.372 C  
ENDBRANCH   2   5
BRANCH   2   7
HETATM    7  C   UNL     1      -9.821  11.469  66.642  1.00  0.00    -0.228 C  
BRANCH   7   8
HETATM    8  C   UNL     1     -10.582  10.149  66.482  1.00  0.00    -0.179 C  
HETATM    9  C   UNL     1      -9.696   8.957  66.754  1.00  0.00    -0.219 C  
HETATM   10  O   UNL     1      -8.512   9.008  67.042  1.00  0.00    -0.118 OA 
HETATM   11  O   UNL     1     -10.366   7.787  66.644  1.00  0.00    -0.281 OA 
ENDBRANCH   7   8
ENDBRANCH   2   7
TORSDOF 3
ENDMDL
MODEL      176
REMARK 921   NORMALIZED FREE ENERGY PREDICTED BY IDOCK:   -1.89 KCAL/MOL
REMARK 922        TOTAL FREE ENERGY PREDICTED BY IDOCK:   -2.47 KCAL/MOL
REMARK 923 INTER-LIGAND FREE ENERGY PREDICTED BY IDOCK:   -2.37 KCAL/MOL
REMARK 924 INTRA-LIGAND FREE ENERGY PREDICTED BY IDOCK:   -0.10 KCAL/MOL
REMARK 927      BINDING AFFINITY PREDICTED BY RF-SCORE:    0.00 PKD
ROOT
HETATM    1  N   UNL     1     -11.396   4.690  65.137  1.00  0.00    -1.090 NA 
HETATM    2  C   UNL     1     -10.172   4.813  65.923  1.00  0.00    -0.258 C  
HETATM    3  H1  UNL     1     -12.209   4.661  65.752  1.00  0.00     0.000 HD 
HETATM    4  H2  UNL     1     -11.365   3.888  64.508  1.00  0.00     0.000 HD 
ENDROOT
BRANCH   2   5
HETATM    5  C   UNL     1     -10.285   6.046  66.775  1.00  0.00    -0.268 C  
HETATM    6  C   UNL     1     -11.151   6.189  67.788  1.00  0.00    -0.306 C  
ENDBRANCH   2   5
BRANCH   2   7
HETATM    7  C   UNL     1      -8.946   4.857  64.996  1.00  0.00    -0.147 C  
BRANCH   7   8
HETATM    8  C   UNL     1      -8.838   3.615  64.104  1.00  0.00    -0.106 C  
HETATM    9  C   UNL     1      -7.905   2.585  64.692  1.00  0.00    -0.077 C  
HETATM   10  O   UNL     1      -7.282   2.708  65.733  1.00  0.00    -0.063 OA 
HETATM   11  O   UNL     1      -7.825   1.472  63.926  1.00  0.00    -0.058 OA 
ENDBRANCH   7   8
ENDBRANCH   2   7
TORSDOF 3
ENDMDL
MODEL      177
REMARK 921   NORMALIZED FREE ENERGY PREDICTED BY IDOCK:   -1.88 KCAL/MOL
REMARK 922        TOTAL FREE ENERGY PREDICTED BY IDOCK:   -2.46 KCAL/MOL
REMARK 923 INTER-LIGAND FREE ENERGY PREDICTED BY IDOCK:   -2.34 KCAL/MOL
REMARK 924 INTRA-LIGAND FREE ENERGY PREDICTED BY IDOCK:   -0.12 KCAL/MOL
REMARK 927      BINDING AFFINITY PREDICTED BY RF-SCORE:    0.00 PKD
ROOT
HETATM    1  N   UNL     1     -10.171   5.243  67.774  1.00  0.00    -0.173 NA 
HETATM    2  C   UNL     1     -11.149   6.274  68.109  1.00  0.00    -0.266 C  
HETATM    3  H1  UNL     1      -9.961   5.266  66.777  1.00  0.00     0.000 HD 
HETATM    4  H2  UNL     1     -10.475   4.318  68.078  1.00  0.00     0.000 HD 
ENDROOT
BRANCH   2   5
HETATM    5  C   UNL     1     -10.595   7.602  67.675  1.00  0.00    -0.294 C  
HETATM    6  C   UNL     1      -9.800   7.780  66.611  1.00  0.00    -0.295 C  
ENDBRANCH   2   5
BRANCH   2   7
HETATM    7  C   UNL     1     -11.467   6.239  69.612  1.00  0.00    -0.425 C  
BRANCH   7   8
HETATM    8  C   UNL     1     -10.409   6.958  70.455  1.00  0.00    -0.221 C  
HETATM    9  C   UNL     1     -10.790   7.000  71.914  1.00  0.00    -0.224 C  
HETATM   10  O   UNL     1     -11.819   6.548  72.390  1.00  0.00    -0.269 OA 
HETATM   11  O   UNL     1      -9.848   7.609  72.672  1.00  0.00    -0.173 OA 
ENDBRANCH   7   8
ENDBRANCH   2   7
TORSDOF 3
ENDMDL
MODEL      178
REMARK 921   NORMALIZED FREE ENERGY PREDICTED BY IDOCK:   -1.88 KCAL/MOL
REMARK 922        TOTAL FREE ENERGY PREDICTED BY IDOCK:   -2.46 KCAL/MOL
REMARK 923 INTER-LIGAND FREE ENERGY PREDICTED BY IDOCK:   -2.33 KCAL/MOL
REMARK 924 INTRA-LIGAND FREE ENERGY PREDICTED BY IDOCK:   -0.13 KCAL/MOL
REMARK 927      BINDING AFFINITY PREDICTED BY RF-SCORE:    0.00 PKD
ROOT
HETATM    1  N   UNL     1      -9.517  12.717  68.664  1.00  0.00    -0.408 NA 
HETATM    2  C   UNL     1     -10.576  11.790  68.278  1.00  0.00    -0.211 C  
HETATM    3  H1  UNL     1      -9.288  13.336  67.887  1.00  0.00     0.000 HD 
HETATM    4  H2  UNL     1      -8.693  12.229  69.016  1.00  0.00     0.000 HD 
ENDROOT
BRANCH   2   5
HETATM    5  C   UNL     1     -11.761  12.598  67.826  1.00  0.00    -0.412 C  
HETATM    6  C   UNL     1     -11.973  13.880  68.152  1.00  0.00    -0.385 C  
ENDBRANCH   2   5
BRANCH   2   7
HETATM    7  C   UNL     1     -10.921  10.857  69.450  1.00  0.00    -0.304 C  
BRANCH   7   8
HETATM    8  C   UNL     1     -10.772   9.376  69.087  1.00  0.00    -0.216 C  
HETATM    9  C   UNL     1      -9.322   8.968  68.988  1.00  0.00    -0.140 C  
HETATM   10  O   UNL     1      -8.366   9.709  69.148  1.00  0.00    -0.115 OA 
HETATM   11  O   UNL     1      -9.180   7.654  68.697  1.00  0.00    -0.142 OA 
ENDBRANCH   7   8
ENDBRANCH   2   7
TORSDOF 3
ENDMDL
MODEL      179
REMARK 921   NORMALIZED FREE ENERGY PREDICTED BY IDOCK:   -1.84 KCAL/MOL
REMARK 922        TOTAL FREE ENERGY PREDICTED BY IDOCK:   -2.42 KCAL/MOL
REMARK 923 INTER-LIGAND FREE ENERGY PREDICTED BY IDOCK:   -2.31 KCAL/MOL
REMARK 924 INTRA-LIGAND FREE ENERGY PREDICTED BY IDOCK:   -0.11 KCAL/MOL
REMARK 927      BINDING AFFINITY PREDICTED BY RF-SCORE:    0.00 PKD
ROOT
HETATM    1  N   UNL     1     -11.713   6.825  69.514  1.00  0.00    -0.637 NA 
HETATM    2  C   UNL     1     -11.078   6.090  70.604  1.00  0.00    -0.301 C  
HETATM    3  H1  UNL     1     -12.682   7.039  69.750  1.00  0.00     0.000 HD 
HETATM    4  H2  UNL     1     -11.639   6.328  68.627  1.00  0.00     0.000 HD 
ENDROOT
BRANCH   2   5
HETATM    5  C   UNL     1     -11.190   6.919  71.854  1.00  0.00    -0.287 C  
HETATM    6  C   UNL     1     -12.146   7.832  72.074  1.00  0.00    -0.351 C  
ENDBRANCH   2   5
BRANCH   2   7
HETATM    7  C   UNL     1      -9.618   5.767  70.248  1.00  0.00    -0.206 C  
BRANCH   7   8
HETATM    8  C   UNL     1      -9.097   4.521  70.974  1.00  0.00    -0.185 C  
HETATM    9  C   UNL     1      -9.104   3.308  70.076  1.00  0.00    -0.127 C  
HETATM   10  O   UNL     1      -9.495   3.286  68.921  1.00  0.00    -0.167 OA 
HETATM   11  O   UNL     1      -8.619   2.209  70.699  1.00  0.00    -0.049 OA 
ENDBRANCH   7   8
ENDBRANCH   2   7
TORSDOF 3
ENDMDL
MODEL      180
REMARK 921   NORMALIZED FREE ENERGY PREDICTED BY IDOCK:   -1.83 KCAL/MOL
REMARK 922        TOTAL FREE ENERGY PREDICTED BY IDOCK:   -2.41 KCAL/MOL
REMARK 923 INTER-LIGAND FREE ENERGY PREDICTED BY IDOCK:   -2.34 KCAL/MOL
REMARK 924 INTRA-LIGAND FREE ENERGY PREDICTED BY IDOCK:   -0.06 KCAL/MOL
REMARK 927      BINDING AFFINITY PREDICTED BY RF-SCORE:    0.00 PKD
ROOT
HETATM    1  N   UNL     1      -8.667  11.724  66.266  1.00  0.00    -0.334 NA 
HETATM    2  C   UNL     1      -9.824  10.926  66.661  1.00  0.00    -0.198 C  
HETATM    3  H1  UNL     1      -8.867  12.717  66.379  1.00  0.00     0.000 HD 
HETATM    4  H2  UNL     1      -8.358  11.503  65.319  1.00  0.00     0.000 HD 
ENDROOT
BRANCH   2   5
HETATM    5  C   UNL     1     -10.172  11.279  68.081  1.00  0.00    -0.196 C  
HETATM    6  C   UNL     1     -11.378  11.702  68.482  1.00  0.00    -0.332 C  
ENDBRANCH   2   5
BRANCH   2   7
HETATM    7  C   UNL     1      -9.522   9.429  66.491  1.00  0.00    -0.246 C  
BRANCH   7   8
HETATM    8  C   UNL     1     -10.632   8.536  67.054  1.00  0.00    -0.305 C  
HETATM    9  C   UNL     1     -10.230   7.081  67.062  1.00  0.00    -0.260 C  
HETATM   10  O   UNL     1      -9.169   6.639  66.652  1.00  0.00    -0.148 OA 
HETATM   11  O   UNL     1     -11.193   6.287  67.585  1.00  0.00    -0.327 OA 
ENDBRANCH   7   8
ENDBRANCH   2   7
TORSDOF 3
ENDMDL
MODEL      181
REMARK 921   NORMALIZED FREE ENERGY PREDICTED BY IDOCK:   -1.81 KCAL/MOL
REMARK 922        TOTAL FREE ENERGY PREDICTED BY IDOCK:   -2.39 KCAL/MOL
REMARK 923 INTER-LIGAND FREE ENERGY PREDICTED BY IDOCK:   -2.14 KCAL/MOL
REMARK 924 INTRA-LIGAND FREE ENERGY PREDICTED BY IDOCK:   -0.24 KCAL/MOL
REMARK 927      BINDING AFFINITY PREDICTED BY RF-SCORE:    0.00 PKD
ROOT
HETATM    1  N   UNL     1      -9.560   9.689  69.715  1.00  0.00    -0.205 NA 
HETATM    2  C   UNL     1     -10.292   8.885  68.741  1.00  0.00    -0.211 C  
HETATM    3  H1  UNL     1      -9.892   9.490  70.659  1.00  0.00     0.000 HD 
HETATM    4  H2  UNL     1      -9.606  10.685  69.498  1.00  0.00     0.000 HD 
ENDROOT
BRANCH   2   5
HETATM    5  C   UNL     1     -10.124   7.437  69.110  1.00  0.00    -0.189 C  
HETATM    6  C   UNL     1     -10.938   6.453  68.705  1.00  0.00    -0.404 C  
ENDBRANCH   2   5
BRANCH   2   7
HETATM    7  C   UNL     1      -9.793   9.185  67.319  1.00  0.00    -0.244 C  
BRANCH   7   8
HETATM    8  C   UNL     1     -10.360  10.495  66.760  1.00  0.00    -0.301 C  
HETATM    9  C   UNL     1      -9.355  11.618  66.839  1.00  0.00    -0.188 C  
HETATM   10  O   UNL     1      -8.232  11.530  67.309  1.00  0.00    -0.141 OA 
HETATM   11  O   UNL     1      -9.836  12.772  66.321  1.00  0.00    -0.258 OA 
ENDBRANCH   7   8
ENDBRANCH   2   7
TORSDOF 3
ENDMDL
MODEL      182
REMARK 921   NORMALIZED FREE ENERGY PREDICTED BY IDOCK:   -1.81 KCAL/MOL
REMARK 922        TOTAL FREE ENERGY PREDICTED BY IDOCK:   -2.38 KCAL/MOL
REMARK 923 INTER-LIGAND FREE ENERGY PREDICTED BY IDOCK:   -2.25 KCAL/MOL
REMARK 924 INTRA-LIGAND FREE ENERGY PREDICTED BY IDOCK:   -0.13 KCAL/MOL
REMARK 927      BINDING AFFINITY PREDICTED BY RF-SCORE:    0.00 PKD
ROOT
HETATM    1  N   UNL     1      -5.900  18.344  66.117  1.00  0.00    -0.162 NA 
HETATM    2  C   UNL     1      -7.083  18.756  66.867  1.00  0.00    -0.206 C  
HETATM    3  H1  UNL     1      -5.076  18.838  66.458  1.00  0.00     0.000 HD 
HETATM    4  H2  UNL     1      -6.027  18.463  65.112  1.00  0.00     0.000 HD 
ENDROOT
BRANCH   2   5
HETATM    5  C   UNL     1      -6.826  18.495  68.325  1.00  0.00    -0.245 C  
HETATM    6  C   UNL     1      -6.755  19.449  69.264  1.00  0.00    -0.370 C  
ENDBRANCH   2   5
BRANCH   2   7
HETATM    7  C   UNL     1      -8.325  18.011  66.353  1.00  0.00    -0.275 C  
BRANCH   7   8
HETATM    8  C   UNL     1      -8.085  16.506  66.191  1.00  0.00    -0.242 C  
HETATM    9  C   UNL     1      -9.189  15.692  66.819  1.00  0.00    -0.251 C  
HETATM   10  O   UNL     1     -10.153  16.148  67.412  1.00  0.00    -0.247 OA 
HETATM   11  O   UNL     1      -9.001  14.362  66.656  1.00  0.00    -0.252 OA 
ENDBRANCH   7   8
ENDBRANCH   2   7
TORSDOF 3
ENDMDL
MODEL      183
REMARK 921   NORMALIZED FREE ENERGY PREDICTED BY IDOCK:   -1.80 KCAL/MOL
REMARK 922        TOTAL FREE ENERGY PREDICTED BY IDOCK:   -2.37 KCAL/MOL
REMARK 923 INTER-LIGAND FREE ENERGY PREDICTED BY IDOCK:   -2.09 KCAL/MOL
REMARK 924 INTRA-LIGAND FREE ENERGY PREDICTED BY IDOCK:   -0.28 KCAL/MOL
REMARK 927      BINDING AFFINITY PREDICTED BY RF-SCORE:    0.00 PKD
ROOT
HETATM    1  N   UNL     1      -8.913  12.126  68.472  1.00  0.00    -0.338 NA 
HETATM    2  C   UNL     1      -9.421  12.140  67.104  1.00  0.00    -0.190 C  
HETATM    3  H1  UNL     1      -7.970  12.515  68.503  1.00  0.00     0.000 HD 
HETATM    4  H2  UNL     1      -8.954  11.194  68.884  1.00  0.00     0.000 HD 
ENDROOT
BRANCH   2   5
HETATM    5  C   UNL     1      -9.373  13.556  66.601  1.00  0.00    -0.254 C  
HETATM    6  C   UNL     1      -9.849  14.614  67.272  1.00  0.00    -0.231 C  
ENDBRANCH   2   5
BRANCH   2   7
HETATM    7  C   UNL     1     -10.841  11.553  67.057  1.00  0.00    -0.320 C  
BRANCH   7   8
HETATM    8  C   UNL     1     -10.872  10.126  66.501  1.00  0.00    -0.043 C  
HETATM    9  C   UNL     1     -10.779   9.096  67.600  1.00  0.00    -0.189 C  
HETATM   10  O   UNL     1     -10.668   9.340  68.790  1.00  0.00    -0.217 OA 
HETATM   11  O   UNL     1     -10.835   7.831  67.122  1.00  0.00    -0.313 OA 
ENDBRANCH   7   8
ENDBRANCH   2   7
TORSDOF 3
ENDMDL
MODEL      184
REMARK 921   NORMALIZED FREE ENERGY PREDICTED BY IDOCK:   -1.76 KCAL/MOL
REMARK 922        TOTAL FREE ENERGY PREDICTED BY IDOCK:   -2.32 KCAL/MOL
REMARK 923 INTER-LIGAND FREE ENERGY PREDICTED BY IDOCK:   -2.25 KCAL/MOL
REMARK 924 INTRA-LIGAND FREE ENERGY PREDICTED BY IDOCK:   -0.07 KCAL/MOL
REMARK 927      BINDING AFFINITY PREDICTED BY RF-SCORE:    0.00 PKD
ROOT
HETATM    1  N   UNL     1     -10.500   7.387  68.237  1.00  0.00    -0.235 NA 
HETATM    2  C   UNL     1     -10.158   8.765  68.579  1.00  0.00    -0.189 C  
HETATM    3  H1  UNL     1     -10.202   6.755  68.980  1.00  0.00     0.000 HD 
HETATM    4  H2  UNL     1     -10.121   7.115  67.330  1.00  0.00     0.000 HD 
ENDROOT
BRANCH   2   5
HETATM    5  C   UNL     1     -10.800   9.092  69.898  1.00  0.00    -0.242 C  
HETATM    6  C   UNL     1     -11.171   8.180  70.807  1.00  0.00    -0.275 C  
ENDBRANCH   2   5
BRANCH   2   7
HETATM    7  C   UNL     1     -10.608   9.718  67.460  1.00  0.00    -0.335 C  
BRANCH   7   8
HETATM    8  C   UNL     1     -10.055   9.317  66.088  1.00  0.00    -0.304 C  
HETATM    9  C   UNL     1      -9.550  10.513  65.318  1.00  0.00    -0.249 C  
HETATM   10  O   UNL     1      -9.587  11.670  65.704  1.00  0.00    -0.228 OA 
HETATM   11  O   UNL     1      -9.033  10.166  64.116  1.00  0.00    -0.196 OA 
ENDBRANCH   7   8
ENDBRANCH   2   7
TORSDOF 3
ENDMDL
MODEL      185
REMARK 921   NORMALIZED FREE ENERGY PREDICTED BY IDOCK:   -1.76 KCAL/MOL
REMARK 922        TOTAL FREE ENERGY PREDICTED BY IDOCK:   -2.32 KCAL/MOL
REMARK 923 INTER-LIGAND FREE ENERGY PREDICTED BY IDOCK:   -2.34 KCAL/MOL
REMARK 924 INTRA-LIGAND FREE ENERGY PREDICTED BY IDOCK:    0.02 KCAL/MOL
REMARK 927      BINDING AFFINITY PREDICTED BY RF-SCORE:    0.00 PKD
ROOT
HETATM    1  N   UNL     1      -9.858   8.554  66.031  1.00  0.00    -0.472 NA 
HETATM    2  C   UNL     1     -10.105   7.901  67.313  1.00  0.00    -0.238 C  
HETATM    3  H1  UNL     1      -9.408   7.906  65.385  1.00  0.00     0.000 HD 
HETATM    4  H2  UNL     1      -9.322   9.415  66.140  1.00  0.00     0.000 HD 
ENDROOT
BRANCH   2   5
HETATM    5  C   UNL     1     -10.941   6.678  67.061  1.00  0.00    -0.463 C  
HETATM    6  C   UNL     1     -10.447   5.479  66.722  1.00  0.00    -0.355 C  
ENDBRANCH   2   5
BRANCH   2   7
HETATM    7  C   UNL     1     -10.782   8.878  68.287  1.00  0.00    -0.135 C  
BRANCH   7   8
HETATM    8  C   UNL     1     -10.019   9.016  69.609  1.00  0.00    -0.196 C  
HETATM    9  C   UNL     1      -8.635   9.580  69.400  1.00  0.00    -0.159 C  
HETATM   10  O   UNL     1      -8.147   9.875  68.321  1.00  0.00    -0.102 OA 
HETATM   11  O   UNL     1      -7.963   9.732  70.564  1.00  0.00    -0.220 OA 
ENDBRANCH   7   8
ENDBRANCH   2   7
TORSDOF 3
ENDMDL
MODEL      186
REMARK 921   NORMALIZED FREE ENERGY PREDICTED BY IDOCK:   -1.75 KCAL/MOL
REMARK 922        TOTAL FREE ENERGY PREDICTED BY IDOCK:   -2.31 KCAL/MOL
REMARK 923 INTER-LIGAND FREE ENERGY PREDICTED BY IDOCK:   -2.23 KCAL/MOL
REMARK 924 INTRA-LIGAND FREE ENERGY PREDICTED BY IDOCK:   -0.08 KCAL/MOL
REMARK 927      BINDING AFFINITY PREDICTED BY RF-SCORE:    0.00 PKD
ROOT
HETATM    1  N   UNL     1     -11.885   6.654  69.839  1.00  0.00    -0.653 NA 
HETATM    2  C   UNL     1     -10.581   6.218  69.348  1.00  0.00    -0.271 C  
HETATM    3  H1  UNL     1     -12.131   7.556  69.433  1.00  0.00     0.000 HD 
HETATM    4  H2  UNL     1     -11.920   6.672  70.858  1.00  0.00     0.000 HD 
ENDROOT
BRANCH   2   5
HETATM    5  C   UNL     1     -10.639   6.170  67.846  1.00  0.00    -0.331 C  
HETATM    6  C   UNL     1     -10.371   7.210  67.044  1.00  0.00    -0.368 C  
ENDBRANCH   2   5
BRANCH   2   7
HETATM    7  C   UNL     1     -10.209   4.858  69.959  1.00  0.00    -0.313 C  
BRANCH   7   8
HETATM    8  C   UNL     1      -8.787   4.838  70.532  1.00  0.00    -0.142 C  
HETATM    9  C   UNL     1      -8.241   3.435  70.624  1.00  0.00    -0.056 C  
HETATM   10  O   UNL     1      -8.842   2.420  70.312  1.00  0.00    -0.066 OA 
HETATM   11  O   UNL     1      -6.975   3.409  71.101  1.00  0.00    -0.031 OA 
ENDBRANCH   7   8
ENDBRANCH   2   7
TORSDOF 3
ENDMDL
MODEL      187
REMARK 921   NORMALIZED FREE ENERGY PREDICTED BY IDOCK:   -1.74 KCAL/MOL
REMARK 922        TOTAL FREE ENERGY PREDICTED BY IDOCK:   -2.29 KCAL/MOL
REMARK 923 INTER-LIGAND FREE ENERGY PREDICTED BY IDOCK:   -2.12 KCAL/MOL
REMARK 924 INTRA-LIGAND FREE ENERGY PREDICTED BY IDOCK:   -0.17 KCAL/MOL
REMARK 927      BINDING AFFINITY PREDICTED BY RF-SCORE:    0.00 PKD
ROOT
HETATM    1  N   UNL     1      -9.451   4.544  67.736  1.00  0.00    -0.147 NA 
HETATM    2  C   UNL     1     -10.014   5.307  66.625  1.00  0.00    -0.202 C  
HETATM    3  H1  UNL     1      -8.811   3.831  67.387  1.00  0.00     0.000 HD 
HETATM    4  H2  UNL     1     -10.178   4.145  68.330  1.00  0.00     0.000 HD 
ENDROOT
BRANCH   2   5
HETATM    5  C   UNL     1      -8.875   5.898  65.841  1.00  0.00    -0.154 C  
HETATM    6  C   UNL     1      -7.591   5.546  65.988  1.00  0.00    -0.087 C  
ENDBRANCH   2   5
BRANCH   2   7
HETATM    7  C   UNL     1     -10.978   6.381  67.152  1.00  0.00    -0.476 C  
BRANCH   7   8
HETATM    8  C   UNL     1     -10.323   7.307  68.182  1.00  0.00    -0.234 C  
HETATM    9  C   UNL     1     -10.701   6.928  69.594  1.00  0.00    -0.245 C  
HETATM   10  O   UNL     1     -11.453   6.019  69.905  1.00  0.00    -0.388 OA 
HETATM   11  O   UNL     1     -10.104   7.722  70.513  1.00  0.00    -0.191 OA 
ENDBRANCH   7   8
ENDBRANCH   2   7
TORSDOF 3
ENDMDL
MODEL      188
REMARK 921   NORMALIZED FREE ENERGY PREDICTED BY IDOCK:   -1.72 KCAL/MOL
REMARK 922        TOTAL FREE ENERGY PREDICTED BY IDOCK:   -2.28 KCAL/MOL
REMARK 923 INTER-LIGAND FREE ENERGY PREDICTED BY IDOCK:   -2.19 KCAL/MOL
REMARK 924 INTRA-LIGAND FREE ENERGY PREDICTED BY IDOCK:   -0.09 KCAL/MOL
REMARK 927      BINDING AFFINITY PREDICTED BY RF-SCORE:    0.00 PKD
ROOT
HETATM    1  N   UNL     1      -7.964  11.950  69.054  1.00  0.00    -0.351 NA 
HETATM    2  C   UNL     1      -8.641  10.690  68.765  1.00  0.00    -0.150 C  
HETATM    3  H1  UNL     1      -8.315  12.349  69.925  1.00  0.00     0.000 HD 
HETATM    4  H2  UNL     1      -8.037  12.608  68.278  1.00  0.00     0.000 HD 
ENDROOT
BRANCH   2   5
HETATM    5  C   UNL     1      -8.434   9.770  69.936  1.00  0.00    -0.217 C  
HETATM    6  C   UNL     1      -9.414   9.338  70.742  1.00  0.00    -0.336 C  
ENDBRANCH   2   5
BRANCH   2   7
HETATM    7  C   UNL     1      -8.111  10.090  67.453  1.00  0.00    -0.114 C  
BRANCH   7   8
HETATM    8  C   UNL     1      -8.684  10.786  66.214  1.00  0.00    -0.175 C  
HETATM    9  C   UNL     1      -9.757   9.956  65.552  1.00  0.00    -0.302 C  
HETATM   10  O   UNL     1     -10.125   8.853  65.920  1.00  0.00    -0.194 OA 
HETATM   11  O   UNL     1     -10.289  10.575  64.473  1.00  0.00    -0.348 OA 
ENDBRANCH   7   8
ENDBRANCH   2   7
TORSDOF 3
ENDMDL
MODEL      189
REMARK 921   NORMALIZED FREE ENERGY PREDICTED BY IDOCK:   -1.72 KCAL/MOL
REMARK 922        TOTAL FREE ENERGY PREDICTED BY IDOCK:   -2.28 KCAL/MOL
REMARK 923 INTER-LIGAND FREE ENERGY PREDICTED BY IDOCK:   -2.15 KCAL/MOL
REMARK 924 INTRA-LIGAND FREE ENERGY PREDICTED BY IDOCK:   -0.12 KCAL/MOL
REMARK 927      BINDING AFFINITY PREDICTED BY RF-SCORE:    0.00 PKD
ROOT
HETATM    1  N   UNL     1      -9.233  14.878  66.020  1.00  0.00    -0.491 NA 
HETATM    2  C   UNL     1      -9.038  15.593  67.279  1.00  0.00    -0.205 C  
HETATM    3  H1  UNL     1     -10.173  15.044  65.661  1.00  0.00     0.000 HD 
HETATM    4  H2  UNL     1      -9.031  13.882  66.114  1.00  0.00     0.000 HD 
ENDROOT
BRANCH   2   5
HETATM    5  C   UNL     1      -9.304  17.052  67.033  1.00  0.00    -0.249 C  
HETATM    6  C   UNL     1     -10.515  17.570  66.785  1.00  0.00    -0.270 C  
ENDBRANCH   2   5
BRANCH   2   7
HETATM    7  C   UNL     1      -7.621  15.342  67.820  1.00  0.00    -0.171 C  
BRANCH   7   8
HETATM    8  C   UNL     1      -7.330  16.135  69.098  1.00  0.00    -0.215 C  
HETATM    9  C   UNL     1      -6.259  17.175  68.878  1.00  0.00    -0.179 C  
HETATM   10  O   UNL     1      -5.662  17.366  67.831  1.00  0.00    -0.128 OA 
HETATM   11  O   UNL     1      -6.014  17.901  69.994  1.00  0.00    -0.246 OA 
ENDBRANCH   7   8
ENDBRANCH   2   7
TORSDOF 3
ENDMDL
MODEL      190
REMARK 921   NORMALIZED FREE ENERGY PREDICTED BY IDOCK:   -1.72 KCAL/MOL
REMARK 922        TOTAL FREE ENERGY PREDICTED BY IDOCK:   -2.28 KCAL/MOL
REMARK 923 INTER-LIGAND FREE ENERGY PREDICTED BY IDOCK:   -2.14 KCAL/MOL
REMARK 924 INTRA-LIGAND FREE ENERGY PREDICTED BY IDOCK:   -0.14 KCAL/MOL
REMARK 927      BINDING AFFINITY PREDICTED BY RF-SCORE:    0.00 PKD
ROOT
HETATM    1  N   UNL     1      -8.271   8.977  67.148  1.00  0.00    -0.109 NA 
HETATM    2  C   UNL     1      -9.521   8.568  67.782  1.00  0.00    -0.145 C  
HETATM    3  H1  UNL     1      -8.430   9.200  66.165  1.00  0.00     0.000 HD 
HETATM    4  H2  UNL     1      -7.538   8.278  67.266  1.00  0.00     0.000 HD 
ENDROOT
BRANCH   2   5
HETATM    5  C   UNL     1     -10.520   9.677  67.604  1.00  0.00    -0.317 C  
HETATM    6  C   UNL     1     -10.243  10.865  67.048  1.00  0.00    -0.256 C  
ENDBRANCH   2   5
BRANCH   2   7
HETATM    7  C   UNL     1      -9.281   8.232  69.262  1.00  0.00    -0.151 C  
BRANCH   7   8
HETATM    8  C   UNL     1     -10.521   8.476  70.130  1.00  0.00    -0.226 C  
HETATM    9  C   UNL     1     -10.148   8.905  71.528  1.00  0.00    -0.324 C  
HETATM   10  O   UNL     1      -9.010   9.025  71.952  1.00  0.00    -0.364 OA 
HETATM   11  O   UNL     1     -11.236   9.151  72.294  1.00  0.00    -0.249 OA 
ENDBRANCH   7   8
ENDBRANCH   2   7
TORSDOF 3
ENDMDL
MODEL      191
REMARK 921   NORMALIZED FREE ENERGY PREDICTED BY IDOCK:   -1.70 KCAL/MOL
REMARK 922        TOTAL FREE ENERGY PREDICTED BY IDOCK:   -2.25 KCAL/MOL
REMARK 923 INTER-LIGAND FREE ENERGY PREDICTED BY IDOCK:   -2.10 KCAL/MOL
REMARK 924 INTRA-LIGAND FREE ENERGY PREDICTED BY IDOCK:   -0.15 KCAL/MOL
REMARK 927      BINDING AFFINITY PREDICTED BY RF-SCORE:    0.00 PKD
ROOT
HETATM    1  N   UNL     1      -9.266   9.506  68.089  1.00  0.00    -0.130 NA 
HETATM    2  C   UNL     1     -10.538   8.967  68.560  1.00  0.00    -0.141 C  
HETATM    3  H1  UNL     1      -9.295  10.526  68.083  1.00  0.00     0.000 HD 
HETATM    4  H2  UNL     1      -9.005   9.127  67.179  1.00  0.00     0.000 HD 
ENDROOT
BRANCH   2   5
HETATM    5  C   UNL     1     -10.812   9.537  69.923  1.00  0.00    -0.272 C  
HETATM    6  C   UNL     1     -11.537  10.641  70.151  1.00  0.00    -0.414 C  
ENDBRANCH   2   5
BRANCH   2   7
HETATM    7  C   UNL     1     -10.493   7.430  68.569  1.00  0.00    -0.215 C  
BRANCH   7   8
HETATM    8  C   UNL     1     -11.168   6.829  69.807  1.00  0.00    -0.368 C  
HETATM    9  C   UNL     1     -10.284   5.814  70.489  1.00  0.00    -0.221 C  
HETATM   10  O   UNL     1      -9.174   5.476  70.110  1.00  0.00    -0.136 OA 
HETATM   11  O   UNL     1     -10.859   5.299  71.600  1.00  0.00    -0.203 OA 
ENDBRANCH   7   8
ENDBRANCH   2   7
TORSDOF 3
ENDMDL
MODEL      192
REMARK 921   NORMALIZED FREE ENERGY PREDICTED BY IDOCK:   -1.70 KCAL/MOL
REMARK 922        TOTAL FREE ENERGY PREDICTED BY IDOCK:   -2.25 KCAL/MOL
REMARK 923 INTER-LIGAND FREE ENERGY PREDICTED BY IDOCK:   -2.09 KCAL/MOL
REMARK 924 INTRA-LIGAND FREE ENERGY PREDICTED BY IDOCK:   -0.17 KCAL/MOL
REMARK 927      BINDING AFFINITY PREDICTED BY RF-SCORE:    0.00 PKD
ROOT
HETATM    1  N   UNL     1      -9.116  14.865  65.957  1.00  0.00    -0.500 NA 
HETATM    2  C   UNL     1      -8.688  15.813  66.981  1.00  0.00    -0.224 C  
HETATM    3  H1  UNL     1     -10.009  15.156  65.557  1.00  0.00     0.000 HD 
HETATM    4  H2  UNL     1      -9.152  13.910  66.313  1.00  0.00     0.000 HD 
ENDROOT
BRANCH   2   5
HETATM    5  C   UNL     1      -8.613  17.177  66.354  1.00  0.00    -0.300 C  
HETATM    6  C   UNL     1      -7.919  18.206  66.860  1.00  0.00    -0.250 C  
ENDBRANCH   2   5
BRANCH   2   7
HETATM    7  C   UNL     1      -7.344  15.374  67.583  1.00  0.00    -0.203 C  
BRANCH   7   8
HETATM    8  C   UNL     1      -7.496  14.237  68.600  1.00  0.00    -0.127 C  
HETATM    9  C   UNL     1      -6.793  12.982  68.145  1.00  0.00    -0.104 C  
HETATM   10  O   UNL     1      -6.192  12.851  67.091  1.00  0.00    -0.281 OA 
HETATM   11  O   UNL     1      -6.898  11.981  69.049  1.00  0.00    -0.098 OA 
ENDBRANCH   7   8
ENDBRANCH   2   7
TORSDOF 3
ENDMDL
MODEL      193
REMARK 921   NORMALIZED FREE ENERGY PREDICTED BY IDOCK:   -1.70 KCAL/MOL
REMARK 922        TOTAL FREE ENERGY PREDICTED BY IDOCK:   -2.25 KCAL/MOL
REMARK 923 INTER-LIGAND FREE ENERGY PREDICTED BY IDOCK:   -2.08 KCAL/MOL
REMARK 924 INTRA-LIGAND FREE ENERGY PREDICTED BY IDOCK:   -0.16 KCAL/MOL
REMARK 927      BINDING AFFINITY PREDICTED BY RF-SCORE:    0.00 PKD
ROOT
HETATM    1  N   UNL     1      -9.873  12.740  68.654  1.00  0.00    -0.398 NA 
HETATM    2  C   UNL     1     -10.575  11.474  68.845  1.00  0.00    -0.204 C  
HETATM    3  H1  UNL     1     -10.530  13.519  68.699  1.00  0.00     0.000 HD 
HETATM    4  H2  UNL     1      -9.331  12.748  67.790  1.00  0.00     0.000 HD 
ENDROOT
BRANCH   2   5
HETATM    5  C   UNL     1     -11.297  11.534  70.162  1.00  0.00    -0.146 C  
HETATM    6  C   UNL     1     -12.155  12.503  70.512  1.00  0.00    -0.361 C  
ENDBRANCH   2   5
BRANCH   2   7
HETATM    7  C   UNL     1      -9.584  10.301  68.777  1.00  0.00    -0.175 C  
BRANCH   7   8
HETATM    8  C   UNL     1      -9.948   9.166  69.741  1.00  0.00    -0.204 C  
HETATM    9  C   UNL     1     -10.560   7.992  69.017  1.00  0.00    -0.154 C  
HETATM   10  O   UNL     1     -10.774   7.935  67.817  1.00  0.00    -0.206 OA 
HETATM   11  O   UNL     1     -10.859   6.973  69.856  1.00  0.00    -0.235 OA 
ENDBRANCH   7   8
ENDBRANCH   2   7
TORSDOF 3
ENDMDL
MODEL      194
REMARK 921   NORMALIZED FREE ENERGY PREDICTED BY IDOCK:   -1.69 KCAL/MOL
REMARK 922        TOTAL FREE ENERGY PREDICTED BY IDOCK:   -2.24 KCAL/MOL
REMARK 923 INTER-LIGAND FREE ENERGY PREDICTED BY IDOCK:   -2.09 KCAL/MOL
REMARK 924 INTRA-LIGAND FREE ENERGY PREDICTED BY IDOCK:   -0.15 KCAL/MOL
REMARK 927      BINDING AFFINITY PREDICTED BY RF-SCORE:    0.00 PKD
ROOT
HETATM    1  N   UNL     1     -10.468  12.583  68.113  1.00  0.00    -0.222 NA 
HETATM    2  C   UNL     1      -9.774  11.914  67.017  1.00  0.00    -0.194 C  
HETATM    3  H1  UNL     1     -10.556  13.580  67.920  1.00  0.00     0.000 HD 
HETATM    4  H2  UNL     1     -10.017  12.408  69.012  1.00  0.00     0.000 HD 
ENDROOT
BRANCH   2   5
HETATM    5  C   UNL     1     -10.535  12.183  65.749  1.00  0.00    -0.287 C  
HETATM    6  C   UNL     1     -11.830  12.527  65.701  1.00  0.00    -0.493 C  
ENDBRANCH   2   5
BRANCH   2   7
HETATM    7  C   UNL     1      -9.641  10.411  67.309  1.00  0.00    -0.182 C  
BRANCH   7   8
HETATM    8  C   UNL     1      -9.689   9.558  66.037  1.00  0.00    -0.341 C  
HETATM    9  C   UNL     1      -8.336   8.979  65.700  1.00  0.00    -0.132 C  
HETATM   10  O   UNL     1      -7.309   9.172  66.329  1.00  0.00    -0.090 OA 
HETATM   11  O   UNL     1      -8.374   8.200  64.594  1.00  0.00    -0.148 OA 
ENDBRANCH   7   8
ENDBRANCH   2   7
TORSDOF 3
ENDMDL
MODEL      195
REMARK 921   NORMALIZED FREE ENERGY PREDICTED BY IDOCK:   -1.69 KCAL/MOL
REMARK 922        TOTAL FREE ENERGY PREDICTED BY IDOCK:   -2.24 KCAL/MOL
REMARK 923 INTER-LIGAND FREE ENERGY PREDICTED BY IDOCK:   -2.11 KCAL/MOL
REMARK 924 INTRA-LIGAND FREE ENERGY PREDICTED BY IDOCK:   -0.13 KCAL/MOL
REMARK 927      BINDING AFFINITY PREDICTED BY RF-SCORE:    0.00 PKD
ROOT
HETATM    1  N   UNL     1      -8.713   8.594  67.342  1.00  0.00    -0.133 NA 
HETATM    2  C   UNL     1      -8.740   8.864  65.908  1.00  0.00    -0.170 C  
HETATM    3  H1  UNL     1      -8.652   7.589  67.512  1.00  0.00     0.000 HD 
HETATM    4  H2  UNL     1      -9.508   9.013  67.824  1.00  0.00     0.000 HD 
ENDROOT
BRANCH   2   5
HETATM    5  C   UNL     1      -7.509   8.257  65.294  1.00  0.00    -0.083 C  
HETATM    6  C   UNL     1      -7.482   7.074  64.664  1.00  0.00    -0.098 C  
ENDBRANCH   2   5
BRANCH   2   7
HETATM    7  C   UNL     1      -8.832  10.377  65.653  1.00  0.00    -0.190 C  
BRANCH   7   8
HETATM    8  C   UNL     1     -10.234  10.817  65.218  1.00  0.00    -0.351 C  
HETATM    9  C   UNL     1     -10.872  11.734  66.233  1.00  0.00    -0.281 C  
HETATM   10  O   UNL     1     -10.369  12.078  67.290  1.00  0.00    -0.208 OA 
HETATM   11  O   UNL     1     -12.099  12.152  65.844  1.00  0.00    -0.594 OA 
ENDBRANCH   7   8
ENDBRANCH   2   7
TORSDOF 3
ENDMDL
MODEL      196
REMARK 921   NORMALIZED FREE ENERGY PREDICTED BY IDOCK:   -1.65 KCAL/MOL
REMARK 922        TOTAL FREE ENERGY PREDICTED BY IDOCK:   -2.20 KCAL/MOL
REMARK 923 INTER-LIGAND FREE ENERGY PREDICTED BY IDOCK:   -2.06 KCAL/MOL
REMARK 924 INTRA-LIGAND FREE ENERGY PREDICTED BY IDOCK:   -0.14 KCAL/MOL
REMARK 927      BINDING AFFINITY PREDICTED BY RF-SCORE:    0.00 PKD
ROOT
HETATM    1  N   UNL     1      -8.654  14.176  68.858  1.00  0.00    -0.354 NA 
HETATM    2  C   UNL     1      -7.927  15.344  69.348  1.00  0.00    -0.234 C  
HETATM    3  H1  UNL     1      -9.657  14.358  68.860  1.00  0.00     0.000 HD 
HETATM    4  H2  UNL     1      -8.419  13.334  69.384  1.00  0.00     0.000 HD 
ENDROOT
BRANCH   2   5
HETATM    5  C   UNL     1      -8.293  16.518  68.484  1.00  0.00    -0.210 C  
HETATM    6  C   UNL     1      -7.687  17.712  68.532  1.00  0.00    -0.281 C  
ENDBRANCH   2   5
BRANCH   2   7
HETATM    7  C   UNL     1      -6.415  15.069  69.346  1.00  0.00    -0.135 C  
BRANCH   7   8
HETATM    8  C   UNL     1      -6.083  13.596  69.610  1.00  0.00    -0.120 C  
HETATM    9  C   UNL     1      -5.741  13.351  71.059  1.00  0.00    -0.165 C  
HETATM   10  O   UNL     1      -5.699  14.205  71.930  1.00  0.00    -0.224 OA 
HETATM   11  O   UNL     1      -5.475  12.048  71.309  1.00  0.00    -0.340 OA 
ENDBRANCH   7   8
ENDBRANCH   2   7
TORSDOF 3
ENDMDL
MODEL      197
REMARK 921   NORMALIZED FREE ENERGY PREDICTED BY IDOCK:   -1.64 KCAL/MOL
REMARK 922        TOTAL FREE ENERGY PREDICTED BY IDOCK:   -2.19 KCAL/MOL
REMARK 923 INTER-LIGAND FREE ENERGY PREDICTED BY IDOCK:   -1.89 KCAL/MOL
REMARK 924 INTRA-LIGAND FREE ENERGY PREDICTED BY IDOCK:   -0.29 KCAL/MOL
REMARK 927      BINDING AFFINITY PREDICTED BY RF-SCORE:    0.00 PKD
ROOT
HETATM    1  N   UNL     1      -8.852   6.343  72.722  1.00  0.00    -0.125 NA 
HETATM    2  C   UNL     1      -9.172   7.757  72.885  1.00  0.00    -0.208 C  
HETATM    3  H1  UNL     1      -9.314   5.790  73.444  1.00  0.00     0.000 HD 
HETATM    4  H2  UNL     1      -7.845   6.180  72.705  1.00  0.00     0.000 HD 
ENDROOT
BRANCH   2   5
HETATM    5  C   UNL     1     -10.668   7.905  72.845  1.00  0.00    -0.440 C  
HETATM    6  C   UNL     1     -11.533   6.886  72.943  1.00  0.00    -0.129 C  
ENDBRANCH   2   5
BRANCH   2   7
HETATM    7  C   UNL     1      -8.475   8.590  71.798  1.00  0.00    -0.236 C  
BRANCH   7   8
HETATM    8  C   UNL     1      -9.419   8.974  70.654  1.00  0.00    -0.286 C  
HETATM    9  C   UNL     1      -9.279   8.040  69.476  1.00  0.00    -0.152 C  
HETATM   10  O   UNL     1      -8.500   7.104  69.406  1.00  0.00    -0.131 OA 
HETATM   11  O   UNL     1     -10.129   8.353  68.471  1.00  0.00    -0.186 OA 
ENDBRANCH   7   8
ENDBRANCH   2   7
TORSDOF 3
ENDMDL
MODEL      198
REMARK 921   NORMALIZED FREE ENERGY PREDICTED BY IDOCK:   -1.64 KCAL/MOL
REMARK 922        TOTAL FREE ENERGY PREDICTED BY IDOCK:   -2.19 KCAL/MOL
REMARK 923 INTER-LIGAND FREE ENERGY PREDICTED BY IDOCK:   -2.08 KCAL/MOL
REMARK 924 INTRA-LIGAND FREE ENERGY PREDICTED BY IDOCK:   -0.11 KCAL/MOL
REMARK 927      BINDING AFFINITY PREDICTED BY RF-SCORE:    0.00 PKD
ROOT
HETATM    1  N   UNL     1      -9.890   7.113  72.246  1.00  0.00    -0.153 NA 
HETATM    2  C   UNL     1      -9.858   8.553  72.010  1.00  0.00    -0.312 C  
HETATM    3  H1  UNL     1     -10.510   6.896  73.027  1.00  0.00     0.000 HD 
HETATM    4  H2  UNL     1      -8.955   6.729  72.384  1.00  0.00     0.000 HD 
ENDROOT
BRANCH   2   5
HETATM    5  C   UNL     1     -11.267   9.018  71.766  1.00  0.00    -0.448 C  
HETATM    6  C   UNL     1     -12.363   8.316  72.087  1.00  0.00    -0.410 C  
ENDBRANCH   2   5
BRANCH   2   7
HETATM    7  C   UNL     1      -8.925   8.879  70.833  1.00  0.00    -0.273 C  
BRANCH   7   8
HETATM    8  C   UNL     1      -7.736   7.917  70.740  1.00  0.00    -0.083 C  
HETATM    9  C   UNL     1      -6.555   8.407  71.541  1.00  0.00    -0.064 C  
HETATM   10  O   UNL     1      -6.514   9.450  72.173  1.00  0.00    -0.299 OA 
HETATM   11  O   UNL     1      -5.510   7.549  71.489  1.00  0.00    -0.035 OA 
ENDBRANCH   7   8
ENDBRANCH   2   7
TORSDOF 3
ENDMDL
MODEL      199
REMARK 921   NORMALIZED FREE ENERGY PREDICTED BY IDOCK:   -1.62 KCAL/MOL
REMARK 922        TOTAL FREE ENERGY PREDICTED BY IDOCK:   -2.16 KCAL/MOL
REMARK 923 INTER-LIGAND FREE ENERGY PREDICTED BY IDOCK:   -1.97 KCAL/MOL
REMARK 924 INTRA-LIGAND FREE ENERGY PREDICTED BY IDOCK:   -0.19 KCAL/MOL
REMARK 927      BINDING AFFINITY PREDICTED BY RF-SCORE:    0.00 PKD
ROOT
HETATM    1  N   UNL     1      -9.458   7.350  74.449  1.00  0.00    -0.413 NA 
HETATM    2  C   UNL     1     -10.327   6.738  73.448  1.00  0.00    -0.294 C  
HETATM    3  H1  UNL     1      -9.640   6.949  75.369  1.00  0.00     0.000 HD 
HETATM    4  H2  UNL     1      -9.541   8.367  74.454  1.00  0.00     0.000 HD 
ENDROOT
BRANCH   2   5
HETATM    5  C   UNL     1     -10.098   5.253  73.476  1.00  0.00    -0.205 C  
HETATM    6  C   UNL     1     -10.426   4.455  74.502  1.00  0.00    -0.295 C  
ENDBRANCH   2   5
BRANCH   2   7
HETATM    7  C   UNL     1     -10.053   7.344  72.062  1.00  0.00    -0.212 C  
BRANCH   7   8
HETATM    8  C   UNL     1      -8.760   6.813  71.433  1.00  0.00    -0.131 C  
HETATM    9  C   UNL     1      -7.728   7.902  71.274  1.00  0.00    -0.086 C  
HETATM   10  O   UNL     1      -7.885   9.074  71.575  1.00  0.00    -0.290 OA 
HETATM   11  O   UNL     1      -6.572   7.438  70.746  1.00  0.00    -0.042 OA 
ENDBRANCH   7   8
ENDBRANCH   2   7
TORSDOF 3
ENDMDL
MODEL      200
REMARK 921   NORMALIZED FREE ENERGY PREDICTED BY IDOCK:   -1.62 KCAL/MOL
REMARK 922        TOTAL FREE ENERGY PREDICTED BY IDOCK:   -2.16 KCAL/MOL
REMARK 923 INTER-LIGAND FREE ENERGY PREDICTED BY IDOCK:   -2.01 KCAL/MOL
REMARK 924 INTRA-LIGAND FREE ENERGY PREDICTED BY IDOCK:   -0.14 KCAL/MOL
REMARK 927      BINDING AFFINITY PREDICTED BY RF-SCORE:    0.00 PKD
ROOT
HETATM    1  N   UNL     1      -8.965   5.774  71.821  1.00  0.00    -0.139 NA 
HETATM    2  C   UNL     1     -10.252   6.429  72.040  1.00  0.00    -0.194 C  
HETATM    3  H1  UNL     1      -9.065   4.762  71.904  1.00  0.00     0.000 HD 
HETATM    4  H2  UNL     1      -8.243   6.137  72.443  1.00  0.00     0.000 HD 
ENDROOT
BRANCH   2   5
HETATM    5  C   UNL     1     -11.235   5.870  71.049  1.00  0.00    -0.280 C  
HETATM    6  C   UNL     1     -12.009   6.616  70.248  1.00  0.00    -0.302 C  
ENDBRANCH   2   5
BRANCH   2   7
HETATM    7  C   UNL     1     -10.101   7.953  71.915  1.00  0.00    -0.250 C  
BRANCH   7   8
HETATM    8  C   UNL     1      -8.663   8.425  72.156  1.00  0.00    -0.272 C  
HETATM    9  C   UNL     1      -8.154   9.272  71.016  1.00  0.00    -0.066 C  
HETATM   10  O   UNL     1      -8.778   9.544  70.003  1.00  0.00    -0.184 OA 
HETATM   11  O   UNL     1      -6.895   9.718  71.233  1.00  0.00    -0.326 OA 
ENDBRANCH   7   8
ENDBRANCH   2   7
TORSDOF 3
ENDMDL
MODEL      201
REMARK 921   NORMALIZED FREE ENERGY PREDICTED BY IDOCK:   -1.60 KCAL/MOL
REMARK 922        TOTAL FREE ENERGY PREDICTED BY IDOCK:   -2.13 KCAL/MOL
REMARK 923 INTER-LIGAND FREE ENERGY PREDICTED BY IDOCK:   -2.05 KCAL/MOL
REMARK 924 INTRA-LIGAND FREE ENERGY PREDICTED BY IDOCK:   -0.08 KCAL/MOL
REMARK 927      BINDING AFFINITY PREDICTED BY RF-SCORE:    0.00 PKD
ROOT
HETATM    1  N   UNL     1      -5.884  18.216  67.049  1.00  0.00    -0.139 NA 
HETATM    2  C   UNL     1      -6.790  19.138  67.726  1.00  0.00    -0.217 C  
HETATM    3  H1  UNL     1      -5.221  18.732  66.471  1.00  0.00     0.000 HD 
HETATM    4  H2  UNL     1      -6.389  17.511  66.511  1.00  0.00     0.000 HD 
ENDROOT
BRANCH   2   5
HETATM    5  C   UNL     1      -5.962  20.100  68.531  1.00  0.00    -0.303 C  
HETATM    6  C   UNL     1      -6.108  20.309  69.847  1.00  0.00    -0.380 C  
ENDBRANCH   2   5
BRANCH   2   7
HETATM    7  C   UNL     1      -7.789  18.360  68.597  1.00  0.00    -0.320 C  
BRANCH   7   8
HETATM    8  C   UNL     1      -7.682  16.843  68.404  1.00  0.00    -0.219 C  
HETATM    9  C   UNL     1      -6.756  16.215  69.417  1.00  0.00    -0.205 C  
HETATM   10  O   UNL     1      -6.137  16.818  70.278  1.00  0.00    -0.150 OA 
HETATM   11  O   UNL     1      -6.677  14.872  69.273  1.00  0.00    -0.119 OA 
ENDBRANCH   7   8
ENDBRANCH   2   7
TORSDOF 3
ENDMDL
MODEL      202
REMARK 921   NORMALIZED FREE ENERGY PREDICTED BY IDOCK:   -1.60 KCAL/MOL
REMARK 922        TOTAL FREE ENERGY PREDICTED BY IDOCK:   -2.13 KCAL/MOL
REMARK 923 INTER-LIGAND FREE ENERGY PREDICTED BY IDOCK:   -2.06 KCAL/MOL
REMARK 924 INTRA-LIGAND FREE ENERGY PREDICTED BY IDOCK:   -0.07 KCAL/MOL
REMARK 927      BINDING AFFINITY PREDICTED BY RF-SCORE:    0.00 PKD
ROOT
HETATM    1  N   UNL     1      -8.144  10.946  69.489  1.00  0.00    -0.382 NA 
HETATM    2  C   UNL     1      -8.107  11.683  68.229  1.00  0.00    -0.150 C  
HETATM    3  H1  UNL     1      -7.284  11.101  70.014  1.00  0.00     0.000 HD 
HETATM    4  H2  UNL     1      -8.328   9.953  69.343  1.00  0.00     0.000 HD 
ENDROOT
BRANCH   2   5
HETATM    5  C   UNL     1      -7.887  13.137  68.545  1.00  0.00    -0.105 C  
HETATM    6  C   UNL     1      -7.448  14.045  67.664  1.00  0.00    -0.186 C  
ENDBRANCH   2   5
BRANCH   2   7
HETATM    7  C   UNL     1      -9.404  11.450  67.437  1.00  0.00    -0.171 C  
BRANCH   7   8
HETATM    8  C   UNL     1      -9.180  11.471  65.922  1.00  0.00    -0.223 C  
HETATM    9  C   UNL     1      -9.632  10.186  65.272  1.00  0.00    -0.277 C  
HETATM   10  O   UNL     1     -10.098   9.223  65.859  1.00  0.00    -0.293 OA 
HETATM   11  O   UNL     1      -9.465  10.205  63.929  1.00  0.00    -0.274 OA 
ENDBRANCH   7   8
ENDBRANCH   2   7
TORSDOF 3
ENDMDL
MODEL      203
REMARK 921   NORMALIZED FREE ENERGY PREDICTED BY IDOCK:   -1.58 KCAL/MOL
REMARK 922        TOTAL FREE ENERGY PREDICTED BY IDOCK:   -2.11 KCAL/MOL
REMARK 923 INTER-LIGAND FREE ENERGY PREDICTED BY IDOCK:   -2.01 KCAL/MOL
REMARK 924 INTRA-LIGAND FREE ENERGY PREDICTED BY IDOCK:   -0.10 KCAL/MOL
REMARK 927      BINDING AFFINITY PREDICTED BY RF-SCORE:    0.00 PKD
ROOT
HETATM    1  N   UNL     1      -7.396  10.532  64.463  1.00  0.00    -0.346 NA 
HETATM    2  C   UNL     1      -8.820  10.385  64.748  1.00  0.00    -0.193 C  
HETATM    3  H1  UNL     1      -7.221  10.409  63.465  1.00  0.00     0.000 HD 
HETATM    4  H2  UNL     1      -6.828   9.903  65.029  1.00  0.00     0.000 HD 
ENDROOT
BRANCH   2   5
HETATM    5  C   UNL     1      -9.571  11.384  63.912  1.00  0.00    -0.238 C  
HETATM    6  C   UNL     1     -10.903  11.406  63.773  1.00  0.00    -0.468 C  
ENDBRANCH   2   5
BRANCH   2   7
HETATM    7  C   UNL     1      -9.084  10.569  66.251  1.00  0.00    -0.184 C  
BRANCH   7   8
HETATM    8  C   UNL     1      -7.929  11.276  66.969  1.00  0.00    -0.150 C  
HETATM    9  C   UNL     1      -8.116  11.273  68.467  1.00  0.00    -0.148 C  
HETATM   10  O   UNL     1      -9.071  10.798  69.059  1.00  0.00    -0.179 OA 
HETATM   11  O   UNL     1      -7.087  11.869  69.112  1.00  0.00    -0.105 OA 
ENDBRANCH   7   8
ENDBRANCH   2   7
TORSDOF 3
ENDMDL
MODEL      204
REMARK 921   NORMALIZED FREE ENERGY PREDICTED BY IDOCK:   -1.56 KCAL/MOL
REMARK 922        TOTAL FREE ENERGY PREDICTED BY IDOCK:   -2.09 KCAL/MOL
REMARK 923 INTER-LIGAND FREE ENERGY PREDICTED BY IDOCK:   -1.90 KCAL/MOL
REMARK 924 INTRA-LIGAND FREE ENERGY PREDICTED BY IDOCK:   -0.19 KCAL/MOL
REMARK 927      BINDING AFFINITY PREDICTED BY RF-SCORE:    0.00 PKD
ROOT
HETATM    1  N   UNL     1      -7.922   7.052  69.962  1.00  0.00    -0.113 NA 
HETATM    2  C   UNL     1      -9.288   6.866  70.443  1.00  0.00    -0.159 C  
HETATM    3  H1  UNL     1      -7.288   6.416  70.445  1.00  0.00     0.000 HD 
HETATM    4  H2  UNL     1      -7.620   8.023  70.041  1.00  0.00     0.000 HD 
ENDROOT
BRANCH   2   5
HETATM    5  C   UNL     1      -9.663   5.424  70.238  1.00  0.00    -0.254 C  
HETATM    6  C   UNL     1      -9.896   4.554  71.231  1.00  0.00    -0.260 C  
ENDBRANCH   2   5
BRANCH   2   7
HETATM    7  C   UNL     1     -10.243   7.825  69.715  1.00  0.00    -0.211 C  
BRANCH   7   8
HETATM    8  C   UNL     1      -9.690   8.296  68.366  1.00  0.00    -0.170 C  
HETATM    9  C   UNL     1     -10.348   7.581  67.211  1.00  0.00    -0.296 C  
HETATM   10  O   UNL     1     -11.199   6.712  67.310  1.00  0.00    -0.366 OA 
HETATM   11  O   UNL     1      -9.887   8.011  66.014  1.00  0.00    -0.073 OA 
ENDBRANCH   7   8
ENDBRANCH   2   7
TORSDOF 3
ENDMDL
MODEL      205
REMARK 921   NORMALIZED FREE ENERGY PREDICTED BY IDOCK:   -1.55 KCAL/MOL
REMARK 922        TOTAL FREE ENERGY PREDICTED BY IDOCK:   -2.08 KCAL/MOL
REMARK 923 INTER-LIGAND FREE ENERGY PREDICTED BY IDOCK:   -1.92 KCAL/MOL
REMARK 924 INTRA-LIGAND FREE ENERGY PREDICTED BY IDOCK:   -0.16 KCAL/MOL
REMARK 927      BINDING AFFINITY PREDICTED BY RF-SCORE:    0.00 PKD
ROOT
HETATM    1  N   UNL     1      -9.509  13.410  68.580  1.00  0.00    -0.356 NA 
HETATM    2  C   UNL     1      -9.258  14.841  68.724  1.00  0.00    -0.196 C  
HETATM    3  H1  UNL     1     -10.512  13.232  68.516  1.00  0.00     0.000 HD 
HETATM    4  H2  UNL     1      -9.074  12.870  69.328  1.00  0.00     0.000 HD 
ENDROOT
BRANCH   2   5
HETATM    5  C   UNL     1      -9.888  15.546  67.555  1.00  0.00    -0.220 C  
HETATM    6  C   UNL     1     -10.855  16.468  67.658  1.00  0.00    -0.269 C  
ENDBRANCH   2   5
BRANCH   2   7
HETATM    7  C   UNL     1      -7.747  15.109  68.820  1.00  0.00    -0.143 C  
BRANCH   7   8
HETATM    8  C   UNL     1      -6.973  14.552  67.621  1.00  0.00    -0.204 C  
HETATM    9  C   UNL     1      -6.338  13.219  67.935  1.00  0.00    -0.144 C  
HETATM   10  O   UNL     1      -6.396  12.644  69.010  1.00  0.00    -0.080 OA 
HETATM   11  O   UNL     1      -5.675  12.705  66.873  1.00  0.00    -0.308 OA 
ENDBRANCH   7   8
ENDBRANCH   2   7
TORSDOF 3
ENDMDL
MODEL      206
REMARK 921   NORMALIZED FREE ENERGY PREDICTED BY IDOCK:   -1.50 KCAL/MOL
REMARK 922        TOTAL FREE ENERGY PREDICTED BY IDOCK:   -2.02 KCAL/MOL
REMARK 923 INTER-LIGAND FREE ENERGY PREDICTED BY IDOCK:   -1.87 KCAL/MOL
REMARK 924 INTRA-LIGAND FREE ENERGY PREDICTED BY IDOCK:   -0.15 KCAL/MOL
REMARK 927      BINDING AFFINITY PREDICTED BY RF-SCORE:    0.00 PKD
ROOT
HETATM    1  N   UNL     1      -7.898   6.160  71.486  1.00  0.00    -0.101 NA 
HETATM    2  C   UNL     1      -9.223   6.493  71.999  1.00  0.00    -0.147 C  
HETATM    3  H1  UNL     1      -7.731   6.640  70.601  1.00  0.00     0.000 HD 
HETATM    4  H2  UNL     1      -7.764   5.152  71.403  1.00  0.00     0.000 HD 
ENDROOT
BRANCH   2   5
HETATM    5  C   UNL     1      -9.309   7.988  72.137  1.00  0.00    -0.251 C  
HETATM    6  C   UNL     1     -10.447   8.691  72.063  1.00  0.00    -0.422 C  
ENDBRANCH   2   5
BRANCH   2   7
HETATM    7  C   UNL     1      -9.475   5.770  73.332  1.00  0.00    -0.138 C  
BRANCH   7   8
HETATM    8  C   UNL     1     -10.786   4.977  73.334  1.00  0.00    -0.360 C  
HETATM    9  C   UNL     1     -10.542   3.492  73.445  1.00  0.00    -0.192 C  
HETATM   10  O   UNL     1      -9.446   2.958  73.502  1.00  0.00    -0.090 OA 
HETATM   11  O   UNL     1     -11.695   2.785  73.476  1.00  0.00    -0.168 OA 
ENDBRANCH   7   8
ENDBRANCH   2   7
TORSDOF 3
ENDMDL
MODEL      207
REMARK 921   NORMALIZED FREE ENERGY PREDICTED BY IDOCK:   -1.50 KCAL/MOL
REMARK 922        TOTAL FREE ENERGY PREDICTED BY IDOCK:   -2.02 KCAL/MOL
REMARK 923 INTER-LIGAND FREE ENERGY PREDICTED BY IDOCK:   -1.91 KCAL/MOL
REMARK 924 INTRA-LIGAND FREE ENERGY PREDICTED BY IDOCK:   -0.11 KCAL/MOL
REMARK 927      BINDING AFFINITY PREDICTED BY RF-SCORE:    0.00 PKD
ROOT
HETATM    1  N   UNL     1     -10.598  10.422  65.392  1.00  0.00    -0.111 NA 
HETATM    2  C   UNL     1      -9.746  11.594  65.572  1.00  0.00    -0.232 C  
HETATM    3  H1  UNL     1     -10.154   9.756  64.760  1.00  0.00     0.000 HD 
HETATM    4  H2  UNL     1     -11.534  10.678  65.078  1.00  0.00     0.000 HD 
ENDROOT
BRANCH   2   5
HETATM    5  C   UNL     1      -8.412  11.127  66.084  1.00  0.00    -0.156 C  
HETATM    6  C   UNL     1      -7.762  10.045  65.631  1.00  0.00    -0.136 C  
ENDBRANCH   2   5
BRANCH   2   7
HETATM    7  C   UNL     1     -10.415  12.599  66.523  1.00  0.00    -0.264 C  
BRANCH   7   8
HETATM    8  C   UNL     1      -9.452  13.690  67.001  1.00  0.00    -0.252 C  
HETATM    9  C   UNL     1     -10.137  15.029  67.119  1.00  0.00    -0.239 C  
HETATM   10  O   UNL     1     -11.306  15.250  66.850  1.00  0.00    -0.307 OA 
HETATM   11  O   UNL     1      -9.301  15.993  67.569  1.00  0.00    -0.214 OA 
ENDBRANCH   7   8
ENDBRANCH   2   7
TORSDOF 3
ENDMDL
MODEL      208
REMARK 921   NORMALIZED FREE ENERGY PREDICTED BY IDOCK:   -1.49 KCAL/MOL
REMARK 922        TOTAL FREE ENERGY PREDICTED BY IDOCK:   -2.01 KCAL/MOL
REMARK 923 INTER-LIGAND FREE ENERGY PREDICTED BY IDOCK:   -1.90 KCAL/MOL
REMARK 924 INTRA-LIGAND FREE ENERGY PREDICTED BY IDOCK:   -0.11 KCAL/MOL
REMARK 927      BINDING AFFINITY PREDICTED BY RF-SCORE:    0.00 PKD
ROOT
HETATM    1  N   UNL     1     -11.810   6.384  70.318  1.00  0.00    -0.413 NA 
HETATM    2  C   UNL     1     -10.376   6.397  70.045  1.00  0.00    -0.198 C  
HETATM    3  H1  UNL     1     -12.331   6.185  69.464  1.00  0.00     0.000 HD 
HETATM    4  H2  UNL     1     -12.121   7.250  70.760  1.00  0.00     0.000 HD 
ENDROOT
BRANCH   2   5
HETATM    5  C   UNL     1     -10.003   5.069  69.447  1.00  0.00    -0.290 C  
HETATM    6  C   UNL     1      -9.078   4.243  69.955  1.00  0.00    -0.175 C  
ENDBRANCH   2   5
BRANCH   2   7
HETATM    7  C   UNL     1      -9.591   6.698  71.332  1.00  0.00    -0.174 C  
BRANCH   7   8
HETATM    8  C   UNL     1      -8.718   7.951  71.209  1.00  0.00    -0.149 C  
HETATM    9  C   UNL     1      -7.687   8.023  72.309  1.00  0.00    -0.112 C  
HETATM   10  O   UNL     1      -7.558   7.212  73.212  1.00  0.00    -0.081 OA 
HETATM   11  O   UNL     1      -6.891   9.111  72.193  1.00  0.00    -0.309 OA 
ENDBRANCH   7   8
ENDBRANCH   2   7
TORSDOF 3
ENDMDL
MODEL      209
REMARK 921   NORMALIZED FREE ENERGY PREDICTED BY IDOCK:   -1.49 KCAL/MOL
REMARK 922        TOTAL FREE ENERGY PREDICTED BY IDOCK:   -2.01 KCAL/MOL
REMARK 923 INTER-LIGAND FREE ENERGY PREDICTED BY IDOCK:   -1.78 KCAL/MOL
REMARK 924 INTRA-LIGAND FREE ENERGY PREDICTED BY IDOCK:   -0.23 KCAL/MOL
REMARK 927      BINDING AFFINITY PREDICTED BY RF-SCORE:    0.00 PKD
ROOT
HETATM    1  N   UNL     1     -10.400  10.485  65.158  1.00  0.00    -0.284 NA 
HETATM    2  C   UNL     1      -9.144  11.131  65.528  1.00  0.00    -0.195 C  
HETATM    3  H1  UNL     1     -10.326  10.076  64.227  1.00  0.00     0.000 HD 
HETATM    4  H2  UNL     1     -11.192  11.123  65.232  1.00  0.00     0.000 HD 
ENDROOT
BRANCH   2   5
HETATM    5  C   UNL     1      -8.049  10.105  65.442  1.00  0.00    -0.149 C  
HETATM    6  C   UNL     1      -6.882  10.186  66.098  1.00  0.00    -0.108 C  
ENDBRANCH   2   5
BRANCH   2   7
HETATM    7  C   UNL     1      -9.256  11.748  66.932  1.00  0.00    -0.189 C  
BRANCH   7   8
HETATM    8  C   UNL     1     -10.447  11.197  67.724  1.00  0.00    -0.225 C  
HETATM    9  C   UNL     1     -10.004  10.503  68.989  1.00  0.00    -0.211 C  
HETATM   10  O   UNL     1      -8.847  10.360  69.348  1.00  0.00    -0.167 OA 
HETATM   11  O   UNL     1     -11.050  10.039  69.710  1.00  0.00    -0.247 OA 
ENDBRANCH   7   8
ENDBRANCH   2   7
TORSDOF 3
ENDMDL
MODEL      210
REMARK 921   NORMALIZED FREE ENERGY PREDICTED BY IDOCK:   -1.48 KCAL/MOL
REMARK 922        TOTAL FREE ENERGY PREDICTED BY IDOCK:   -1.99 KCAL/MOL
REMARK 923 INTER-LIGAND FREE ENERGY PREDICTED BY IDOCK:   -1.82 KCAL/MOL
REMARK 924 INTRA-LIGAND FREE ENERGY PREDICTED BY IDOCK:   -0.16 KCAL/MOL
REMARK 927      BINDING AFFINITY PREDICTED BY RF-SCORE:    0.00 PKD
ROOT
HETATM    1  N   UNL     1      -8.253   7.138  67.370  1.00  0.00    -0.115 NA 
HETATM    2  C   UNL     1      -8.654   5.882  67.997  1.00  0.00    -0.113 C  
HETATM    3  H1  UNL     1      -8.317   7.063  66.355  1.00  0.00     0.000 HD 
HETATM    4  H2  UNL     1      -7.324   7.433  67.672  1.00  0.00     0.000 HD 
ENDROOT
BRANCH   2   5
HETATM    5  C   UNL     1     -10.048   5.555  67.538  1.00  0.00    -0.217 C  
HETATM    6  C   UNL     1     -10.930   6.460  67.091  1.00  0.00    -0.476 C  
ENDBRANCH   2   5
BRANCH   2   7
HETATM    7  C   UNL     1      -8.556   5.994  69.527  1.00  0.00    -0.119 C  
BRANCH   7   8
HETATM    8  C   UNL     1      -8.130   7.392  69.988  1.00  0.00    -0.129 C  
HETATM    9  C   UNL     1      -9.130   7.994  70.944  1.00  0.00    -0.148 C  
HETATM   10  O   UNL     1     -10.170   7.468  71.303  1.00  0.00    -0.189 OA 
HETATM   11  O   UNL     1      -8.748   9.217  71.380  1.00  0.00    -0.317 OA 
ENDBRANCH   7   8
ENDBRANCH   2   7
TORSDOF 3
ENDMDL
MODEL      211
REMARK 921   NORMALIZED FREE ENERGY PREDICTED BY IDOCK:   -1.42 KCAL/MOL
REMARK 922        TOTAL FREE ENERGY PREDICTED BY IDOCK:   -1.92 KCAL/MOL
REMARK 923 INTER-LIGAND FREE ENERGY PREDICTED BY IDOCK:   -1.78 KCAL/MOL
REMARK 924 INTRA-LIGAND FREE ENERGY PREDICTED BY IDOCK:   -0.15 KCAL/MOL
REMARK 927      BINDING AFFINITY PREDICTED BY RF-SCORE:    0.00 PKD
ROOT
HETATM    1  N   UNL     1      -6.590   9.669  70.665  1.00  0.00    -0.104 NA 
HETATM    2  C   UNL     1      -7.915   9.263  70.206  1.00  0.00    -0.146 C  
HETATM    3  H1  UNL     1      -6.003   9.921  69.870  1.00  0.00     0.000 HD 
HETATM    4  H2  UNL     1      -6.154   8.954  71.248  1.00  0.00     0.000 HD 
ENDROOT
BRANCH   2   5
HETATM    5  C   UNL     1      -8.498  10.393  69.405  1.00  0.00    -0.145 C  
HETATM    6  C   UNL     1      -7.790  11.188  68.590  1.00  0.00    -0.138 C  
ENDBRANCH   2   5
BRANCH   2   7
HETATM    7  C   UNL     1      -8.800   8.882  71.404  1.00  0.00    -0.283 C  
BRANCH   7   8
HETATM    8  C   UNL     1      -9.343   7.453  71.305  1.00  0.00    -0.158 C  
HETATM    9  C   UNL     1     -10.772   7.430  70.820  1.00  0.00    -0.232 C  
HETATM   10  O   UNL     1     -11.444   8.414  70.556  1.00  0.00    -0.259 OA 
HETATM   11  O   UNL     1     -11.251   6.171  70.700  1.00  0.00    -0.310 OA 
ENDBRANCH   7   8
ENDBRANCH   2   7
TORSDOF 3
ENDMDL
MODEL      212
REMARK 921   NORMALIZED FREE ENERGY PREDICTED BY IDOCK:   -1.38 KCAL/MOL
REMARK 922        TOTAL FREE ENERGY PREDICTED BY IDOCK:   -1.87 KCAL/MOL
REMARK 923 INTER-LIGAND FREE ENERGY PREDICTED BY IDOCK:   -1.65 KCAL/MOL
REMARK 924 INTRA-LIGAND FREE ENERGY PREDICTED BY IDOCK:   -0.23 KCAL/MOL
REMARK 927      BINDING AFFINITY PREDICTED BY RF-SCORE:    0.00 PKD
ROOT
HETATM    1  N   UNL     1      -8.668  11.819  68.454  1.00  0.00    -0.182 NA 
HETATM    2  C   UNL     1      -9.692  12.752  67.994  1.00  0.00    -0.220 C  
HETATM    3  H1  UNL     1      -8.055  11.557  67.682  1.00  0.00     0.000 HD 
HETATM    4  H2  UNL     1      -9.075  11.003  68.911  1.00  0.00     0.000 HD 
ENDROOT
BRANCH   2   5
HETATM    5  C   UNL     1      -9.002  13.942  67.387  1.00  0.00    -0.211 C  
HETATM    6  C   UNL     1      -7.865  14.477  67.853  1.00  0.00    -0.153 C  
ENDBRANCH   2   5
BRANCH   2   7
HETATM    7  C   UNL     1     -10.616  13.146  69.158  1.00  0.00    -0.004 C  
BRANCH   7   8
HETATM    8  C   UNL     1     -11.968  12.428  69.106  1.00  0.00    -0.291 C  
HETATM    9  C   UNL     1     -11.881  11.030  69.666  1.00  0.00    -0.342 C  
HETATM   10  O   UNL     1     -10.867  10.500  70.091  1.00  0.00    -0.283 OA 
HETATM   11  O   UNL     1     -13.077  10.397  69.651  1.00  0.00     0.037 OA 
ENDBRANCH   7   8
ENDBRANCH   2   7
TORSDOF 3
ENDMDL
MODEL      213
REMARK 921   NORMALIZED FREE ENERGY PREDICTED BY IDOCK:   -1.36 KCAL/MOL
REMARK 922        TOTAL FREE ENERGY PREDICTED BY IDOCK:   -1.85 KCAL/MOL
REMARK 923 INTER-LIGAND FREE ENERGY PREDICTED BY IDOCK:   -1.79 KCAL/MOL
REMARK 924 INTRA-LIGAND FREE ENERGY PREDICTED BY IDOCK:   -0.06 KCAL/MOL
REMARK 927      BINDING AFFINITY PREDICTED BY RF-SCORE:    0.00 PKD
ROOT
HETATM    1  N   UNL     1      -8.485   6.278  64.564  1.00  0.00    -0.340 NA 
HETATM    2  C   UNL     1      -8.560   5.800  65.941  1.00  0.00    -0.146 C  
HETATM    3  H1  UNL     1      -7.699   5.841  64.081  1.00  0.00     0.000 HD 
HETATM    4  H2  UNL     1      -8.442   7.296  64.516  1.00  0.00     0.000 HD 
ENDROOT
BRANCH   2   5
HETATM    5  C   UNL     1      -8.673   4.301  65.911  1.00  0.00    -0.115 C  
HETATM    6  C   UNL     1      -7.718   3.479  65.454  1.00  0.00    -0.081 C  
ENDBRANCH   2   5
BRANCH   2   7
HETATM    7  C   UNL     1      -9.743   6.458  66.669  1.00  0.00    -0.197 C  
BRANCH   7   8
HETATM    8  C   UNL     1      -9.749   7.984  66.524  1.00  0.00    -0.297 C  
HETATM    9  C   UNL     1     -10.183   8.665  67.799  1.00  0.00    -0.225 C  
HETATM   10  O   UNL     1     -10.517   8.097  68.825  1.00  0.00    -0.211 OA 
HETATM   11  O   UNL     1     -10.163  10.014  67.690  1.00  0.00    -0.179 OA 
ENDBRANCH   7   8
ENDBRANCH   2   7
TORSDOF 3
ENDMDL
MODEL      214
REMARK 921   NORMALIZED FREE ENERGY PREDICTED BY IDOCK:   -1.35 KCAL/MOL
REMARK 922        TOTAL FREE ENERGY PREDICTED BY IDOCK:   -1.83 KCAL/MOL
REMARK 923 INTER-LIGAND FREE ENERGY PREDICTED BY IDOCK:   -1.69 KCAL/MOL
REMARK 924 INTRA-LIGAND FREE ENERGY PREDICTED BY IDOCK:   -0.15 KCAL/MOL
REMARK 927      BINDING AFFINITY PREDICTED BY RF-SCORE:    0.00 PKD
ROOT
HETATM    1  N   UNL     1     -11.056   7.483  71.659  1.00  0.00    -0.237 NA 
HETATM    2  C   UNL     1     -10.724   6.246  72.360  1.00  0.00    -0.225 C  
HETATM    3  H1  UNL     1     -11.293   8.216  72.327  1.00  0.00     0.000 HD 
HETATM    4  H2  UNL     1     -11.796   7.342  70.970  1.00  0.00     0.000 HD 
ENDROOT
BRANCH   2   5
HETATM    5  C   UNL     1      -9.595   6.537  73.310  1.00  0.00    -0.168 C  
HETATM    6  C   UNL     1      -9.262   7.762  73.738  1.00  0.00    -0.316 C  
ENDBRANCH   2   5
BRANCH   2   7
HETATM    7  C   UNL     1     -10.367   5.142  71.353  1.00  0.00    -0.273 C  
BRANCH   7   8
HETATM    8  C   UNL     1      -9.028   5.394  70.652  1.00  0.00    -0.163 C  
HETATM    9  C   UNL     1      -9.110   5.110  69.172  1.00  0.00    -0.102 C  
HETATM   10  O   UNL     1     -10.099   4.704  68.583  1.00  0.00    -0.112 OA 
HETATM   11  O   UNL     1      -7.940   5.357  68.538  1.00  0.00    -0.090 OA 
ENDBRANCH   7   8
ENDBRANCH   2   7
TORSDOF 3
ENDMDL
MODEL      215
REMARK 921   NORMALIZED FREE ENERGY PREDICTED BY IDOCK:   -1.34 KCAL/MOL
REMARK 922        TOTAL FREE ENERGY PREDICTED BY IDOCK:   -1.83 KCAL/MOL
REMARK 923 INTER-LIGAND FREE ENERGY PREDICTED BY IDOCK:   -1.99 KCAL/MOL
REMARK 924 INTRA-LIGAND FREE ENERGY PREDICTED BY IDOCK:    0.16 KCAL/MOL
REMARK 927      BINDING AFFINITY PREDICTED BY RF-SCORE:    0.00 PKD
ROOT
HETATM    1  N   UNL     1      -5.528  21.047  68.447  1.00  0.00    -0.325 NA 
HETATM    2  C   UNL     1      -6.134  20.597  67.197  1.00  0.00    -0.224 C  
HETATM    3  H1  UNL     1      -4.603  20.634  68.560  1.00  0.00     0.000 HD 
HETATM    4  H2  UNL     1      -6.129  20.860  69.250  1.00  0.00     0.000 HD 
ENDROOT
BRANCH   2   5
HETATM    5  C   UNL     1      -5.207  20.960  66.071  1.00  0.00    -0.228 C  
HETATM    6  C   UNL     1      -5.603  21.223  64.818  1.00  0.00    -0.165 C  
ENDBRANCH   2   5
BRANCH   2   7
HETATM    7  C   UNL     1      -7.529  21.220  67.027  1.00  0.00     0.054 C  
BRANCH   7   8
HETATM    8  C   UNL     1      -8.434  20.394  66.107  1.00  0.00    -0.041 C  
HETATM    9  C   UNL     1      -9.339  19.475  66.890  1.00  0.00    -0.346 C  
HETATM   10  O   UNL     1      -9.352  19.363  68.105  1.00  0.00    -0.316 OA 
HETATM   11  O   UNL     1     -10.163  18.762  66.088  1.00  0.00    -0.402 OA 
ENDBRANCH   7   8
ENDBRANCH   2   7
TORSDOF 3
ENDMDL
MODEL      216
REMARK 921   NORMALIZED FREE ENERGY PREDICTED BY IDOCK:   -1.32 KCAL/MOL
REMARK 922        TOTAL FREE ENERGY PREDICTED BY IDOCK:   -1.81 KCAL/MOL
REMARK 923 INTER-LIGAND FREE ENERGY PREDICTED BY IDOCK:   -1.74 KCAL/MOL
REMARK 924 INTRA-LIGAND FREE ENERGY PREDICTED BY IDOCK:   -0.07 KCAL/MOL
REMARK 927      BINDING AFFINITY PREDICTED BY RF-SCORE:    0.00 PKD
ROOT
HETATM    1  N   UNL     1      -8.743   4.795  68.847  1.00  0.00    -0.088 NA 
HETATM    2  C   UNL     1     -10.033   5.421  69.121  1.00  0.00    -0.197 C  
HETATM    3  H1  UNL     1      -8.657   4.582  67.853  1.00  0.00     0.000 HD 
HETATM    4  H2  UNL     1      -8.589   3.971  69.428  1.00  0.00     0.000 HD 
ENDROOT
BRANCH   2   5
HETATM    5  C   UNL     1     -10.148   6.650  68.263  1.00  0.00    -0.170 C  
HETATM    6  C   UNL     1      -9.139   7.498  68.016  1.00  0.00    -0.131 C  
ENDBRANCH   2   5
BRANCH   2   7
HETATM    7  C   UNL     1     -10.163   5.741  70.618  1.00  0.00    -0.280 C  
BRANCH   7   8
HETATM    8  C   UNL     1     -10.215   4.481  71.488  1.00  0.00    -0.195 C  
HETATM    9  C   UNL     1     -10.738   4.778  72.872  1.00  0.00    -0.232 C  
HETATM   10  O   UNL     1     -11.062   5.879  73.284  1.00  0.00    -0.252 OA 
HETATM   11  O   UNL     1     -10.815   3.666  73.639  1.00  0.00    -0.200 OA 
ENDBRANCH   7   8
ENDBRANCH   2   7
TORSDOF 3
ENDMDL
MODEL      217
REMARK 921   NORMALIZED FREE ENERGY PREDICTED BY IDOCK:   -1.27 KCAL/MOL
REMARK 922        TOTAL FREE ENERGY PREDICTED BY IDOCK:   -1.75 KCAL/MOL
REMARK 923 INTER-LIGAND FREE ENERGY PREDICTED BY IDOCK:   -1.62 KCAL/MOL
REMARK 924 INTRA-LIGAND FREE ENERGY PREDICTED BY IDOCK:   -0.13 KCAL/MOL
REMARK 927      BINDING AFFINITY PREDICTED BY RF-SCORE:    0.00 PKD
ROOT
HETATM    1  N   UNL     1      -8.576   6.148  64.434  1.00  0.00    -0.345 NA 
HETATM    2  C   UNL     1      -8.579   6.425  65.867  1.00  0.00    -0.148 C  
HETATM    3  H1  UNL     1      -8.179   5.226  64.253  1.00  0.00     0.000 HD 
HETATM    4  H2  UNL     1      -8.098   6.879  63.907  1.00  0.00     0.000 HD 
ENDROOT
BRANCH   2   5
HETATM    5  C   UNL     1      -9.348   5.330  66.553  1.00  0.00    -0.146 C  
HETATM    6  C   UNL     1     -10.349   4.640  65.989  1.00  0.00    -0.318 C  
ENDBRANCH   2   5
BRANCH   2   7
HETATM    7  C   UNL     1      -9.177   7.814  66.140  1.00  0.00    -0.182 C  
BRANCH   7   8
HETATM    8  C   UNL     1      -8.673   8.876  65.157  1.00  0.00    -0.213 C  
HETATM    9  C   UNL     1      -7.511   9.656  65.723  1.00  0.00    -0.100 C  
HETATM   10  O   UNL     1      -7.029   9.500  66.833  1.00  0.00    -0.080 OA 
HETATM   11  O   UNL     1      -7.040  10.576  64.851  1.00  0.00    -0.088 OA 
ENDBRANCH   7   8
ENDBRANCH   2   7
TORSDOF 3
ENDMDL
MODEL      218
REMARK 921   NORMALIZED FREE ENERGY PREDICTED BY IDOCK:   -1.25 KCAL/MOL
REMARK 922        TOTAL FREE ENERGY PREDICTED BY IDOCK:   -1.72 KCAL/MOL
REMARK 923 INTER-LIGAND FREE ENERGY PREDICTED BY IDOCK:   -1.75 KCAL/MOL
REMARK 924 INTRA-LIGAND FREE ENERGY PREDICTED BY IDOCK:    0.03 KCAL/MOL
REMARK 927      BINDING AFFINITY PREDICTED BY RF-SCORE:    0.00 PKD
ROOT
HETATM    1  N   UNL     1     -11.550   7.046  70.018  1.00  0.00    -0.536 NA 
HETATM    2  C   UNL     1     -10.510   6.870  69.008  1.00  0.00    -0.208 C  
HETATM    3  H1  UNL     1     -12.456   6.761  69.646  1.00  0.00     0.000 HD 
HETATM    4  H2  UNL     1     -11.570   8.000  70.380  1.00  0.00     0.000 HD 
ENDROOT
BRANCH   2   5
HETATM    5  C   UNL     1     -10.520   5.431  68.573  1.00  0.00    -0.192 C  
HETATM    6  C   UNL     1     -10.389   5.022  67.304  1.00  0.00    -0.193 C  
ENDBRANCH   2   5
BRANCH   2   7
HETATM    7  C   UNL     1      -9.145   7.300  69.568  1.00  0.00    -0.143 C  
BRANCH   7   8
HETATM    8  C   UNL     1      -8.189   7.792  68.477  1.00  0.00    -0.128 C  
HETATM    9  C   UNL     1      -8.618   9.127  67.918  1.00  0.00    -0.121 C  
HETATM   10  O   UNL     1      -9.612   9.748  68.255  1.00  0.00    -0.142 OA 
HETATM   11  O   UNL     1      -7.763   9.584  66.973  1.00  0.00    -0.091 OA 
ENDBRANCH   7   8
ENDBRANCH   2   7
TORSDOF 3
ENDMDL
MODEL      219
REMARK 921   NORMALIZED FREE ENERGY PREDICTED BY IDOCK:   -1.22 KCAL/MOL
REMARK 922        TOTAL FREE ENERGY PREDICTED BY IDOCK:   -1.69 KCAL/MOL
REMARK 923 INTER-LIGAND FREE ENERGY PREDICTED BY IDOCK:   -1.82 KCAL/MOL
REMARK 924 INTRA-LIGAND FREE ENERGY PREDICTED BY IDOCK:    0.13 KCAL/MOL
REMARK 927      BINDING AFFINITY PREDICTED BY RF-SCORE:    0.00 PKD
ROOT
HETATM    1  N   UNL     1      -8.824  11.053  69.250  1.00  0.00    -0.383 NA 
HETATM    2  C   UNL     1      -9.068   9.668  68.857  1.00  0.00    -0.144 C  
HETATM    3  H1  UNL     1      -8.103  11.467  68.659  1.00  0.00     0.000 HD 
HETATM    4  H2  UNL     1      -8.595  11.133  70.241  1.00  0.00     0.000 HD 
ENDROOT
BRANCH   2   5
HETATM    5  C   UNL     1      -9.448   9.655  67.403  1.00  0.00    -0.170 C  
HETATM    6  C   UNL     1      -9.704   8.545  66.697  1.00  0.00    -0.318 C  
ENDBRANCH   2   5
BRANCH   2   7
HETATM    7  C   UNL     1     -10.154   9.045  69.749  1.00  0.00    -0.209 C  
BRANCH   7   8
HETATM    8  C   UNL     1     -10.073   7.516  69.793  1.00  0.00    -0.194 C  
HETATM    9  C   UNL     1      -9.114   7.037  70.856  1.00  0.00    -0.153 C  
HETATM   10  O   UNL     1      -8.453   7.756  71.587  1.00  0.00    -0.105 OA 
HETATM   11  O   UNL     1      -9.058   5.687  70.924  1.00  0.00    -0.141 OA 
ENDBRANCH   7   8
ENDBRANCH   2   7
TORSDOF 3
ENDMDL
MODEL      220
REMARK 921   NORMALIZED FREE ENERGY PREDICTED BY IDOCK:   -1.20 KCAL/MOL
REMARK 922        TOTAL FREE ENERGY PREDICTED BY IDOCK:   -1.67 KCAL/MOL
REMARK 923 INTER-LIGAND FREE ENERGY PREDICTED BY IDOCK:   -1.52 KCAL/MOL
REMARK 924 INTRA-LIGAND FREE ENERGY PREDICTED BY IDOCK:   -0.15 KCAL/MOL
REMARK 927      BINDING AFFINITY PREDICTED BY RF-SCORE:    0.00 PKD
ROOT
HETATM    1  N   UNL     1      -6.719   6.707  68.143  1.00  0.00    -0.065 NA 
HETATM    2  C   UNL     1      -8.174   6.736  68.259  1.00  0.00    -0.115 C  
HETATM    3  H1  UNL     1      -6.443   6.302  67.249  1.00  0.00     0.000 HD 
HETATM    4  H2  UNL     1      -6.285   6.224  68.930  1.00  0.00     0.000 HD 
ENDROOT
BRANCH   2   5
HETATM    5  C   UNL     1      -8.720   7.510  67.091  1.00  0.00    -0.121 C  
HETATM    6  C   UNL     1      -8.009   7.844  66.005  1.00  0.00    -0.103 C  
ENDBRANCH   2   5
BRANCH   2   7
HETATM    7  C   UNL     1      -8.589   7.346  69.607  1.00  0.00    -0.137 C  
BRANCH   7   8
HETATM    8  C   UNL     1      -9.777   6.616  70.243  1.00  0.00    -0.182 C  
HETATM    9  C   UNL     1     -11.053   7.412  70.118  1.00  0.00    -0.246 C  
HETATM   10  O   UNL     1     -11.152   8.513  69.603  1.00  0.00    -0.154 OA 
HETATM   11  O   UNL     1     -12.115   6.762  70.651  1.00  0.00    -0.392 OA 
ENDBRANCH   7   8
ENDBRANCH   2   7
TORSDOF 3
ENDMDL
MODEL      221
REMARK 921   NORMALIZED FREE ENERGY PREDICTED BY IDOCK:   -1.20 KCAL/MOL
REMARK 922        TOTAL FREE ENERGY PREDICTED BY IDOCK:   -1.66 KCAL/MOL
REMARK 923 INTER-LIGAND FREE ENERGY PREDICTED BY IDOCK:   -1.75 KCAL/MOL
REMARK 924 INTRA-LIGAND FREE ENERGY PREDICTED BY IDOCK:    0.09 KCAL/MOL
REMARK 927      BINDING AFFINITY PREDICTED BY RF-SCORE:    0.00 PKD
ROOT
HETATM    1  N   UNL     1     -12.389   6.727  70.001  1.00  0.00    -0.483 NA 
HETATM    2  C   UNL     1     -11.117   6.604  69.295  1.00  0.00    -0.289 C  
HETATM    3  H1  UNL     1     -13.015   7.353  69.496  1.00  0.00     0.000 HD 
HETATM    4  H2  UNL     1     -12.259   7.018  70.970  1.00  0.00     0.000 HD 
ENDROOT
BRANCH   2   5
HETATM    5  C   UNL     1     -11.401   6.121  67.901  1.00  0.00     0.113 C  
HETATM    6  C   UNL     1     -11.011   6.753  66.785  1.00  0.00    -0.248 C  
ENDBRANCH   2   5
BRANCH   2   7
HETATM    7  C   UNL     1     -10.173   5.660  70.058  1.00  0.00    -0.321 C  
BRANCH   7   8
HETATM    8  C   UNL     1      -8.773   6.252  70.245  1.00  0.00    -0.142 C  
HETATM    9  C   UNL     1      -8.815   7.563  70.991  1.00  0.00    -0.146 C  
HETATM   10  O   UNL     1      -9.826   8.120  71.386  1.00  0.00    -0.163 OA 
HETATM   11  O   UNL     1      -7.579   8.080  71.187  1.00  0.00    -0.074 OA 
ENDBRANCH   7   8
ENDBRANCH   2   7
TORSDOF 3
ENDMDL
MODEL      222
REMARK 921   NORMALIZED FREE ENERGY PREDICTED BY IDOCK:   -1.17 KCAL/MOL
REMARK 922        TOTAL FREE ENERGY PREDICTED BY IDOCK:   -1.63 KCAL/MOL
REMARK 923 INTER-LIGAND FREE ENERGY PREDICTED BY IDOCK:   -1.59 KCAL/MOL
REMARK 924 INTRA-LIGAND FREE ENERGY PREDICTED BY IDOCK:   -0.04 KCAL/MOL
REMARK 927      BINDING AFFINITY PREDICTED BY RF-SCORE:    0.00 PKD
ROOT
HETATM    1  N   UNL     1     -10.421   7.071  70.631  1.00  0.00    -0.208 NA 
HETATM    2  C   UNL     1      -8.970   7.228  70.579  1.00  0.00    -0.154 C  
HETATM    3  H1  UNL     1     -10.819   7.159  69.696  1.00  0.00     0.000 HD 
HETATM    4  H2  UNL     1     -10.850   7.720  71.290  1.00  0.00     0.000 HD 
ENDROOT
BRANCH   2   5
HETATM    5  C   UNL     1      -8.422   6.201  69.628  1.00  0.00    -0.127 C  
HETATM    6  C   UNL     1      -7.122   6.058  69.334  1.00  0.00    -0.066 C  
ENDBRANCH   2   5
BRANCH   2   7
HETATM    7  C   UNL     1      -8.370   7.096  71.988  1.00  0.00    -0.111 C  
BRANCH   7   8
HETATM    8  C   UNL     1      -9.029   5.982  72.807  1.00  0.00    -0.123 C  
HETATM    9  C   UNL     1     -10.165   6.506  73.651  1.00  0.00    -0.286 C  
HETATM   10  O   UNL     1     -10.520   7.672  73.714  1.00  0.00    -0.259 OA 
HETATM   11  O   UNL     1     -10.773   5.524  74.357  1.00  0.00    -0.252 OA 
ENDBRANCH   7   8
ENDBRANCH   2   7
TORSDOF 3
ENDMDL
MODEL      223
REMARK 921   NORMALIZED FREE ENERGY PREDICTED BY IDOCK:   -1.13 KCAL/MOL
REMARK 922        TOTAL FREE ENERGY PREDICTED BY IDOCK:   -1.58 KCAL/MOL
REMARK 923 INTER-LIGAND FREE ENERGY PREDICTED BY IDOCK:   -1.24 KCAL/MOL
REMARK 924 INTRA-LIGAND FREE ENERGY PREDICTED BY IDOCK:   -0.34 KCAL/MOL
REMARK 927      BINDING AFFINITY PREDICTED BY RF-SCORE:    0.00 PKD
ROOT
HETATM    1  N   UNL     1      -9.421   9.319  68.880  1.00  0.00    -0.152 NA 
HETATM    2  C   UNL     1      -8.664  10.530  68.578  1.00  0.00    -0.140 C  
HETATM    3  H1  UNL     1     -10.313   9.559  69.313  1.00  0.00     0.000 HD 
HETATM    4  H2  UNL     1      -8.884   8.667  69.451  1.00  0.00     0.000 HD 
ENDROOT
BRANCH   2   5
HETATM    5  C   UNL     1      -9.510  11.402  67.693  1.00  0.00    -0.165 C  
HETATM    6  C   UNL     1     -10.824  11.228  67.491  1.00  0.00    -0.292 C  
ENDBRANCH   2   5
BRANCH   2   7
HETATM    7  C   UNL     1      -7.320  10.169  67.925  1.00  0.00    -0.087 C  
BRANCH   7   8
HETATM    8  C   UNL     1      -7.370  10.238  66.395  1.00  0.00    -0.114 C  
HETATM    9  C   UNL     1      -7.627   8.883  65.782  1.00  0.00    -0.090 C  
HETATM   10  O   UNL     1      -7.756   7.840  66.402  1.00  0.00    -0.089 OA 
HETATM   11  O   UNL     1      -7.702   8.939  64.432  1.00  0.00    -0.109 OA 
ENDBRANCH   7   8
ENDBRANCH   2   7
TORSDOF 3
ENDMDL
MODEL      224
REMARK 921   NORMALIZED FREE ENERGY PREDICTED BY IDOCK:   -1.12 KCAL/MOL
REMARK 922        TOTAL FREE ENERGY PREDICTED BY IDOCK:   -1.57 KCAL/MOL
REMARK 923 INTER-LIGAND FREE ENERGY PREDICTED BY IDOCK:   -1.43 KCAL/MOL
REMARK 924 INTRA-LIGAND FREE ENERGY PREDICTED BY IDOCK:   -0.14 KCAL/MOL
REMARK 927      BINDING AFFINITY PREDICTED BY RF-SCORE:    0.00 PKD
ROOT
HETATM    1  N   UNL     1      -9.172   7.218  66.065  1.00  0.00    -0.361 NA 
HETATM    2  C   UNL     1      -8.020   7.183  65.168  1.00  0.00    -0.128 C  
HETATM    3  H1  UNL     1      -9.150   8.063  66.636  1.00  0.00     0.000 HD 
HETATM    4  H2  UNL     1      -9.234   6.375  66.636  1.00  0.00     0.000 HD 
ENDROOT
BRANCH   2   5
HETATM    5  C   UNL     1      -8.041   8.434  64.334  1.00  0.00    -0.158 C  
HETATM    6  C   UNL     1      -9.014   9.354  64.372  1.00  0.00    -0.215 C  
ENDBRANCH   2   5
BRANCH   2   7
HETATM    7  C   UNL     1      -8.053   5.909  64.309  1.00  0.00    -0.119 C  
BRANCH   7   8
HETATM    8  C   UNL     1      -8.962   4.825  64.897  1.00  0.00    -0.151 C  
HETATM    9  C   UNL     1      -8.167   3.749  65.597  1.00  0.00    -0.105 C  
HETATM   10  O   UNL     1      -6.951   3.708  65.677  1.00  0.00    -0.055 OA 
HETATM   11  O   UNL     1      -8.962   2.801  66.145  1.00  0.00    -0.139 OA 
ENDBRANCH   7   8
ENDBRANCH   2   7
TORSDOF 3
ENDMDL
MODEL      225
REMARK 921   NORMALIZED FREE ENERGY PREDICTED BY IDOCK:   -1.10 KCAL/MOL
REMARK 922        TOTAL FREE ENERGY PREDICTED BY IDOCK:   -1.54 KCAL/MOL
REMARK 923 INTER-LIGAND FREE ENERGY PREDICTED BY IDOCK:   -1.50 KCAL/MOL
REMARK 924 INTRA-LIGAND FREE ENERGY PREDICTED BY IDOCK:   -0.04 KCAL/MOL
REMARK 927      BINDING AFFINITY PREDICTED BY RF-SCORE:    0.00 PKD
ROOT
HETATM    1  N   UNL     1      -9.254   5.822  72.298  1.00  0.00    -0.145 NA 
HETATM    2  C   UNL     1      -8.816   6.533  71.100  1.00  0.00    -0.138 C  
HETATM    3  H1  UNL     1     -10.273   5.798  72.342  1.00  0.00     0.000 HD 
HETATM    4  H2  UNL     1      -8.846   6.217  73.145  1.00  0.00     0.000 HD 
ENDROOT
BRANCH   2   5
HETATM    5  C   UNL     1      -9.421   5.851  69.905  1.00  0.00    -0.180 C  
HETATM    6  C   UNL     1     -10.258   4.807  69.972  1.00  0.00    -0.251 C  
ENDBRANCH   2   5
BRANCH   2   7
HETATM    7  C   UNL     1      -7.281   6.569  71.034  1.00  0.00    -0.078 C  
BRANCH   7   8
HETATM    8  C   UNL     1      -6.650   7.148  72.305  1.00  0.00    -0.056 C  
HETATM    9  C   UNL     1      -6.686   8.657  72.310  1.00  0.00    -0.052 C  
HETATM   10  O   UNL     1      -7.132   9.356  71.415  1.00  0.00    -0.307 OA 
HETATM   11  O   UNL     1      -6.158   9.178  73.442  1.00  0.00    -0.295 OA 
ENDBRANCH   7   8
ENDBRANCH   2   7
TORSDOF 3
ENDMDL
MODEL      226
REMARK 921   NORMALIZED FREE ENERGY PREDICTED BY IDOCK:   -1.01 KCAL/MOL
REMARK 922        TOTAL FREE ENERGY PREDICTED BY IDOCK:   -1.44 KCAL/MOL
REMARK 923 INTER-LIGAND FREE ENERGY PREDICTED BY IDOCK:   -1.32 KCAL/MOL
REMARK 924 INTRA-LIGAND FREE ENERGY PREDICTED BY IDOCK:   -0.12 KCAL/MOL
REMARK 927      BINDING AFFINITY PREDICTED BY RF-SCORE:    0.00 PKD
ROOT
HETATM    1  N   UNL     1      -8.387   5.413  65.979  1.00  0.00    -0.116 NA 
HETATM    2  C   UNL     1      -8.956   6.757  65.980  1.00  0.00    -0.106 C  
HETATM    3  H1  UNL     1      -8.141   5.134  65.029  1.00  0.00     0.000 HD 
HETATM    4  H2  UNL     1      -9.007   4.737  66.425  1.00  0.00     0.000 HD 
ENDROOT
BRANCH   2   5
HETATM    5  C   UNL     1      -7.955   7.689  65.355  1.00  0.00    -0.123 C  
HETATM    6  C   UNL     1      -8.050   8.179  64.111  1.00  0.00    -0.128 C  
ENDBRANCH   2   5
BRANCH   2   7
HETATM    7  C   UNL     1      -9.327   7.177  67.412  1.00  0.00    -0.144 C  
BRANCH   7   8
HETATM    8  C   UNL     1      -9.005   8.648  67.696  1.00  0.00    -0.141 C  
HETATM    9  C   UNL     1      -9.655   9.125  68.972  1.00  0.00    -0.156 C  
HETATM   10  O   UNL     1     -10.374   8.454  69.693  1.00  0.00    -0.209 OA 
HETATM   11  O   UNL     1      -9.352  10.415  69.248  1.00  0.00    -0.195 OA 
ENDBRANCH   7   8
ENDBRANCH   2   7
TORSDOF 3
ENDMDL
MODEL      227
REMARK 921   NORMALIZED FREE ENERGY PREDICTED BY IDOCK:   -1.00 KCAL/MOL
REMARK 922        TOTAL FREE ENERGY PREDICTED BY IDOCK:   -1.43 KCAL/MOL
REMARK 923 INTER-LIGAND FREE ENERGY PREDICTED BY IDOCK:   -1.35 KCAL/MOL
REMARK 924 INTRA-LIGAND FREE ENERGY PREDICTED BY IDOCK:   -0.07 KCAL/MOL
REMARK 927      BINDING AFFINITY PREDICTED BY RF-SCORE:    0.00 PKD
ROOT
HETATM    1  N   UNL     1      -8.588   9.123  68.526  1.00  0.00    -0.128 NA 
HETATM    2  C   UNL     1      -7.598   8.115  68.895  1.00  0.00    -0.098 C  
HETATM    3  H1  UNL     1      -8.161  10.049  68.514  1.00  0.00     0.000 HD 
HETATM    4  H2  UNL     1      -9.408   9.090  69.131  1.00  0.00     0.000 HD 
ENDROOT
BRANCH   2   5
HETATM    5  C   UNL     1      -6.456   8.203  67.921  1.00  0.00    -0.053 C  
HETATM    6  C   UNL     1      -5.531   7.249  67.749  1.00  0.00    -0.025 C  
ENDBRANCH   2   5
BRANCH   2   7
HETATM    7  C   UNL     1      -8.241   6.719  68.912  1.00  0.00    -0.121 C  
BRANCH   7   8
HETATM    8  C   UNL     1      -9.128   6.464  67.689  1.00  0.00    -0.114 C  
HETATM    9  C   UNL     1     -10.595   6.538  68.037  1.00  0.00    -0.251 C  
HETATM   10  O   UNL     1     -11.048   6.748  69.150  1.00  0.00    -0.250 OA 
HETATM   11  O   UNL     1     -11.387   6.342  66.957  1.00  0.00    -0.314 OA 
ENDBRANCH   7   8
ENDBRANCH   2   7
TORSDOF 3
ENDMDL
MODEL      228
REMARK 921   NORMALIZED FREE ENERGY PREDICTED BY IDOCK:   -0.90 KCAL/MOL
REMARK 922        TOTAL FREE ENERGY PREDICTED BY IDOCK:   -1.32 KCAL/MOL
REMARK 923 INTER-LIGAND FREE ENERGY PREDICTED BY IDOCK:   -1.22 KCAL/MOL
REMARK 924 INTRA-LIGAND FREE ENERGY PREDICTED BY IDOCK:   -0.09 KCAL/MOL
REMARK 927      BINDING AFFINITY PREDICTED BY RF-SCORE:    0.00 PKD
ROOT
HETATM    1  N   UNL     1      -7.479   4.730  70.563  1.00  0.00    -0.056 NA 
HETATM    2  C   UNL     1      -8.770   5.413  70.539  1.00  0.00    -0.123 C  
HETATM    3  H1  UNL     1      -7.272   4.401  71.506  1.00  0.00     0.000 HD 
HETATM    4  H2  UNL     1      -6.732   5.316  70.191  1.00  0.00     0.000 HD 
ENDROOT
BRANCH   2   5
HETATM    5  C   UNL     1      -9.813   4.460  71.052  1.00  0.00    -0.260 C  
HETATM    6  C   UNL     1      -9.615   3.147  71.234  1.00  0.00    -0.229 C  
ENDBRANCH   2   5
BRANCH   2   7
HETATM    7  C   UNL     1      -9.083   5.909  69.118  1.00  0.00    -0.125 C  
BRANCH   7   8
HETATM    8  C   UNL     1      -8.837   7.412  68.952  1.00  0.00    -0.131 C  
HETATM    9  C   UNL     1      -7.965   7.707  67.756  1.00  0.00    -0.121 C  
HETATM   10  O   UNL     1      -7.480   6.871  67.011  1.00  0.00    -0.083 OA 
HETATM   11  O   UNL     1      -7.765   9.034  67.583  1.00  0.00    -0.095 OA 
ENDBRANCH   7   8
ENDBRANCH   2   7
TORSDOF 3
ENDMDL
MODEL      229
REMARK 921   NORMALIZED FREE ENERGY PREDICTED BY IDOCK:   -0.82 KCAL/MOL
REMARK 922        TOTAL FREE ENERGY PREDICTED BY IDOCK:   -1.21 KCAL/MOL
REMARK 923 INTER-LIGAND FREE ENERGY PREDICTED BY IDOCK:   -1.01 KCAL/MOL
REMARK 924 INTRA-LIGAND FREE ENERGY PREDICTED BY IDOCK:   -0.21 KCAL/MOL
REMARK 927      BINDING AFFINITY PREDICTED BY RF-SCORE:    0.00 PKD
ROOT
HETATM    1  N   UNL     1      -9.313   5.901  72.289  1.00  0.00    -0.145 NA 
HETATM    2  C   UNL     1      -9.001   6.823  71.200  1.00  0.00    -0.147 C  
HETATM    3  H1  UNL     1     -10.321   5.864  72.442  1.00  0.00     0.000 HD 
HETATM    4  H2  UNL     1      -8.807   6.136  73.142  1.00  0.00     0.000 HD 
ENDROOT
BRANCH   2   5
HETATM    5  C   UNL     1      -9.747   6.370  69.976  1.00  0.00    -0.183 C  
HETATM    6  C   UNL     1     -10.676   5.404  69.969  1.00  0.00    -0.296 C  
ENDBRANCH   2   5
BRANCH   2   7
HETATM    7  C   UNL     1      -7.483   6.880  70.969  1.00  0.00    -0.083 C  
BRANCH   7   8
HETATM    8  C   UNL     1      -7.068   6.264  69.629  1.00  0.00    -0.073 C  
HETATM    9  C   UNL     1      -6.463   4.893  69.807  1.00  0.00    -0.035 C  
HETATM   10  O   UNL     1      -6.290   4.329  70.875  1.00  0.00    -0.017 OA 
HETATM   11  O   UNL     1      -6.120   4.328  68.626  1.00  0.00    -0.029 OA 
ENDBRANCH   7   8
ENDBRANCH   2   7
TORSDOF 3
ENDMDL
