MODEL        1
REMARK 921   NORMALIZED FREE ENERGY PREDICTED BY IDOCK:   -7.92 KCAL/MOL
REMARK 922        TOTAL FREE ENERGY PREDICTED BY IDOCK:  -12.43 KCAL/MOL
REMARK 923 INTER-LIGAND FREE ENERGY PREDICTED BY IDOCK:  -11.16 KCAL/MOL
REMARK 924 INTRA-LIGAND FREE ENERGY PREDICTED BY IDOCK:   -1.28 KCAL/MOL
REMARK 927      BINDING AFFINITY PREDICTED BY RF-SCORE:    0.00 PKD
ROOT
HETATM    1  N   UNL     1      -9.015  20.340  65.894  1.00  0.00    -0.559 N  
HETATM    2  C   UNL     1      -9.666  19.663  66.886  1.00  0.00    -0.369 C  
HETATM    3  H1  UNL     1      -8.673  19.842  65.072  1.00  0.00     0.000 HD 
HETATM    4  H2  UNL     1      -8.870  21.346  65.976  1.00  0.00     0.000 HD 
HETATM    5  O   UNL     1     -10.078  20.262  67.875  1.00  0.00    -0.396 OA 
ENDROOT
BRANCH   2   6
HETATM    6  C   UNL     1      -9.833  18.249  66.656  1.00  0.00    -0.352 A  
HETATM    7  C   UNL     1      -9.431  17.164  67.411  1.00  0.00    -0.247 A  
HETATM    8  C   UNL     1      -9.893  16.005  66.744  1.00  0.00    -0.260 A  
HETATM    9  C   UNL     1      -9.843  14.621  66.989  1.00  0.00    -0.244 A  
HETATM   10  C   UNL     1     -10.415  13.707  66.083  1.00  0.00    -0.297 A  
HETATM   11  C   UNL     1     -11.031  14.236  64.932  1.00  0.00    -0.413 A  
HETATM   12  O   UNL     1     -10.500  17.812  65.537  1.00  0.00    -0.646 OA 
HETATM   13  C   UNL     1     -10.530  16.453  65.598  1.00  0.00    -0.347 A  
HETATM   14  C   UNL     1     -11.110  15.611  64.661  1.00  0.00    -0.387 A  
BRANCH  10  15
HETATM   15  N   UNL     1     -10.344  12.346  66.302  1.00  0.00    -0.240 NA 
HETATM   16  C   UNL     1     -10.976  11.369  65.404  1.00  0.00    -0.184 C  
HETATM   17  N   UNL     1      -9.415   9.559  66.277  1.00  0.00    -0.192 NA 
HETATM   18  C   UNL     1      -9.976  10.237  65.080  1.00  0.00    -0.323 C  
HETATM   19  C   UNL     1      -9.721  11.779  67.511  1.00  0.00    -0.180 C  
HETATM   20  C   UNL     1      -8.791  10.602  67.128  1.00  0.00    -0.137 C  
BRANCH  17  21
HETATM   21  C   UNL     1     -10.436   8.812  67.028  1.00  0.00    -0.268 C  
BRANCH  21  22
HETATM   22  C   UNL     1     -10.193   7.296  67.033  1.00  0.00    -0.348 C  
BRANCH  22  23
HETATM   23  C   UNL     1     -10.792   6.578  68.245  1.00  0.00    -0.359 C  
BRANCH  23  24
HETATM   24  C   UNL     1     -10.157   7.052  69.551  1.00  0.00    -0.179 C  
BRANCH  24  25
HETATM   25  C   UNL     1     -11.171   7.358  70.598  1.00  0.00    -0.292 A  
HETATM   26  C   UNL     1     -11.761   6.452  71.457  1.00  0.00    -0.313 A  
HETATM   27  N   UNL     1     -12.652   7.130  72.242  1.00  0.00    -0.520 NA 
HETATM   28  H   UNL     1     -13.230   6.705  72.966  1.00  0.00     0.000 HD 
HETATM   29  C   UNL     1     -12.657   8.466  71.915  1.00  0.00    -0.349 A  
HETATM   30  C   UNL     1     -11.730   8.642  70.892  1.00  0.00    -0.287 A  
HETATM   31  C   UNL     1     -11.530   9.942  70.371  1.00  0.00    -0.372 A  
HETATM   32  C   UNL     1     -12.275  11.011  70.885  1.00  0.00    -0.471 A  
HETATM   33  C   UNL     1     -13.202  10.797  71.909  1.00  0.00    -0.524 A  
HETATM   34  C   UNL     1     -12.084  12.331  70.354  1.00  0.00    -0.300 C  
HETATM   35  N   UNL     1     -11.938  13.401  69.927  1.00  0.00    -0.334 NA 
HETATM   36  C   UNL     1     -13.409   9.521  72.445  1.00  0.00    -0.469 A  
ENDBRANCH  24  25
ENDBRANCH  23  24
ENDBRANCH  22  23
ENDBRANCH  21  22
ENDBRANCH  17  21
ENDBRANCH  10  15
ENDBRANCH   2   6
TORSDOF 7
ENDMDL
MODEL        2
REMARK 921   NORMALIZED FREE ENERGY PREDICTED BY IDOCK:   -7.90 KCAL/MOL
REMARK 922        TOTAL FREE ENERGY PREDICTED BY IDOCK:  -12.42 KCAL/MOL
REMARK 923 INTER-LIGAND FREE ENERGY PREDICTED BY IDOCK:  -10.84 KCAL/MOL
REMARK 924 INTRA-LIGAND FREE ENERGY PREDICTED BY IDOCK:   -1.57 KCAL/MOL
REMARK 927      BINDING AFFINITY PREDICTED BY RF-SCORE:    0.00 PKD
ROOT
HETATM    1  N   UNL     1      -8.136  20.162  65.880  1.00  0.00    -0.538 N  
HETATM    2  C   UNL     1      -9.361  19.667  66.222  1.00  0.00    -0.383 C  
HETATM    3  H1  UNL     1      -7.370  19.527  65.657  1.00  0.00     0.000 HD 
HETATM    4  H2  UNL     1      -7.986  21.170  65.847  1.00  0.00     0.000 HD 
HETATM    5  O   UNL     1     -10.283  20.431  66.490  1.00  0.00    -0.405 OA 
ENDROOT
BRANCH   2   6
HETATM    6  C   UNL     1      -9.465  18.228  66.216  1.00  0.00    -0.230 A  
HETATM    7  C   UNL     1      -8.746  17.275  66.912  1.00  0.00    -0.261 A  
HETATM    8  C   UNL     1      -9.291  16.016  66.565  1.00  0.00    -0.296 A  
HETATM    9  C   UNL     1      -9.040  14.681  66.930  1.00  0.00    -0.272 A  
HETATM   10  C   UNL     1      -9.787  13.627  66.367  1.00  0.00    -0.296 A  
HETATM   11  C   UNL     1     -10.783  13.967  65.432  1.00  0.00    -0.330 A  
HETATM   12  O   UNL     1     -10.411  17.614  65.433  1.00  0.00    -0.648 OA 
HETATM   13  C   UNL     1     -10.298  16.275  65.649  1.00  0.00    -0.363 A  
HETATM   14  C   UNL     1     -11.069  15.288  65.053  1.00  0.00    -0.436 A  
BRANCH  10  15
HETATM   15  N   UNL     1      -9.528  12.313  66.699  1.00  0.00    -0.221 NA 
HETATM   16  C   UNL     1      -9.963  11.186  65.860  1.00  0.00    -0.239 C  
HETATM   17  N   UNL     1      -8.198   9.703  66.936  1.00  0.00    -0.113 NA 
HETATM   18  C   UNL     1      -8.793  10.198  65.667  1.00  0.00    -0.165 C  
HETATM   19  C   UNL     1      -8.889  11.938  67.973  1.00  0.00    -0.177 C  
HETATM   20  C   UNL     1      -7.777  10.889  67.723  1.00  0.00    -0.107 C  
BRANCH  17  21
HETATM   21  C   UNL     1      -9.134   8.869  67.706  1.00  0.00    -0.134 C  
BRANCH  21  22
HETATM   22  C   UNL     1      -8.660   8.601  69.142  1.00  0.00    -0.129 C  
BRANCH  22  23
HETATM   23  C   UNL     1      -9.754   8.789  70.197  1.00  0.00    -0.188 C  
BRANCH  23  24
HETATM   24  C   UNL     1     -11.022   9.390  69.594  1.00  0.00    -0.216 C  
BRANCH  24  25
HETATM   25  C   UNL     1     -11.905  10.007  70.622  1.00  0.00    -0.411 A  
HETATM   26  C   UNL     1     -12.581   9.341  71.626  1.00  0.00    -0.365 A  
HETATM   27  N   UNL     1     -13.297  10.263  72.337  1.00  0.00    -0.573 NA 
HETATM   28  H   UNL     1     -13.892  10.047  73.137  1.00  0.00     0.000 HD 
HETATM   29  C   UNL     1     -13.103  11.523  71.821  1.00  0.00    -0.398 A  
HETATM   30  C   UNL     1     -12.225  11.395  70.748  1.00  0.00    -0.475 A  
HETATM   31  C   UNL     1     -11.846  12.558  70.037  1.00  0.00    -0.363 A  
HETATM   32  C   UNL     1     -12.372  13.799  70.418  1.00  0.00    -0.423 A  
HETATM   33  C   UNL     1     -13.256  13.890  71.496  1.00  0.00    -0.425 A  
HETATM   34  C   UNL     1     -12.000  14.982  69.694  1.00  0.00    -0.321 C  
HETATM   35  N   UNL     1     -11.706  15.942  69.111  1.00  0.00    -0.380 NA 
HETATM   36  C   UNL     1     -13.637  12.753  72.220  1.00  0.00    -0.563 A  
ENDBRANCH  24  25
ENDBRANCH  23  24
ENDBRANCH  22  23
ENDBRANCH  21  22
ENDBRANCH  17  21
ENDBRANCH  10  15
ENDBRANCH   2   6
TORSDOF 7
ENDMDL
MODEL        3
REMARK 921   NORMALIZED FREE ENERGY PREDICTED BY IDOCK:   -7.90 KCAL/MOL
REMARK 922        TOTAL FREE ENERGY PREDICTED BY IDOCK:  -12.42 KCAL/MOL
REMARK 923 INTER-LIGAND FREE ENERGY PREDICTED BY IDOCK:  -10.83 KCAL/MOL
REMARK 924 INTRA-LIGAND FREE ENERGY PREDICTED BY IDOCK:   -1.58 KCAL/MOL
REMARK 927      BINDING AFFINITY PREDICTED BY RF-SCORE:    0.00 PKD
ROOT
HETATM    1  N   UNL     1     -13.869  16.181  73.704  1.00  0.00    -0.755 N  
HETATM    2  C   UNL     1     -12.719  15.469  73.513  1.00  0.00    -0.553 C  
HETATM    3  H1  UNL     1     -14.421  16.489  72.904  1.00  0.00     0.000 HD 
HETATM    4  H2  UNL     1     -14.177  16.405  74.650  1.00  0.00     0.000 HD 
HETATM    5  O   UNL     1     -12.056  15.098  74.477  1.00  0.00    -0.566 OA 
ENDROOT
BRANCH   2   6
HETATM    6  C   UNL     1     -12.391  15.192  72.136  1.00  0.00    -0.358 A  
HETATM    7  C   UNL     1     -12.492  14.021  71.409  1.00  0.00    -0.438 A  
HETATM    8  C   UNL     1     -12.076  14.319  70.090  1.00  0.00    -0.403 A  
HETATM    9  C   UNL     1     -11.966  13.600  68.887  1.00  0.00    -0.392 A  
HETATM   10  C   UNL     1     -11.488  14.220  67.717  1.00  0.00    -0.329 A  
HETATM   11  C   UNL     1     -11.126  15.577  67.805  1.00  0.00    -0.315 A  
HETATM   12  O   UNL     1     -11.904  16.194  71.334  1.00  0.00    -0.441 OA 
HETATM   13  C   UNL     1     -11.715  15.657  70.098  1.00  0.00    -0.360 A  
HETATM   14  C   UNL     1     -11.232  16.330  68.985  1.00  0.00    -0.326 A  
BRANCH  10  15
HETATM   15  N   UNL     1     -11.352  13.512  66.539  1.00  0.00    -0.311 NA 
HETATM   16  C   UNL     1     -12.508  12.988  65.796  1.00  0.00    -0.329 C  
HETATM   17  N   UNL     1     -11.094  12.867  63.684  1.00  0.00    -0.388 NA 
HETATM   18  C   UNL     1     -12.364  13.334  64.298  1.00  0.00    -0.340 C  
HETATM   19  C   UNL     1     -10.034  13.140  65.997  1.00  0.00    -0.280 C  
HETATM   20  C   UNL     1      -9.978  13.439  64.479  1.00  0.00    -0.048 C  
BRANCH  17  21
HETATM   21  C   UNL     1     -11.001  11.399  63.634  1.00  0.00    -0.363 C  
BRANCH  21  22
HETATM   22  C   UNL     1      -9.574  10.894  63.381  1.00  0.00    -0.364 C  
BRANCH  22  23
HETATM   23  C   UNL     1      -9.128   9.795  64.350  1.00  0.00    -0.296 C  
BRANCH  23  24
HETATM   24  C   UNL     1      -9.994   9.768  65.608  1.00  0.00    -0.352 C  
BRANCH  24  25
HETATM   25  C   UNL     1      -9.217   9.408  66.826  1.00  0.00    -0.179 A  
HETATM   26  C   UNL     1      -7.917   8.943  66.859  1.00  0.00    -0.101 A  
HETATM   27  N   UNL     1      -7.585   8.707  68.164  1.00  0.00    -0.096 NA 
HETATM   28  H   UNL     1      -6.681   8.356  68.481  1.00  0.00     0.000 HD 
HETATM   29  C   UNL     1      -8.642   9.010  68.990  1.00  0.00    -0.134 A  
HETATM   30  C   UNL     1      -9.679   9.462  68.178  1.00  0.00    -0.164 A  
HETATM   31  C   UNL     1     -10.895   9.854  68.784  1.00  0.00    -0.240 A  
HETATM   32  C   UNL     1     -11.031   9.764  70.176  1.00  0.00    -0.339 A  
HETATM   33  C   UNL     1      -9.972   9.300  70.959  1.00  0.00    -0.364 A  
HETATM   34  C   UNL     1     -12.267  10.151  70.796  1.00  0.00    -0.338 C  
HETATM   35  N   UNL     1     -13.265  10.458  71.305  1.00  0.00    -0.368 NA 
HETATM   36  C   UNL     1      -8.756   8.916  70.381  1.00  0.00    -0.200 A  
ENDBRANCH  24  25
ENDBRANCH  23  24
ENDBRANCH  22  23
ENDBRANCH  21  22
ENDBRANCH  17  21
ENDBRANCH  10  15
ENDBRANCH   2   6
TORSDOF 7
ENDMDL
MODEL        4
REMARK 921   NORMALIZED FREE ENERGY PREDICTED BY IDOCK:   -7.77 KCAL/MOL
REMARK 922        TOTAL FREE ENERGY PREDICTED BY IDOCK:  -12.23 KCAL/MOL
REMARK 923 INTER-LIGAND FREE ENERGY PREDICTED BY IDOCK:  -10.56 KCAL/MOL
REMARK 924 INTRA-LIGAND FREE ENERGY PREDICTED BY IDOCK:   -1.68 KCAL/MOL
REMARK 927      BINDING AFFINITY PREDICTED BY RF-SCORE:    0.00 PKD
ROOT
HETATM    1  N   UNL     1     -12.486  14.801  63.732  1.00  0.00    -1.063 N  
HETATM    2  C   UNL     1     -11.611  15.098  64.738  1.00  0.00    -0.364 C  
HETATM    3  H1  UNL     1     -13.122  14.010  63.823  1.00  0.00     0.000 HD 
HETATM    4  H2  UNL     1     -12.502  15.373  62.888  1.00  0.00     0.000 HD 
HETATM    5  O   UNL     1     -10.845  16.051  64.629  1.00  0.00    -0.608 OA 
ENDROOT
BRANCH   2   6
HETATM    6  C   UNL     1     -11.689  14.237  65.893  1.00  0.00    -0.372 A  
HETATM    7  C   UNL     1     -11.626  12.861  65.990  1.00  0.00    -0.424 A  
HETATM    8  C   UNL     1     -11.710  12.542  67.366  1.00  0.00    -0.432 A  
HETATM    9  C   UNL     1     -11.682  11.357  68.124  1.00  0.00    -0.355 A  
HETATM   10  C   UNL     1     -11.805  11.396  69.527  1.00  0.00    -0.357 A  
HETATM   11  C   UNL     1     -11.958  12.659  70.129  1.00  0.00    -0.375 A  
HETATM   12  O   UNL     1     -11.835  14.783  67.144  1.00  0.00    -0.374 OA 
HETATM   13  C   UNL     1     -11.849  13.750  68.030  1.00  0.00    -0.373 A  
HETATM   14  C   UNL     1     -11.980  13.862  69.406  1.00  0.00    -0.402 A  
BRANCH  10  15
HETATM   15  N   UNL     1     -11.806  10.235  70.274  1.00  0.00    -0.280 NA 
HETATM   16  C   UNL     1     -10.600   9.414  70.457  1.00  0.00    -0.271 C  
HETATM   17  N   UNL     1     -11.624   8.376  72.542  1.00  0.00    -0.381 NA 
HETATM   18  C   UNL     1     -10.440   9.049  71.950  1.00  0.00    -0.303 C  
HETATM   19  C   UNL     1     -13.040   9.679  70.855  1.00  0.00    -0.165 C  
HETATM   20  C   UNL     1     -12.795   9.262  72.327  1.00  0.00    -0.384 C  
BRANCH  17  21
HETATM   21  C   UNL     1     -11.862   7.044  71.961  1.00  0.00    -0.298 C  
BRANCH  21  22
HETATM   22  C   UNL     1     -10.597   6.176  71.905  1.00  0.00    -0.263 C  
BRANCH  22  23
HETATM   23  C   UNL     1     -10.438   5.400  70.596  1.00  0.00    -0.329 C  
BRANCH  23  24
HETATM   24  C   UNL     1      -9.299   5.957  69.744  1.00  0.00    -0.171 C  
BRANCH  24  25
HETATM   25  C   UNL     1      -9.790   6.664  68.529  1.00  0.00    -0.139 A  
HETATM   26  C   UNL     1     -10.923   6.354  67.803  1.00  0.00    -0.332 A  
HETATM   27  N   UNL     1     -11.004   7.224  66.752  1.00  0.00    -0.545 NA 
HETATM   28  H   UNL     1     -11.744   7.222  66.050  1.00  0.00     0.000 HD 
HETATM   29  C   UNL     1      -9.945   8.101  66.774  1.00  0.00    -0.279 A  
HETATM   30  C   UNL     1      -9.170   7.781  67.885  1.00  0.00    -0.141 A  
HETATM   31  C   UNL     1      -8.010   8.547  68.149  1.00  0.00    -0.111 A  
HETATM   32  C   UNL     1      -7.664   9.592  67.283  1.00  0.00    -0.091 A  
HETATM   33  C   UNL     1      -8.462   9.882  66.174  1.00  0.00    -0.130 A  
HETATM   34  C   UNL     1      -6.483  10.367  67.540  1.00  0.00    -0.058 C  
HETATM   35  N   UNL     1      -5.527  10.995  67.739  1.00  0.00    -0.039 NA 
HETATM   36  C   UNL     1      -9.619   9.144  65.899  1.00  0.00    -0.343 A  
ENDBRANCH  24  25
ENDBRANCH  23  24
ENDBRANCH  22  23
ENDBRANCH  21  22
ENDBRANCH  17  21
ENDBRANCH  10  15
ENDBRANCH   2   6
TORSDOF 7
ENDMDL
MODEL        5
REMARK 921   NORMALIZED FREE ENERGY PREDICTED BY IDOCK:   -7.39 KCAL/MOL
REMARK 922        TOTAL FREE ENERGY PREDICTED BY IDOCK:  -11.69 KCAL/MOL
REMARK 923 INTER-LIGAND FREE ENERGY PREDICTED BY IDOCK:  -11.03 KCAL/MOL
REMARK 924 INTRA-LIGAND FREE ENERGY PREDICTED BY IDOCK:   -0.66 KCAL/MOL
REMARK 927      BINDING AFFINITY PREDICTED BY RF-SCORE:    0.00 PKD
ROOT
HETATM    1  N   UNL     1     -11.612   5.338  73.089  1.00  0.00    -0.522 N  
HETATM    2  C   UNL     1     -10.895   6.432  73.482  1.00  0.00    -0.174 C  
HETATM    3  H1  UNL     1     -12.165   5.367  72.233  1.00  0.00     0.000 HD 
HETATM    4  H2  UNL     1     -11.594   4.489  73.654  1.00  0.00     0.000 HD 
HETATM    5  O   UNL     1     -10.229   6.396  74.512  1.00  0.00    -0.342 OA 
ENDROOT
BRANCH   2   6
HETATM    6  C   UNL     1     -10.976   7.568  72.597  1.00  0.00    -0.336 A  
HETATM    7  C   UNL     1     -10.165   7.943  71.543  1.00  0.00    -0.232 A  
HETATM    8  C   UNL     1     -10.727   9.118  70.990  1.00  0.00    -0.363 A  
HETATM    9  C   UNL     1     -10.414   9.968  69.915  1.00  0.00    -0.317 A  
HETATM   10  C   UNL     1     -11.205  11.100  69.636  1.00  0.00    -0.264 A  
HETATM   11  C   UNL     1     -12.309  11.340  70.475  1.00  0.00    -0.446 A  
HETATM   12  O   UNL     1     -11.998   8.474  72.739  1.00  0.00    -0.335 OA 
HETATM   13  C   UNL     1     -11.839   9.410  71.764  1.00  0.00    -0.382 A  
HETATM   14  C   UNL     1     -12.658  10.508  71.550  1.00  0.00    -0.529 A  
BRANCH  10  15
HETATM   15  N   UNL     1     -10.887  11.954  68.599  1.00  0.00    -0.226 NA 
HETATM   16  C   UNL     1     -10.004  11.557  67.492  1.00  0.00    -0.190 C  
HETATM   17  N   UNL     1     -10.991  13.402  66.045  1.00  0.00    -0.272 NA 
HETATM   18  C   UNL     1     -10.644  11.961  66.146  1.00  0.00    -0.258 C  
HETATM   19  C   UNL     1     -11.326  13.360  68.581  1.00  0.00    -0.286 C  
HETATM   20  C   UNL     1     -11.885  13.726  67.184  1.00  0.00    -0.406 C  
BRANCH  17  21
HETATM   21  C   UNL     1      -9.801  14.268  66.051  1.00  0.00    -0.314 C  
BRANCH  21  22
HETATM   22  C   UNL     1     -10.137  15.757  65.886  1.00  0.00    -0.381 C  
BRANCH  22  23
HETATM   23  C   UNL     1      -8.990  16.695  66.271  1.00  0.00    -0.340 C  
BRANCH  23  24
HETATM   24  C   UNL     1      -9.488  17.893  67.077  1.00  0.00    -0.272 C  
BRANCH  24  25
HETATM   25  C   UNL     1      -8.574  19.064  66.978  1.00  0.00    -0.308 A  
HETATM   26  C   UNL     1      -8.548  19.999  65.961  1.00  0.00    -0.204 A  
HETATM   27  N   UNL     1      -7.550  20.892  66.232  1.00  0.00    -0.445 NA 
HETATM   28  H   UNL     1      -7.307  21.689  65.645  1.00  0.00     0.000 HD 
HETATM   29  C   UNL     1      -6.920  20.564  67.410  1.00  0.00    -0.316 A  
HETATM   30  C   UNL     1      -7.548  19.425  67.907  1.00  0.00    -0.316 A  
HETATM   31  C   UNL     1      -7.094  18.877  69.129  1.00  0.00    -0.303 A  
HETATM   32  C   UNL     1      -6.022  19.481  69.798  1.00  0.00    -0.311 A  
HETATM   33  C   UNL     1      -5.411  20.620  69.268  1.00  0.00    -0.386 A  
HETATM   34  C   UNL     1      -5.550  18.924  71.034  1.00  0.00    -0.138 C  
HETATM   35  N   UNL     1      -5.160  18.477  72.033  1.00  0.00    -0.728 NA 
HETATM   36  C   UNL     1      -5.850  21.185  68.064  1.00  0.00    -0.392 A  
ENDBRANCH  24  25
ENDBRANCH  23  24
ENDBRANCH  22  23
ENDBRANCH  21  22
ENDBRANCH  17  21
ENDBRANCH  10  15
ENDBRANCH   2   6
TORSDOF 7
ENDMDL
MODEL        6
REMARK 921   NORMALIZED FREE ENERGY PREDICTED BY IDOCK:   -7.29 KCAL/MOL
REMARK 922        TOTAL FREE ENERGY PREDICTED BY IDOCK:  -11.56 KCAL/MOL
REMARK 923 INTER-LIGAND FREE ENERGY PREDICTED BY IDOCK:  -10.26 KCAL/MOL
REMARK 924 INTRA-LIGAND FREE ENERGY PREDICTED BY IDOCK:   -1.30 KCAL/MOL
REMARK 927      BINDING AFFINITY PREDICTED BY RF-SCORE:    0.00 PKD
ROOT
HETATM    1  N   UNL     1     -10.279   3.829  71.882  1.00  0.00    -0.115 N  
HETATM    2  C   UNL     1     -10.743   5.076  72.191  1.00  0.00    -0.159 C  
HETATM    3  H1  UNL     1      -9.960   3.621  70.936  1.00  0.00     0.000 HD 
HETATM    4  H2  UNL     1     -10.252   3.104  72.598  1.00  0.00     0.000 HD 
HETATM    5  O   UNL     1     -11.127   5.326  73.330  1.00  0.00    -0.289 OA 
ENDROOT
BRANCH   2   6
HETATM    6  C   UNL     1     -10.717   6.027  71.107  1.00  0.00    -0.264 A  
HETATM    7  C   UNL     1     -10.649   7.407  71.127  1.00  0.00    -0.235 A  
HETATM    8  C   UNL     1     -10.607   7.836  69.780  1.00  0.00    -0.241 A  
HETATM    9  C   UNL     1     -10.513   9.077  69.126  1.00  0.00    -0.239 A  
HETATM   10  C   UNL     1     -10.507   9.153  67.719  1.00  0.00    -0.247 A  
HETATM   11  C   UNL     1     -10.601   7.943  67.006  1.00  0.00    -0.381 A  
HETATM   12  O   UNL     1     -10.747   5.584  69.808  1.00  0.00    -0.322 OA 
HETATM   13  C   UNL     1     -10.682   6.686  69.011  1.00  0.00    -0.259 A  
HETATM   14  C   UNL     1     -10.685   6.686  67.624  1.00  0.00    -0.373 A  
BRANCH  10  15
HETATM   15  N   UNL     1     -10.442  10.370  67.071  1.00  0.00    -0.243 NA 
HETATM   16  C   UNL     1      -9.373  10.699  66.116  1.00  0.00    -0.177 C  
HETATM   17  N   UNL     1     -10.846  12.502  65.090  1.00  0.00    -0.280 NA 
HETATM   18  C   UNL     1      -9.987  11.316  64.840  1.00  0.00    -0.274 C  
HETATM   19  C   UNL     1     -11.380  11.466  67.368  1.00  0.00    -0.288 C  
HETATM   20  C   UNL     1     -11.901  12.094  66.051  1.00  0.00    -0.257 C  
BRANCH  17  21
HETATM   21  C   UNL     1     -10.083  13.649  65.607  1.00  0.00    -0.284 C  
BRANCH  21  22
HETATM   22  C   UNL     1     -10.968  14.855  65.953  1.00  0.00    -0.338 C  
BRANCH  22  23
HETATM   23  C   UNL     1     -10.572  15.558  67.254  1.00  0.00    -0.299 C  
BRANCH  23  24
HETATM   24  C   UNL     1     -10.403  14.564  68.402  1.00  0.00    -0.241 C  
BRANCH  24  25
HETATM   25  C   UNL     1     -11.175  14.957  69.613  1.00  0.00    -0.300 A  
HETATM   26  C   UNL     1     -11.314  16.236  70.116  1.00  0.00    -0.282 A  
HETATM   27  N   UNL     1     -12.075  16.165  71.249  1.00  0.00    -0.596 NA 
HETATM   28  H   UNL     1     -12.334  16.964  71.827  1.00  0.00     0.000 HD 
HETATM   29  C   UNL     1     -12.440  14.863  71.500  1.00  0.00    -0.331 A  
HETATM   30  C   UNL     1     -11.897  14.082  70.484  1.00  0.00    -0.339 A  
HETATM   31  C   UNL     1     -12.134  12.688  70.498  1.00  0.00    -0.360 A  
HETATM   32  C   UNL     1     -12.891  12.129  71.536  1.00  0.00    -0.394 A  
HETATM   33  C   UNL     1     -13.416  12.942  72.543  1.00  0.00    -0.456 A  
HETATM   34  C   UNL     1     -13.126  10.713  71.561  1.00  0.00    -0.424 C  
HETATM   35  N   UNL     1     -13.318   9.567  71.591  1.00  0.00    -0.391 NA 
HETATM   36  C   UNL     1     -13.202  14.326  72.543  1.00  0.00    -0.581 A  
ENDBRANCH  24  25
ENDBRANCH  23  24
ENDBRANCH  22  23
ENDBRANCH  21  22
ENDBRANCH  17  21
ENDBRANCH  10  15
ENDBRANCH   2   6
TORSDOF 7
ENDMDL
MODEL        7
REMARK 921   NORMALIZED FREE ENERGY PREDICTED BY IDOCK:   -7.28 KCAL/MOL
REMARK 922        TOTAL FREE ENERGY PREDICTED BY IDOCK:  -11.54 KCAL/MOL
REMARK 923 INTER-LIGAND FREE ENERGY PREDICTED BY IDOCK:   -9.88 KCAL/MOL
REMARK 924 INTRA-LIGAND FREE ENERGY PREDICTED BY IDOCK:   -1.66 KCAL/MOL
REMARK 927      BINDING AFFINITY PREDICTED BY RF-SCORE:    0.00 PKD
ROOT
HETATM    1  N   UNL     1     -11.712  15.611  63.955  1.00  0.00    -0.945 N  
HETATM    2  C   UNL     1     -11.063  15.878  65.127  1.00  0.00    -0.311 C  
HETATM    3  H1  UNL     1     -12.291  14.776  63.869  1.00  0.00     0.000 HD 
HETATM    4  H2  UNL     1     -11.618  16.249  63.165  1.00  0.00     0.000 HD 
HETATM    5  O   UNL     1     -10.366  16.883  65.231  1.00  0.00    -0.624 OA 
ENDROOT
BRANCH   2   6
HETATM    6  C   UNL     1     -11.285  14.921  66.183  1.00  0.00    -0.325 A  
HETATM    7  C   UNL     1     -11.310  13.540  66.151  1.00  0.00    -0.325 A  
HETATM    8  C   UNL     1     -11.525  13.102  67.479  1.00  0.00    -0.371 A  
HETATM    9  C   UNL     1     -11.627  11.853  68.118  1.00  0.00    -0.400 A  
HETATM   10  C   UNL     1     -11.863  11.769  69.504  1.00  0.00    -0.337 A  
HETATM   11  C   UNL     1     -11.992  12.979  70.212  1.00  0.00    -0.360 A  
HETATM   12  O   UNL     1     -11.502  15.358  67.467  1.00  0.00    -0.318 OA 
HETATM   13  C   UNL     1     -11.648  14.250  68.244  1.00  0.00    -0.324 A  
HETATM   14  C   UNL     1     -11.885  14.242  69.610  1.00  0.00    -0.370 A  
BRANCH  10  15
HETATM   15  N   UNL     1     -11.992  10.547  70.133  1.00  0.00    -0.302 NA 
HETATM   16  C   UNL     1     -10.912   9.549  70.146  1.00  0.00    -0.262 C  
HETATM   17  N   UNL     1     -11.956   8.449  72.188  1.00  0.00    -0.350 NA 
HETATM   18  C   UNL     1     -10.721   9.008  71.580  1.00  0.00    -0.351 C  
HETATM   19  C   UNL     1     -13.259  10.112  70.745  1.00  0.00    -0.226 C  
HETATM   20  C   UNL     1     -12.994   9.509  72.147  1.00  0.00    -0.412 C  
BRANCH  17  21
HETATM   21  C   UNL     1     -12.421   7.234  71.499  1.00  0.00    -0.373 C  
BRANCH  21  22
HETATM   22  C   UNL     1     -11.273   6.326  71.036  1.00  0.00    -0.372 C  
BRANCH  22  23
HETATM   23  C   UNL     1     -11.274   6.049  69.531  1.00  0.00    -0.416 C  
BRANCH  23  24
HETATM   24  C   UNL     1      -9.925   5.513  69.055  1.00  0.00    -0.244 C  
BRANCH  24  25
HETATM   25  C   UNL     1      -8.850   6.542  69.120  1.00  0.00    -0.128 A  
HETATM   26  C   UNL     1      -7.800   6.573  70.017  1.00  0.00    -0.111 A  
HETATM   27  N   UNL     1      -7.055   7.690  69.758  1.00  0.00    -0.065 NA 
HETATM   28  H   UNL     1      -6.218   7.963  70.273  1.00  0.00     0.000 HD 
HETATM   29  C   UNL     1      -7.595   8.393  68.707  1.00  0.00    -0.101 A  
HETATM   30  C   UNL     1      -8.718   7.691  68.279  1.00  0.00    -0.123 A  
HETATM   31  C   UNL     1      -9.463   8.199  67.188  1.00  0.00    -0.207 A  
HETATM   32  C   UNL     1      -9.062   9.396  66.580  1.00  0.00    -0.181 A  
HETATM   33  C   UNL     1      -7.933  10.077  67.039  1.00  0.00    -0.106 A  
HETATM   34  C   UNL     1      -9.820   9.922  65.479  1.00  0.00    -0.311 C  
HETATM   35  N   UNL     1     -10.429  10.356  64.591  1.00  0.00    -0.149 NA 
HETATM   36  C   UNL     1      -7.176   9.587  68.111  1.00  0.00    -0.080 A  
ENDBRANCH  24  25
ENDBRANCH  23  24
ENDBRANCH  22  23
ENDBRANCH  21  22
ENDBRANCH  17  21
ENDBRANCH  10  15
ENDBRANCH   2   6
TORSDOF 7
ENDMDL
MODEL        8
REMARK 921   NORMALIZED FREE ENERGY PREDICTED BY IDOCK:   -7.28 KCAL/MOL
REMARK 922        TOTAL FREE ENERGY PREDICTED BY IDOCK:  -11.53 KCAL/MOL
REMARK 923 INTER-LIGAND FREE ENERGY PREDICTED BY IDOCK:  -10.47 KCAL/MOL
REMARK 924 INTRA-LIGAND FREE ENERGY PREDICTED BY IDOCK:   -1.06 KCAL/MOL
REMARK 927      BINDING AFFINITY PREDICTED BY RF-SCORE:    0.00 PKD
ROOT
HETATM    1  N   UNL     1     -11.685  15.682  64.106  1.00  0.00    -0.876 N  
HETATM    2  C   UNL     1     -12.114  14.386  64.120  1.00  0.00    -0.376 C  
HETATM    3  H1  UNL     1     -11.360  16.124  64.966  1.00  0.00     0.000 HD 
HETATM    4  H2  UNL     1     -11.688  16.209  63.233  1.00  0.00     0.000 HD 
HETATM    5  O   UNL     1     -12.505  13.853  63.085  1.00  0.00    -0.766 OA 
ENDROOT
BRANCH   2   6
HETATM    6  C   UNL     1     -12.046  13.731  65.403  1.00  0.00    -0.407 A  
HETATM    7  C   UNL     1     -11.896  12.394  65.720  1.00  0.00    -0.467 A  
HETATM    8  C   UNL     1     -11.847  12.310  67.132  1.00  0.00    -0.328 A  
HETATM    9  C   UNL     1     -11.687  11.273  68.069  1.00  0.00    -0.305 A  
HETATM   10  C   UNL     1     -11.696  11.543  69.451  1.00  0.00    -0.346 A  
HETATM   11  C   UNL     1     -11.872  12.882  69.848  1.00  0.00    -0.373 A  
HETATM   12  O   UNL     1     -12.120  14.474  66.555  1.00  0.00    -0.396 OA 
HETATM   13  C   UNL     1     -12.000  13.606  67.597  1.00  0.00    -0.351 A  
HETATM   14  C   UNL     1     -12.023  13.943  68.942  1.00  0.00    -0.393 A  
BRANCH  10  15
HETATM   15  N   UNL     1     -11.567  10.527  70.377  1.00  0.00    -0.319 NA 
HETATM   16  C   UNL     1     -12.576  10.276  71.417  1.00  0.00    -0.434 C  
HETATM   17  N   UNL     1     -11.719   7.893  71.670  1.00  0.00    -0.271 NA 
HETATM   18  C   UNL     1     -12.904   8.767  71.469  1.00  0.00    -0.325 C  
HETATM   19  C   UNL     1     -10.359   9.689  70.456  1.00  0.00    -0.295 C  
HETATM   20  C   UNL     1     -10.753   8.197  70.585  1.00  0.00    -0.224 C  
BRANCH  17  21
HETATM   21  C   UNL     1     -11.099   8.083  72.991  1.00  0.00    -0.233 C  
BRANCH  21  22
HETATM   22  C   UNL     1      -9.892   7.163  73.228  1.00  0.00    -0.275 C  
BRANCH  22  23
HETATM   23  C   UNL     1     -10.177   6.007  74.189  1.00  0.00    -0.307 C  
BRANCH  23  24
HETATM   24  C   UNL     1     -11.010   4.912  73.523  1.00  0.00    -0.397 C  
BRANCH  24  25
HETATM   25  C   UNL     1     -10.172   3.945  72.762  1.00  0.00    -0.233 A  
HETATM   26  C   UNL     1      -9.512   2.848  73.280  1.00  0.00    -0.089 A  
HETATM   27  N   UNL     1      -8.838   2.238  72.259  1.00  0.00    -0.069 NA 
HETATM   28  H   UNL     1      -8.263   1.402  72.359  1.00  0.00     0.000 HD 
HETATM   29  C   UNL     1      -9.044   2.913  71.078  1.00  0.00    -0.115 A  
HETATM   30  C   UNL     1      -9.886   3.985  71.360  1.00  0.00    -0.249 A  
HETATM   31  C   UNL     1     -10.269   4.845  70.305  1.00  0.00    -0.299 A  
HETATM   32  C   UNL     1      -9.781   4.608  69.013  1.00  0.00    -0.242 A  
HETATM   33  C   UNL     1      -8.933   3.526  68.767  1.00  0.00    -0.184 A  
HETATM   34  C   UNL     1     -10.158   5.484  67.939  1.00  0.00    -0.176 C  
HETATM   35  N   UNL     1     -10.455   6.190  67.066  1.00  0.00    -0.241 NA 
HETATM   36  C   UNL     1      -8.550   2.656  69.795  1.00  0.00    -0.112 A  
ENDBRANCH  24  25
ENDBRANCH  23  24
ENDBRANCH  22  23
ENDBRANCH  21  22
ENDBRANCH  17  21
ENDBRANCH  10  15
ENDBRANCH   2   6
TORSDOF 7
ENDMDL
MODEL        9
REMARK 921   NORMALIZED FREE ENERGY PREDICTED BY IDOCK:   -7.24 KCAL/MOL
REMARK 922        TOTAL FREE ENERGY PREDICTED BY IDOCK:  -11.49 KCAL/MOL
REMARK 923 INTER-LIGAND FREE ENERGY PREDICTED BY IDOCK:  -10.22 KCAL/MOL
REMARK 924 INTRA-LIGAND FREE ENERGY PREDICTED BY IDOCK:   -1.26 KCAL/MOL
REMARK 927      BINDING AFFINITY PREDICTED BY RF-SCORE:    0.00 PKD
ROOT
HETATM    1  N   UNL     1     -10.716   4.849  71.910  1.00  0.00    -0.118 N  
HETATM    2  C   UNL     1     -10.630   5.456  70.690  1.00  0.00    -0.232 C  
HETATM    3  H1  UNL     1     -10.973   5.389  72.736  1.00  0.00     0.000 HD 
HETATM    4  H2  UNL     1     -10.524   3.851  71.995  1.00  0.00     0.000 HD 
HETATM    5  O   UNL     1     -10.322   4.806  69.696  1.00  0.00    -0.217 OA 
ENDROOT
BRANCH   2   6
HETATM    6  C   UNL     1     -10.944   6.865  70.683  1.00  0.00    -0.264 A  
HETATM    7  C   UNL     1     -10.290   7.926  70.087  1.00  0.00    -0.215 A  
HETATM    8  C   UNL     1     -11.053   9.085  70.360  1.00  0.00    -0.279 A  
HETATM    9  C   UNL     1     -10.956  10.449  70.032  1.00  0.00    -0.370 A  
HETATM   10  C   UNL     1     -11.915  11.372  70.493  1.00  0.00    -0.356 A  
HETATM   11  C   UNL     1     -12.962  10.873  71.291  1.00  0.00    -0.492 A  
HETATM   12  O   UNL     1     -12.063   7.320  71.337  1.00  0.00    -0.300 OA 
HETATM   13  C   UNL     1     -12.121   8.665  71.138  1.00  0.00    -0.260 A  
HETATM   14  C   UNL     1     -13.097   9.517  71.630  1.00  0.00    -0.486 A  
BRANCH  10  15
HETATM   15  N   UNL     1     -11.812  12.716  70.198  1.00  0.00    -0.296 NA 
HETATM   16  C   UNL     1     -11.332  13.203  68.895  1.00  0.00    -0.289 C  
HETATM   17  N   UNL     1     -12.473  15.438  69.312  1.00  0.00    -0.071 NA 
HETATM   18  C   UNL     1     -12.278  14.305  68.371  1.00  0.00    -0.162 C  
HETATM   19  C   UNL     1     -12.073  13.761  71.202  1.00  0.00    -0.185 C  
HETATM   20  C   UNL     1     -12.962  14.874  70.595  1.00  0.00    -0.338 C  
BRANCH  17  21
HETATM   21  C   UNL     1     -11.239  16.215  69.518  1.00  0.00    -0.337 C  
BRANCH  21  22
HETATM   22  C   UNL     1     -10.677  16.810  68.219  1.00  0.00    -0.364 C  
BRANCH  22  23
HETATM   23  C   UNL     1      -9.379  16.148  67.749  1.00  0.00    -0.211 C  
BRANCH  23  24
HETATM   24  C   UNL     1      -9.103  16.433  66.274  1.00  0.00    -0.362 C  
BRANCH  24  25
HETATM   25  C   UNL     1     -10.227  16.010  65.393  1.00  0.00    -0.333 A  
HETATM   26  C   UNL     1     -11.151  16.840  64.789  1.00  0.00    -0.016 A  
HETATM   27  N   UNL     1     -12.029  16.060  64.089  1.00  0.00    -1.038 NA 
HETATM   28  H   UNL     1     -12.817  16.413  63.547  1.00  0.00     0.000 HD 
HETATM   29  C   UNL     1     -11.698  14.732  64.222  1.00  0.00    -0.258 A  
HETATM   30  C   UNL     1     -10.565  14.669  65.028  1.00  0.00    -0.461 A  
HETATM   31  C   UNL     1     -10.005  13.403  65.317  1.00  0.00    -0.195 A  
HETATM   32  C   UNL     1     -10.610  12.249  64.801  1.00  0.00    -0.332 A  
HETATM   33  C   UNL     1     -11.750  12.348  64.000  1.00  0.00    -0.498 A  
HETATM   34  C   UNL     1     -10.052  10.960  65.099  1.00  0.00    -0.292 C  
HETATM   35  N   UNL     1      -9.609   9.914  65.340  1.00  0.00    -0.266 NA 
HETATM   36  C   UNL     1     -12.315  13.592  63.693  1.00  0.00    -0.328 A  
ENDBRANCH  24  25
ENDBRANCH  23  24
ENDBRANCH  22  23
ENDBRANCH  21  22
ENDBRANCH  17  21
ENDBRANCH  10  15
ENDBRANCH   2   6
TORSDOF 7
ENDMDL
MODEL       10
REMARK 921   NORMALIZED FREE ENERGY PREDICTED BY IDOCK:   -7.24 KCAL/MOL
REMARK 922        TOTAL FREE ENERGY PREDICTED BY IDOCK:  -11.48 KCAL/MOL
REMARK 923 INTER-LIGAND FREE ENERGY PREDICTED BY IDOCK:  -10.41 KCAL/MOL
REMARK 924 INTRA-LIGAND FREE ENERGY PREDICTED BY IDOCK:   -1.06 KCAL/MOL
REMARK 927      BINDING AFFINITY PREDICTED BY RF-SCORE:    0.00 PKD
ROOT
HETATM    1  N   UNL     1     -12.386  14.999  63.716  1.00  0.00    -1.058 N  
HETATM    2  C   UNL     1     -11.557  15.293  64.761  1.00  0.00    -0.322 C  
HETATM    3  H1  UNL     1     -13.009  14.193  63.766  1.00  0.00     0.000 HD 
HETATM    4  H2  UNL     1     -12.383  15.588  62.884  1.00  0.00     0.000 HD 
HETATM    5  O   UNL     1     -10.808  16.263  64.701  1.00  0.00    -0.687 OA 
ENDROOT
BRANCH   2   6
HETATM    6  C   UNL     1     -11.660  14.406  65.894  1.00  0.00    -0.361 A  
HETATM    7  C   UNL     1     -11.605  13.027  65.960  1.00  0.00    -0.409 A  
HETATM    8  C   UNL     1     -11.716  12.677  67.327  1.00  0.00    -0.435 A  
HETATM    9  C   UNL     1     -11.707  11.475  68.057  1.00  0.00    -0.343 A  
HETATM   10  C   UNL     1     -11.856  11.481  69.458  1.00  0.00    -0.351 A  
HETATM   11  C   UNL     1     -12.016  12.731  70.086  1.00  0.00    -0.371 A  
HETATM   12  O   UNL     1     -11.828  14.923  67.155  1.00  0.00    -0.338 OA 
HETATM   13  C   UNL     1     -11.862  13.870  68.016  1.00  0.00    -0.375 A  
HETATM   14  C   UNL     1     -12.018  13.951  69.391  1.00  0.00    -0.402 A  
BRANCH  10  15
HETATM   15  N   UNL     1     -11.876  10.304  70.178  1.00  0.00    -0.270 NA 
HETATM   16  C   UNL     1     -10.715   9.404  70.251  1.00  0.00    -0.253 C  
HETATM   17  N   UNL     1     -11.645   8.378  72.385  1.00  0.00    -0.384 NA 
HETATM   18  C   UNL     1     -10.468   8.991  71.719  1.00  0.00    -0.348 C  
HETATM   19  C   UNL     1     -13.096   9.811  70.840  1.00  0.00    -0.218 C  
HETATM   20  C   UNL     1     -12.770   9.341  72.279  1.00  0.00    -0.363 C  
BRANCH  17  21
HETATM   21  C   UNL     1     -12.011   7.080  71.795  1.00  0.00    -0.326 C  
BRANCH  21  22
HETATM   22  C   UNL     1     -11.056   5.946  72.194  1.00  0.00    -0.333 C  
BRANCH  22  23
HETATM   23  C   UNL     1     -10.508   5.154  71.004  1.00  0.00    -0.241 C  
BRANCH  23  24
HETATM   24  C   UNL     1     -10.814   5.847  69.677  1.00  0.00    -0.444 C  
BRANCH  24  25
HETATM   25  C   UNL     1      -9.591   6.067  68.856  1.00  0.00    -0.147 A  
HETATM   26  C   UNL     1      -8.469   6.778  69.232  1.00  0.00    -0.129 A  
HETATM   27  N   UNL     1      -7.588   6.764  68.187  1.00  0.00    -0.105 NA 
HETATM   28  H   UNL     1      -6.674   7.217  68.190  1.00  0.00     0.000 HD 
HETATM   29  C   UNL     1      -8.110   6.055  67.131  1.00  0.00    -0.106 A  
HETATM   30  C   UNL     1      -9.364   5.596  67.524  1.00  0.00    -0.109 A  
HETATM   31  C   UNL     1     -10.120   4.820  66.615  1.00  0.00    -0.276 A  
HETATM   32  C   UNL     1      -9.599   4.547  65.344  1.00  0.00    -0.185 A  
HETATM   33  C   UNL     1      -8.339   5.028  64.980  1.00  0.00    -0.140 A  
HETATM   34  C   UNL     1     -10.366   3.768  64.413  1.00  0.00    -0.227 C  
HETATM   35  N   UNL     1     -10.982   3.142  63.653  1.00  0.00    -0.273 NA 
HETATM   36  C   UNL     1      -7.569   5.790  65.868  1.00  0.00    -0.086 A  
ENDBRANCH  24  25
ENDBRANCH  23  24
ENDBRANCH  22  23
ENDBRANCH  21  22
ENDBRANCH  17  21
ENDBRANCH  10  15
ENDBRANCH   2   6
TORSDOF 7
ENDMDL
MODEL       11
REMARK 921   NORMALIZED FREE ENERGY PREDICTED BY IDOCK:   -7.22 KCAL/MOL
REMARK 922        TOTAL FREE ENERGY PREDICTED BY IDOCK:  -11.46 KCAL/MOL
REMARK 923 INTER-LIGAND FREE ENERGY PREDICTED BY IDOCK:  -10.03 KCAL/MOL
REMARK 924 INTRA-LIGAND FREE ENERGY PREDICTED BY IDOCK:   -1.42 KCAL/MOL
REMARK 927      BINDING AFFINITY PREDICTED BY RF-SCORE:    0.00 PKD
ROOT
HETATM    1  N   UNL     1      -8.481   6.288  64.219  1.00  0.00    -0.344 N  
HETATM    2  C   UNL     1      -7.905   7.363  63.605  1.00  0.00    -0.108 C  
HETATM    3  H1  UNL     1      -9.211   6.425  64.917  1.00  0.00     0.000 HD 
HETATM    4  H2  UNL     1      -8.180   5.343  63.977  1.00  0.00     0.000 HD 
HETATM    5  O   UNL     1      -7.027   7.197  62.764  1.00  0.00    -0.054 OA 
ENDROOT
BRANCH   2   6
HETATM    6  C   UNL     1      -8.422   8.648  64.007  1.00  0.00    -0.066 A  
HETATM    7  C   UNL     1      -8.303   9.327  65.205  1.00  0.00    -0.155 A  
HETATM    8  C   UNL     1      -8.965  10.567  65.042  1.00  0.00    -0.223 A  
HETATM    9  C   UNL     1      -9.185  11.699  65.847  1.00  0.00    -0.206 A  
HETATM   10  C   UNL     1      -9.923  12.796  65.362  1.00  0.00    -0.199 A  
HETATM   11  C   UNL     1     -10.426  12.709  64.051  1.00  0.00    -0.443 A  
HETATM   12  O   UNL     1      -9.153   9.400  63.120  1.00  0.00    -0.212 OA 
HETATM   13  C   UNL     1      -9.479  10.559  63.755  1.00  0.00    -0.298 A  
HETATM   14  C   UNL     1     -10.217  11.601  63.215  1.00  0.00    -0.445 A  
BRANCH  10  15
HETATM   15  N   UNL     1     -10.166  13.899  66.157  1.00  0.00    -0.293 NA 
HETATM   16  C   UNL     1      -9.617  14.029  67.514  1.00  0.00    -0.228 C  
HETATM   17  N   UNL     1      -9.931  16.551  67.398  1.00  0.00    -0.261 NA 
HETATM   18  C   UNL     1      -8.998  15.433  67.692  1.00  0.00    -0.181 C  
HETATM   19  C   UNL     1     -11.081  14.976  65.742  1.00  0.00    -0.346 C  
HETATM   20  C   UNL     1     -10.437  16.357  66.016  1.00  0.00    -0.323 C  
BRANCH  17  21
HETATM   21  C   UNL     1     -11.044  16.622  68.357  1.00  0.00    -0.305 C  
BRANCH  21  22
HETATM   22  C   UNL     1     -10.581  16.846  69.804  1.00  0.00    -0.098 C  
BRANCH  22  23
HETATM   23  C   UNL     1     -11.131  15.817  70.794  1.00  0.00    -0.371 C  
BRANCH  23  24
HETATM   24  C   UNL     1     -12.375  15.118  70.248  1.00  0.00    -0.398 C  
BRANCH  24  25
HETATM   25  C   UNL     1     -12.802  13.972  71.097  1.00  0.00    -0.427 A  
HETATM   26  C   UNL     1     -13.542  14.046  72.261  1.00  0.00    -0.525 A  
HETATM   27  N   UNL     1     -13.697  12.777  72.747  1.00  0.00    -0.698 NA 
HETATM   28  H   UNL     1     -14.202  12.538  73.599  1.00  0.00     0.000 HD 
HETATM   29  C   UNL     1     -13.073  11.870  71.922  1.00  0.00    -0.369 A  
HETATM   30  C   UNL     1     -12.510  12.589  70.872  1.00  0.00    -0.361 A  
HETATM   31  C   UNL     1     -11.810  11.886  69.864  1.00  0.00    -0.418 A  
HETATM   32  C   UNL     1     -11.688  10.493  69.955  1.00  0.00    -0.394 A  
HETATM   33  C   UNL     1     -12.260   9.804  71.027  1.00  0.00    -0.436 A  
HETATM   34  C   UNL     1     -10.969   9.775  68.941  1.00  0.00    -0.150 C  
HETATM   35  N   UNL     1     -10.386   9.187  68.126  1.00  0.00    -0.207 NA 
HETATM   36  C   UNL     1     -12.966  10.479  72.030  1.00  0.00    -0.490 A  
ENDBRANCH  24  25
ENDBRANCH  23  24
ENDBRANCH  22  23
ENDBRANCH  21  22
ENDBRANCH  17  21
ENDBRANCH  10  15
ENDBRANCH   2   6
TORSDOF 7
ENDMDL
MODEL       12
REMARK 921   NORMALIZED FREE ENERGY PREDICTED BY IDOCK:   -7.20 KCAL/MOL
REMARK 922        TOTAL FREE ENERGY PREDICTED BY IDOCK:  -11.42 KCAL/MOL
REMARK 923 INTER-LIGAND FREE ENERGY PREDICTED BY IDOCK:  -10.24 KCAL/MOL
REMARK 924 INTRA-LIGAND FREE ENERGY PREDICTED BY IDOCK:   -1.18 KCAL/MOL
REMARK 927      BINDING AFFINITY PREDICTED BY RF-SCORE:    0.00 PKD
ROOT
HETATM    1  N   UNL     1     -10.038   5.348  74.537  1.00  0.00    -0.246 N  
HETATM    2  C   UNL     1     -10.865   5.126  73.474  1.00  0.00    -0.303 C  
HETATM    3  H1  UNL     1      -9.399   6.143  74.534  1.00  0.00     0.000 HD 
HETATM    4  H2  UNL     1     -10.059   4.716  75.338  1.00  0.00     0.000 HD 
HETATM    5  O   UNL     1     -11.633   4.169  73.478  1.00  0.00    -0.229 OA 
ENDROOT
BRANCH   2   6
HETATM    6  C   UNL     1     -10.766   6.093  72.408  1.00  0.00    -0.231 A  
HETATM    7  C   UNL     1     -10.542   5.917  71.056  1.00  0.00    -0.312 A  
HETATM    8  C   UNL     1     -10.586   7.200  70.461  1.00  0.00    -0.243 A  
HETATM    9  C   UNL     1     -10.464   7.703  69.154  1.00  0.00    -0.220 A  
HETATM   10  C   UNL     1     -10.550   9.087  68.902  1.00  0.00    -0.180 A  
HETATM   11  C   UNL     1     -10.759   9.933  70.007  1.00  0.00    -0.338 A  
HETATM   12  O   UNL     1     -10.918   7.430  72.681  1.00  0.00    -0.266 OA 
HETATM   13  C   UNL     1     -10.806   8.093  71.497  1.00  0.00    -0.238 A  
HETATM   14  C   UNL     1     -10.896   9.466  71.324  1.00  0.00    -0.431 A  
BRANCH  10  15
HETATM   15  N   UNL     1     -10.403   9.590  67.625  1.00  0.00    -0.228 NA 
HETATM   16  C   UNL     1     -10.632  11.007  67.305  1.00  0.00    -0.245 C  
HETATM   17  N   UNL     1      -9.217  10.760  65.205  1.00  0.00    -0.196 NA 
HETATM   18  C   UNL     1      -9.466  11.540  66.445  1.00  0.00    -0.213 C  
HETATM   19  C   UNL     1     -10.110   8.723  66.471  1.00  0.00    -0.279 C  
HETATM   20  C   UNL     1      -8.988   9.349  65.606  1.00  0.00    -0.193 C  
BRANCH  17  21
HETATM   21  C   UNL     1     -10.329  10.858  64.247  1.00  0.00    -0.368 C  
BRANCH  21  22
HETATM   22  C   UNL     1     -10.370  12.202  63.506  1.00  0.00    -0.473 C  
BRANCH  22  23
HETATM   23  C   UNL     1     -11.757  12.848  63.478  1.00  0.00    -0.576 C  
BRANCH  23  24
HETATM   24  C   UNL     1     -12.245  13.198  64.883  1.00  0.00    -0.477 C  
BRANCH  24  25
HETATM   25  C   UNL     1     -11.565  14.400  65.438  1.00  0.00    -0.347 A  
HETATM   26  C   UNL     1     -10.892  15.366  64.717  1.00  0.00    -0.364 A  
HETATM   27  N   UNL     1     -10.391  16.282  65.600  1.00  0.00    -0.440 NA 
HETATM   28  H   UNL     1      -9.848  17.105  65.340  1.00  0.00     0.000 HD 
HETATM   29  C   UNL     1     -10.725  15.937  66.889  1.00  0.00    -0.289 A  
HETATM   30  C   UNL     1     -11.470  14.763  66.819  1.00  0.00    -0.343 A  
HETATM   31  C   UNL     1     -11.953  14.191  68.019  1.00  0.00    -0.372 A  
HETATM   32  C   UNL     1     -11.658  14.807  69.242  1.00  0.00    -0.331 A  
HETATM   33  C   UNL     1     -10.902  15.981  69.276  1.00  0.00    -0.300 A  
HETATM   34  C   UNL     1     -12.136  14.226  70.465  1.00  0.00    -0.343 C  
HETATM   35  N   UNL     1     -12.516  13.760  71.458  1.00  0.00    -0.315 NA 
HETATM   36  C   UNL     1     -10.422  16.570  68.099  1.00  0.00    -0.313 A  
ENDBRANCH  24  25
ENDBRANCH  23  24
ENDBRANCH  22  23
ENDBRANCH  21  22
ENDBRANCH  17  21
ENDBRANCH  10  15
ENDBRANCH   2   6
TORSDOF 7
ENDMDL
MODEL       13
REMARK 921   NORMALIZED FREE ENERGY PREDICTED BY IDOCK:   -7.19 KCAL/MOL
REMARK 922        TOTAL FREE ENERGY PREDICTED BY IDOCK:  -11.41 KCAL/MOL
REMARK 923 INTER-LIGAND FREE ENERGY PREDICTED BY IDOCK:  -10.08 KCAL/MOL
REMARK 924 INTRA-LIGAND FREE ENERGY PREDICTED BY IDOCK:   -1.33 KCAL/MOL
REMARK 927      BINDING AFFINITY PREDICTED BY RF-SCORE:    0.00 PKD
ROOT
HETATM    1  N   UNL     1     -10.992  15.883  64.542  1.00  0.00    -0.662 N  
HETATM    2  C   UNL     1     -11.848  14.846  64.306  1.00  0.00    -0.297 C  
HETATM    3  H1  UNL     1     -10.092  15.714  64.992  1.00  0.00     0.000 HD 
HETATM    4  H2  UNL     1     -11.253  16.830  64.268  1.00  0.00     0.000 HD 
HETATM    5  O   UNL     1     -12.931  15.049  63.765  1.00  0.00    -0.504 OA 
ENDROOT
BRANCH   2   6
HETATM    6  C   UNL     1     -11.368  13.549  64.716  1.00  0.00    -0.347 A  
HETATM    7  C   UNL     1     -11.568  12.848  65.890  1.00  0.00    -0.423 A  
HETATM    8  C   UNL     1     -10.906  11.606  65.746  1.00  0.00    -0.334 A  
HETATM    9  C   UNL     1     -10.746  10.458  66.541  1.00  0.00    -0.162 A  
HETATM   10  C   UNL     1      -9.987   9.363  66.083  1.00  0.00    -0.281 A  
HETATM   11  C   UNL     1      -9.401   9.471  64.808  1.00  0.00    -0.235 A  
HETATM   12  O   UNL     1     -10.588  12.808  63.863  1.00  0.00    -0.414 OA 
HETATM   13  C   UNL     1     -10.311  11.634  64.494  1.00  0.00    -0.300 A  
HETATM   14  C   UNL     1      -9.548  10.596  63.982  1.00  0.00    -0.351 A  
BRANCH  10  15
HETATM   15  N   UNL     1      -9.803   8.244  66.870  1.00  0.00    -0.222 NA 
HETATM   16  C   UNL     1     -10.885   7.286  67.144  1.00  0.00    -0.308 C  
HETATM   17  N   UNL     1      -9.161   5.507  67.722  1.00  0.00    -0.108 NA 
HETATM   18  C   UNL     1     -10.371   5.845  66.930  1.00  0.00    -0.247 C  
HETATM   19  C   UNL     1      -8.538   7.984  67.578  1.00  0.00    -0.126 C  
HETATM   20  C   UNL     1      -8.115   6.506  67.389  1.00  0.00    -0.121 C  
BRANCH  17  21
HETATM   21  C   UNL     1      -9.425   5.488  69.170  1.00  0.00    -0.129 C  
BRANCH  21  22
HETATM   22  C   UNL     1      -8.177   5.174  70.007  1.00  0.00    -0.082 C  
BRANCH  22  23
HETATM   23  C   UNL     1      -8.116   5.935  71.334  1.00  0.00    -0.115 C  
BRANCH  23  24
HETATM   24  C   UNL     1      -8.659   7.356  71.194  1.00  0.00    -0.122 C  
BRANCH  24  25
HETATM   25  C   UNL     1     -10.038   7.495  71.740  1.00  0.00    -0.205 A  
HETATM   26  C   UNL     1     -10.690   6.591  72.555  1.00  0.00    -0.226 A  
HETATM   27  N   UNL     1     -11.942   7.077  72.810  1.00  0.00    -0.499 NA 
HETATM   28  H   UNL     1     -12.642   6.610  73.386  1.00  0.00     0.000 HD 
HETATM   29  C   UNL     1     -12.124   8.285  72.178  1.00  0.00    -0.367 A  
HETATM   30  C   UNL     1     -10.942   8.578  71.505  1.00  0.00    -0.337 A  
HETATM   31  C   UNL     1     -10.857   9.786  70.773  1.00  0.00    -0.403 A  
HETATM   32  C   UNL     1     -11.963  10.644  70.731  1.00  0.00    -0.477 A  
HETATM   33  C   UNL     1     -13.137  10.315  71.414  1.00  0.00    -0.512 A  
HETATM   34  C   UNL     1     -11.887  11.866  69.981  1.00  0.00    -0.328 C  
HETATM   35  N   UNL     1     -11.835  12.854  69.374  1.00  0.00    -0.316 NA 
HETATM   36  C   UNL     1     -13.239   9.130  72.152  1.00  0.00    -0.524 A  
ENDBRANCH  24  25
ENDBRANCH  23  24
ENDBRANCH  22  23
ENDBRANCH  21  22
ENDBRANCH  17  21
ENDBRANCH  10  15
ENDBRANCH   2   6
TORSDOF 7
ENDMDL
MODEL       14
REMARK 921   NORMALIZED FREE ENERGY PREDICTED BY IDOCK:   -7.16 KCAL/MOL
REMARK 922        TOTAL FREE ENERGY PREDICTED BY IDOCK:  -11.36 KCAL/MOL
REMARK 923 INTER-LIGAND FREE ENERGY PREDICTED BY IDOCK:  -10.20 KCAL/MOL
REMARK 924 INTRA-LIGAND FREE ENERGY PREDICTED BY IDOCK:   -1.16 KCAL/MOL
REMARK 927      BINDING AFFINITY PREDICTED BY RF-SCORE:    0.00 PKD
ROOT
HETATM    1  N   UNL     1     -11.628   5.365  73.153  1.00  0.00    -0.531 N  
HETATM    2  C   UNL     1     -10.860   6.438  73.504  1.00  0.00    -0.174 C  
HETATM    3  H1  UNL     1     -12.312   5.447  72.402  1.00  0.00     0.000 HD 
HETATM    4  H2  UNL     1     -11.515   4.477  73.643  1.00  0.00     0.000 HD 
HETATM    5  O   UNL     1     -10.036   6.339  74.408  1.00  0.00    -0.294 OA 
ENDROOT
BRANCH   2   6
HETATM    6  C   UNL     1     -11.088   7.634  72.731  1.00  0.00    -0.383 A  
HETATM    7  C   UNL     1     -10.328   8.215  71.734  1.00  0.00    -0.293 A  
HETATM    8  C   UNL     1     -11.040   9.353  71.285  1.00  0.00    -0.446 A  
HETATM    9  C   UNL     1     -10.837  10.338  70.301  1.00  0.00    -0.349 A  
HETATM   10  C   UNL     1     -11.772  11.375  70.117  1.00  0.00    -0.328 A  
HETATM   11  C   UNL     1     -12.904  11.383  70.953  1.00  0.00    -0.323 A  
HETATM   12  O   UNL     1     -12.224   8.377  72.939  1.00  0.00    -0.274 OA 
HETATM   13  C   UNL     1     -12.186   9.416  72.061  1.00  0.00    -0.326 A  
HETATM   14  C   UNL     1     -13.145  10.410  71.937  1.00  0.00    -0.563 A  
BRANCH  10  15
HETATM   15  N   UNL     1     -11.566  12.361  69.173  1.00  0.00    -0.294 NA 
HETATM   16  C   UNL     1     -12.132  13.711  69.306  1.00  0.00    -0.314 C  
HETATM   17  N   UNL     1     -10.379  14.604  67.693  1.00  0.00    -0.233 NA 
HETATM   18  C   UNL     1     -11.041  14.764  69.014  1.00  0.00    -0.256 C  
HETATM   19  C   UNL     1     -10.852  12.099  67.911  1.00  0.00    -0.217 C  
HETATM   20  C   UNL     1      -9.827  13.227  67.634  1.00  0.00    -0.230 C  
BRANCH  17  21
HETATM   21  C   UNL     1     -11.299  14.848  66.571  1.00  0.00    -0.319 C  
BRANCH  21  22
HETATM   22  C   UNL     1     -10.672  14.547  65.201  1.00  0.00    -0.422 C  
BRANCH  22  23
HETATM   23  C   UNL     1     -11.610  13.807  64.244  1.00  0.00    -0.395 C  
BRANCH  23  24
HETATM   24  C   UNL     1     -11.711  12.323  64.589  1.00  0.00    -0.420 C  
BRANCH  24  25
HETATM   25  C   UNL     1     -10.500  11.560  64.176  1.00  0.00    -0.408 A  
HETATM   26  C   UNL     1      -9.689  11.833  63.093  1.00  0.00    -0.293 A  
HETATM   27  N   UNL     1      -8.706  10.885  63.049  1.00  0.00    -0.339 NA 
HETATM   28  H   UNL     1      -7.967  10.844  62.347  1.00  0.00     0.000 HD 
HETATM   29  C   UNL     1      -8.854   9.994  64.085  1.00  0.00    -0.221 A  
HETATM   30  C   UNL     1      -9.967  10.397  64.817  1.00  0.00    -0.409 A  
HETATM   31  C   UNL     1     -10.339   9.647  65.957  1.00  0.00    -0.160 A  
HETATM   32  C   UNL     1      -9.592   8.516  66.311  1.00  0.00    -0.306 A  
HETATM   33  C   UNL     1      -8.484   8.137  65.551  1.00  0.00    -0.174 A  
HETATM   34  C   UNL     1      -9.971   7.746  67.462  1.00  0.00    -0.185 C  
HETATM   35  N   UNL     1     -10.273   7.115  68.389  1.00  0.00    -0.169 NA 
HETATM   36  C   UNL     1      -8.092   8.870  64.424  1.00  0.00    -0.153 A  
ENDBRANCH  24  25
ENDBRANCH  23  24
ENDBRANCH  22  23
ENDBRANCH  21  22
ENDBRANCH  17  21
ENDBRANCH  10  15
ENDBRANCH   2   6
TORSDOF 7
ENDMDL
MODEL       15
REMARK 921   NORMALIZED FREE ENERGY PREDICTED BY IDOCK:   -7.13 KCAL/MOL
REMARK 922        TOTAL FREE ENERGY PREDICTED BY IDOCK:  -11.32 KCAL/MOL
REMARK 923 INTER-LIGAND FREE ENERGY PREDICTED BY IDOCK:  -10.36 KCAL/MOL
REMARK 924 INTRA-LIGAND FREE ENERGY PREDICTED BY IDOCK:   -0.97 KCAL/MOL
REMARK 927      BINDING AFFINITY PREDICTED BY RF-SCORE:    0.00 PKD
ROOT
HETATM    1  N   UNL     1      -9.497   2.596  67.198  1.00  0.00    -0.402 N  
HETATM    2  C   UNL     1      -9.591   3.627  68.088  1.00  0.00    -0.103 C  
HETATM    3  H1  UNL     1      -9.450   2.785  66.197  1.00  0.00     0.000 HD 
HETATM    4  H2  UNL     1      -9.473   1.634  67.535  1.00  0.00     0.000 HD 
HETATM    5  O   UNL     1      -9.646   3.399  69.293  1.00  0.00    -0.173 OA 
ENDROOT
BRANCH   2   6
HETATM    6  C   UNL     1      -9.595   4.945  67.503  1.00  0.00    -0.151 A  
HETATM    7  C   UNL     1     -10.425   6.026  67.734  1.00  0.00    -0.300 A  
HETATM    8  C   UNL     1      -9.956   7.085  66.921  1.00  0.00    -0.283 A  
HETATM    9  C   UNL     1     -10.328   8.424  66.707  1.00  0.00    -0.357 A  
HETATM   10  C   UNL     1      -9.629   9.228  65.785  1.00  0.00    -0.271 A  
HETATM   11  C   UNL     1      -8.555   8.637  65.094  1.00  0.00    -0.200 A  
HETATM   12  O   UNL     1      -8.651   5.279  66.563  1.00  0.00    -0.112 OA 
HETATM   13  C   UNL     1      -8.877   6.575  66.215  1.00  0.00    -0.146 A  
HETATM   14  C   UNL     1      -8.148   7.307  65.290  1.00  0.00    -0.134 A  
BRANCH  10  15
HETATM   15  N   UNL     1     -10.006  10.535  65.550  1.00  0.00    -0.262 NA 
HETATM   16  C   UNL     1      -9.670  11.241  64.304  1.00  0.00    -0.256 C  
HETATM   17  N   UNL     1     -11.565  12.885  64.725  1.00  0.00    -0.317 NA 
HETATM   18  C   UNL     1     -10.924  11.958  63.758  1.00  0.00    -0.425 C  
HETATM   19  C   UNL     1     -10.681  11.352  66.573  1.00  0.00    -0.277 C  
HETATM   20  C   UNL     1     -11.881  12.105  65.948  1.00  0.00    -0.272 C  
BRANCH  17  21
HETATM   21  C   UNL     1     -10.710  14.039  65.047  1.00  0.00    -0.396 C  
BRANCH  21  22
HETATM   22  C   UNL     1     -11.354  15.003  66.054  1.00  0.00    -0.270 C  
BRANCH  22  23
HETATM   23  C   UNL     1     -10.448  15.352  67.238  1.00  0.00    -0.282 C  
BRANCH  23  24
HETATM   24  C   UNL     1     -10.525  14.294  68.338  1.00  0.00    -0.249 C  
BRANCH  24  25
HETATM   25  C   UNL     1     -11.539  14.626  69.377  1.00  0.00    -0.342 A  
HETATM   26  C   UNL     1     -12.029  15.883  69.670  1.00  0.00    -0.260 A  
HETATM   27  N   UNL     1     -12.919  15.761  70.701  1.00  0.00    -0.684 NA 
HETATM   28  H   UNL     1     -13.432  16.535  71.122  1.00  0.00     0.000 HD 
HETATM   29  C   UNL     1     -13.024  14.446  71.089  1.00  0.00    -0.349 A  
HETATM   30  C   UNL     1     -12.175  13.707  70.269  1.00  0.00    -0.423 A  
HETATM   31  C   UNL     1     -12.099  12.307  70.454  1.00  0.00    -0.385 A  
HETATM   32  C   UNL     1     -12.864  11.703  71.461  1.00  0.00    -0.469 A  
HETATM   33  C   UNL     1     -13.701  12.476  72.270  1.00  0.00    -0.356 A  
HETATM   34  C   UNL     1     -12.784  10.284  71.660  1.00  0.00    -0.456 C  
HETATM   35  N   UNL     1     -12.722   9.137  71.830  1.00  0.00    -0.359 NA 
HETATM   36  C   UNL     1     -13.798  13.862  72.098  1.00  0.00    -0.636 A  
ENDBRANCH  24  25
ENDBRANCH  23  24
ENDBRANCH  22  23
ENDBRANCH  21  22
ENDBRANCH  17  21
ENDBRANCH  10  15
ENDBRANCH   2   6
TORSDOF 7
ENDMDL
MODEL       16
REMARK 921   NORMALIZED FREE ENERGY PREDICTED BY IDOCK:   -7.08 KCAL/MOL
REMARK 922        TOTAL FREE ENERGY PREDICTED BY IDOCK:  -11.26 KCAL/MOL
REMARK 923 INTER-LIGAND FREE ENERGY PREDICTED BY IDOCK:   -9.87 KCAL/MOL
REMARK 924 INTRA-LIGAND FREE ENERGY PREDICTED BY IDOCK:   -1.39 KCAL/MOL
REMARK 927      BINDING AFFINITY PREDICTED BY RF-SCORE:    0.00 PKD
ROOT
HETATM    1  N   UNL     1     -10.528   5.774  74.556  1.00  0.00    -0.282 N  
HETATM    2  C   UNL     1     -11.024   5.331  73.363  1.00  0.00    -0.316 C  
HETATM    3  H1  UNL     1     -10.097   6.696  74.621  1.00  0.00     0.000 HD 
HETATM    4  H2  UNL     1     -10.589   5.181  75.383  1.00  0.00     0.000 HD 
HETATM    5  O   UNL     1     -11.543   4.222  73.284  1.00  0.00    -0.229 OA 
ENDROOT
BRANCH   2   6
HETATM    6  C   UNL     1     -10.904   6.260  72.266  1.00  0.00    -0.240 A  
HETATM    7  C   UNL     1     -10.546   6.048  70.948  1.00  0.00    -0.310 A  
HETATM    8  C   UNL     1     -10.634   7.299  70.292  1.00  0.00    -0.243 A  
HETATM    9  C   UNL     1     -10.433   7.758  68.978  1.00  0.00    -0.215 A  
HETATM   10  C   UNL     1     -10.603   9.118  68.656  1.00  0.00    -0.174 A  
HETATM   11  C   UNL     1     -10.975   9.989  69.698  1.00  0.00    -0.301 A  
HETATM   12  O   UNL     1     -11.182   7.590  72.461  1.00  0.00    -0.284 OA 
HETATM   13  C   UNL     1     -11.015   8.212  71.263  1.00  0.00    -0.240 A  
HETATM   14  C   UNL     1     -11.196   9.565  71.018  1.00  0.00    -0.432 A  
BRANCH  10  15
HETATM   15  N   UNL     1     -10.380   9.581  67.374  1.00  0.00    -0.241 NA 
HETATM   16  C   UNL     1     -10.699  10.957  66.966  1.00  0.00    -0.271 C  
HETATM   17  N   UNL     1      -9.076  10.754  65.017  1.00  0.00    -0.199 NA 
HETATM   18  C   UNL     1      -9.508  11.559  66.189  1.00  0.00    -0.220 C  
HETATM   19  C   UNL     1      -9.906   8.698  66.295  1.00  0.00    -0.249 C  
HETATM   20  C   UNL     1      -8.766   9.387  65.505  1.00  0.00    -0.163 C  
BRANCH  17  21
HETATM   21  C   UNL     1     -10.098  10.712  63.958  1.00  0.00    -0.310 C  
BRANCH  21  22
HETATM   22  C   UNL     1     -10.383  12.088  63.340  1.00  0.00    -0.468 C  
BRANCH  22  23
HETATM   23  C   UNL     1     -11.856  12.499  63.404  1.00  0.00    -0.587 C  
BRANCH  23  24
HETATM   24  C   UNL     1     -12.014  13.977  63.757  1.00  0.00    -0.230 C  
BRANCH  24  25
HETATM   25  C   UNL     1     -11.936  14.222  65.224  1.00  0.00    -0.389 A  
HETATM   26  C   UNL     1     -12.784  13.711  66.186  1.00  0.00    -0.238 A  
HETATM   27  N   UNL     1     -12.388  14.195  67.401  1.00  0.00    -0.562 NA 
HETATM   28  H   UNL     1     -12.841  13.980  68.290  1.00  0.00     0.000 HD 
HETATM   29  C   UNL     1     -11.293  15.014  67.256  1.00  0.00    -0.332 A  
HETATM   30  C   UNL     1     -10.979  15.043  65.900  1.00  0.00    -0.343 A  
HETATM   31  C   UNL     1      -9.873  15.815  65.475  1.00  0.00    -0.300 A  
HETATM   32  C   UNL     1      -9.134  16.538  66.420  1.00  0.00    -0.332 A  
HETATM   33  C   UNL     1      -9.480  16.490  67.772  1.00  0.00    -0.222 A  
HETATM   34  C   UNL     1      -8.015  17.331  65.993  1.00  0.00    -0.161 C  
HETATM   35  N   UNL     1      -7.112  17.977  65.655  1.00  0.00    -0.516 NA 
HETATM   36  C   UNL     1     -10.565  15.726  68.217  1.00  0.00    -0.271 A  
ENDBRANCH  24  25
ENDBRANCH  23  24
ENDBRANCH  22  23
ENDBRANCH  21  22
ENDBRANCH  17  21
ENDBRANCH  10  15
ENDBRANCH   2   6
TORSDOF 7
ENDMDL
MODEL       17
REMARK 921   NORMALIZED FREE ENERGY PREDICTED BY IDOCK:   -7.02 KCAL/MOL
REMARK 922        TOTAL FREE ENERGY PREDICTED BY IDOCK:  -11.16 KCAL/MOL
REMARK 923 INTER-LIGAND FREE ENERGY PREDICTED BY IDOCK:  -10.09 KCAL/MOL
REMARK 924 INTRA-LIGAND FREE ENERGY PREDICTED BY IDOCK:   -1.08 KCAL/MOL
REMARK 927      BINDING AFFINITY PREDICTED BY RF-SCORE:    0.00 PKD
ROOT
HETATM    1  N   UNL     1     -11.024  15.486  64.518  1.00  0.00    -0.689 N  
HETATM    2  C   UNL     1     -11.801  14.416  64.177  1.00  0.00    -0.291 C  
HETATM    3  H1  UNL     1     -10.212  15.358  65.121  1.00  0.00     0.000 HD 
HETATM    4  H2  UNL     1     -11.257  16.415  64.169  1.00  0.00     0.000 HD 
HETATM    5  O   UNL     1     -12.779  14.569  63.451  1.00  0.00    -0.627 OA 
ENDROOT
BRANCH   2   6
HETATM    6  C   UNL     1     -11.367  13.147  64.710  1.00  0.00    -0.324 A  
HETATM    7  C   UNL     1     -11.754  12.477  65.854  1.00  0.00    -0.480 A  
HETATM    8  C   UNL     1     -11.044  11.252  65.872  1.00  0.00    -0.168 A  
HETATM    9  C   UNL     1     -10.998  10.134  66.723  1.00  0.00    -0.049 A  
HETATM   10  C   UNL     1     -10.142   9.051  66.445  1.00  0.00    -0.281 A  
HETATM   11  C   UNL     1      -9.341   9.139  65.290  1.00  0.00    -0.224 A  
HETATM   12  O   UNL     1     -10.429  12.406  64.034  1.00  0.00    -0.356 OA 
HETATM   13  C   UNL     1     -10.238  11.262  64.745  1.00  0.00    -0.292 A  
HETATM   14  C   UNL     1      -9.370  10.234  64.412  1.00  0.00    -0.329 A  
BRANCH  10  15
HETATM   15  N   UNL     1     -10.071   7.962  67.290  1.00  0.00    -0.211 NA 
HETATM   16  C   UNL     1     -10.931   6.780  67.129  1.00  0.00    -0.388 C  
HETATM   17  N   UNL     1      -9.275   5.391  68.470  1.00  0.00    -0.108 NA 
HETATM   18  C   UNL     1     -10.077   5.497  67.224  1.00  0.00    -0.183 C  
HETATM   19  C   UNL     1      -9.201   7.949  68.479  1.00  0.00    -0.138 C  
HETATM   20  C   UNL     1      -8.430   6.608  68.560  1.00  0.00    -0.122 C  
BRANCH  17  21
HETATM   21  C   UNL     1     -10.116   5.247  69.669  1.00  0.00    -0.257 C  
BRANCH  21  22
HETATM   22  C   UNL     1      -9.554   5.986  70.892  1.00  0.00    -0.196 C  
BRANCH  22  23
HETATM   23  C   UNL     1     -10.604   6.788  71.664  1.00  0.00    -0.239 C  
BRANCH  23  24
HETATM   24  C   UNL     1     -11.515   7.577  70.725  1.00  0.00    -0.305 C  
BRANCH  24  25
HETATM   25  C   UNL     1     -12.269   8.649  71.431  1.00  0.00    -0.348 A  
HETATM   26  C   UNL     1     -13.174   8.472  72.459  1.00  0.00    -0.223 A  
HETATM   27  N   UNL     1     -13.662   9.700  72.810  1.00  0.00    -0.648 NA 
HETATM   28  H   UNL     1     -14.351   9.864  73.543  1.00  0.00     0.000 HD 
HETATM   29  C   UNL     1     -13.093  10.681  72.033  1.00  0.00    -0.396 A  
HETATM   30  C   UNL     1     -12.206  10.053  71.163  1.00  0.00    -0.477 A  
HETATM   31  C   UNL     1     -11.471  10.845  70.250  1.00  0.00    -0.391 A  
HETATM   32  C   UNL     1     -11.665  12.232  70.233  1.00  0.00    -0.223 A  
HETATM   33  C   UNL     1     -12.567  12.830  71.117  1.00  0.00    -0.365 A  
HETATM   34  C   UNL     1     -10.930  13.042  69.303  1.00  0.00    -0.067 C  
HETATM   35  N   UNL     1     -10.342  13.702  68.550  1.00  0.00    -0.243 NA 
HETATM   36  C   UNL     1     -13.297  12.065  72.035  1.00  0.00    -0.447 A  
ENDBRANCH  24  25
ENDBRANCH  23  24
ENDBRANCH  22  23
ENDBRANCH  21  22
ENDBRANCH  17  21
ENDBRANCH  10  15
ENDBRANCH   2   6
TORSDOF 7
ENDMDL
MODEL       18
REMARK 921   NORMALIZED FREE ENERGY PREDICTED BY IDOCK:   -7.01 KCAL/MOL
REMARK 922        TOTAL FREE ENERGY PREDICTED BY IDOCK:  -11.15 KCAL/MOL
REMARK 923 INTER-LIGAND FREE ENERGY PREDICTED BY IDOCK:   -9.70 KCAL/MOL
REMARK 924 INTRA-LIGAND FREE ENERGY PREDICTED BY IDOCK:   -1.46 KCAL/MOL
REMARK 927      BINDING AFFINITY PREDICTED BY RF-SCORE:    0.00 PKD
ROOT
HETATM    1  N   UNL     1     -11.607   5.371  72.974  1.00  0.00    -0.511 N  
HETATM    2  C   UNL     1     -11.201   5.841  71.758  1.00  0.00    -0.211 C  
HETATM    3  H1  UNL     1     -12.012   6.006  73.661  1.00  0.00     0.000 HD 
HETATM    4  H2  UNL     1     -11.504   4.380  73.195  1.00  0.00     0.000 HD 
HETATM    5  O   UNL     1     -10.714   5.077  70.931  1.00  0.00    -0.134 OA 
ENDROOT
BRANCH   2   6
HETATM    6  C   UNL     1     -11.414   7.252  71.544  1.00  0.00    -0.263 A  
HETATM    7  C   UNL     1     -10.665   8.174  70.837  1.00  0.00    -0.246 A  
HETATM    8  C   UNL     1     -11.353   9.408  70.915  1.00  0.00    -0.386 A  
HETATM    9  C   UNL     1     -11.148  10.703  70.408  1.00  0.00    -0.253 A  
HETATM   10  C   UNL     1     -12.054  11.743  70.696  1.00  0.00    -0.311 A  
HETATM   11  C   UNL     1     -13.160  11.430  71.508  1.00  0.00    -0.438 A  
HETATM   12  O   UNL     1     -12.518   7.867  72.080  1.00  0.00    -0.306 OA 
HETATM   13  C   UNL     1     -12.473   9.172  71.696  1.00  0.00    -0.359 A  
HETATM   14  C   UNL     1     -13.403  10.147  72.023  1.00  0.00    -0.492 A  
BRANCH  10  15
HETATM   15  N   UNL     1     -11.845  13.023  70.224  1.00  0.00    -0.273 NA 
HETATM   16  C   UNL     1     -11.301  13.290  68.884  1.00  0.00    -0.288 C  
HETATM   17  N   UNL     1     -12.283  15.636  68.954  1.00  0.00    -0.160 NA 
HETATM   18  C   UNL     1     -12.151  14.373  68.184  1.00  0.00    -0.223 C  
HETATM   19  C   UNL     1     -12.052  14.212  71.068  1.00  0.00    -0.335 C  
HETATM   20  C   UNL     1     -12.842  15.290  70.285  1.00  0.00    -0.260 C  
BRANCH  17  21
HETATM   21  C   UNL     1     -11.001  16.345  69.094  1.00  0.00    -0.324 C  
BRANCH  21  22
HETATM   22  C   UNL     1     -10.661  17.221  67.879  1.00  0.00    -0.384 C  
BRANCH  22  23
HETATM   23  C   UNL     1      -9.169  17.534  67.743  1.00  0.00    -0.253 C  
BRANCH  23  24
HETATM   24  C   UNL     1      -8.555  16.838  66.529  1.00  0.00    -0.312 C  
BRANCH  24  25
HETATM   25  C   UNL     1      -8.297  15.392  66.773  1.00  0.00    -0.285 A  
HETATM   26  C   UNL     1      -7.287  14.860  67.548  1.00  0.00    -0.204 A  
HETATM   27  N   UNL     1      -7.381  13.497  67.491  1.00  0.00    -0.221 NA 
HETATM   28  H   UNL     1      -6.757  12.850  67.972  1.00  0.00     0.000 HD 
HETATM   29  C   UNL     1      -8.437  13.124  66.694  1.00  0.00     0.124 A  
HETATM   30  C   UNL     1      -9.038  14.293  66.235  1.00  0.00    -0.101 A  
HETATM   31  C   UNL     1     -10.169  14.191  65.392  1.00  0.00    -0.380 A  
HETATM   32  C   UNL     1     -10.645  12.924  65.029  1.00  0.00    -0.333 A  
HETATM   33  C   UNL     1     -10.014  11.771  65.503  1.00  0.00    -0.273 A  
HETATM   34  C   UNL     1     -11.786  12.813  64.165  1.00  0.00    -0.413 C  
HETATM   35  N   UNL     1     -12.707  12.716  63.463  1.00  0.00    -0.736 NA 
HETATM   36  C   UNL     1      -8.899  11.849  66.346  1.00  0.00    -0.152 A  
ENDBRANCH  24  25
ENDBRANCH  23  24
ENDBRANCH  22  23
ENDBRANCH  21  22
ENDBRANCH  17  21
ENDBRANCH  10  15
ENDBRANCH   2   6
TORSDOF 7
ENDMDL
MODEL       19
REMARK 921   NORMALIZED FREE ENERGY PREDICTED BY IDOCK:   -6.99 KCAL/MOL
REMARK 922        TOTAL FREE ENERGY PREDICTED BY IDOCK:  -11.12 KCAL/MOL
REMARK 923 INTER-LIGAND FREE ENERGY PREDICTED BY IDOCK:   -8.96 KCAL/MOL
REMARK 924 INTRA-LIGAND FREE ENERGY PREDICTED BY IDOCK:   -2.17 KCAL/MOL
REMARK 927      BINDING AFFINITY PREDICTED BY RF-SCORE:    0.00 PKD
ROOT
HETATM    1  N   UNL     1     -11.251  15.376  64.408  1.00  0.00    -0.714 N  
HETATM    2  C   UNL     1     -11.999  14.234  64.380  1.00  0.00    -0.456 C  
HETATM    3  H1  UNL     1     -10.670  15.590  65.219  1.00  0.00     0.000 HD 
HETATM    4  H2  UNL     1     -11.273  16.018  63.616  1.00  0.00     0.000 HD 
HETATM    5  O   UNL     1     -12.697  13.977  63.405  1.00  0.00    -0.796 OA 
ENDROOT
BRANCH   2   6
HETATM    6  C   UNL     1     -11.875  13.391  65.544  1.00  0.00    -0.363 A  
HETATM    7  C   UNL     1     -11.532  12.056  65.652  1.00  0.00    -0.372 A  
HETATM    8  C   UNL     1     -11.519  11.745  67.032  1.00  0.00    -0.368 A  
HETATM    9  C   UNL     1     -11.234  10.602  67.799  1.00  0.00    -0.383 A  
HETATM   10  C   UNL     1     -11.332  10.632  69.203  1.00  0.00    -0.273 A  
HETATM   11  C   UNL     1     -11.726  11.846  69.798  1.00  0.00    -0.403 A  
HETATM   12  O   UNL     1     -12.102  13.912  66.794  1.00  0.00    -0.423 OA 
HETATM   13  C   UNL     1     -11.886  12.909  67.689  1.00  0.00    -0.346 A  
HETATM   14  C   UNL     1     -12.007  13.010  69.066  1.00  0.00    -0.312 A  
BRANCH  10  15
HETATM   15  N   UNL     1     -11.080   9.506  69.961  1.00  0.00    -0.241 NA 
HETATM   16  C   UNL     1     -11.020   9.540  71.430  1.00  0.00    -0.345 C  
HETATM   17  N   UNL     1     -11.469   7.037  71.506  1.00  0.00    -0.259 NA 
HETATM   18  C   UNL     1     -11.855   8.379  72.012  1.00  0.00    -0.353 C  
HETATM   19  C   UNL     1     -10.749   8.208  69.347  1.00  0.00    -0.156 C  
HETATM   20  C   UNL     1     -11.560   7.076  70.025  1.00  0.00    -0.178 C  
BRANCH  17  21
HETATM   21  C   UNL     1     -10.118   6.642  71.936  1.00  0.00    -0.181 C  
BRANCH  21  22
HETATM   22  C   UNL     1      -9.362   5.827  70.877  1.00  0.00    -0.185 C  
BRANCH  22  23
HETATM   23  C   UNL     1      -7.856   6.100  70.849  1.00  0.00    -0.107 C  
BRANCH  23  24
HETATM   24  C   UNL     1      -7.432   6.788  69.553  1.00  0.00    -0.093 C  
BRANCH  24  25
HETATM   25  C   UNL     1      -7.451   8.273  69.665  1.00  0.00    -0.081 A  
HETATM   26  C   UNL     1      -7.359   9.007  70.831  1.00  0.00    -0.111 A  
HETATM   27  N   UNL     1      -7.442  10.332  70.505  1.00  0.00    -0.442 NA 
HETATM   28  H   UNL     1      -7.404  11.100  71.175  1.00  0.00     0.000 HD 
HETATM   29  C   UNL     1      -7.584  10.483  69.146  1.00  0.00    -0.123 A  
HETATM   30  C   UNL     1      -7.584   9.207  68.589  1.00  0.00    -0.084 A  
HETATM   31  C   UNL     1      -7.708   9.076  67.187  1.00  0.00    -0.099 A  
HETATM   32  C   UNL     1      -7.842  10.226  66.398  1.00  0.00    -0.119 A  
HETATM   33  C   UNL     1      -7.845  11.492  66.990  1.00  0.00    -0.161 A  
HETATM   34  C   UNL     1      -7.979  10.100  64.974  1.00  0.00    -0.146 C  
HETATM   35  N   UNL     1      -8.094  10.006  63.822  1.00  0.00    -0.152 NA 
HETATM   36  C   UNL     1      -7.713  11.644  68.376  1.00  0.00    -0.130 A  
ENDBRANCH  24  25
ENDBRANCH  23  24
ENDBRANCH  22  23
ENDBRANCH  21  22
ENDBRANCH  17  21
ENDBRANCH  10  15
ENDBRANCH   2   6
TORSDOF 7
ENDMDL
MODEL       20
REMARK 921   NORMALIZED FREE ENERGY PREDICTED BY IDOCK:   -6.95 KCAL/MOL
REMARK 922        TOTAL FREE ENERGY PREDICTED BY IDOCK:  -11.07 KCAL/MOL
REMARK 923 INTER-LIGAND FREE ENERGY PREDICTED BY IDOCK:  -10.10 KCAL/MOL
REMARK 924 INTRA-LIGAND FREE ENERGY PREDICTED BY IDOCK:   -0.97 KCAL/MOL
REMARK 927      BINDING AFFINITY PREDICTED BY RF-SCORE:    0.00 PKD
ROOT
HETATM    1  N   UNL     1      -8.308  20.236  65.832  1.00  0.00    -0.550 N  
HETATM    2  C   UNL     1      -9.352  19.670  66.506  1.00  0.00    -0.384 C  
HETATM    3  H1  UNL     1      -7.682  19.655  65.274  1.00  0.00     0.000 HD 
HETATM    4  H2  UNL     1      -8.153  21.242  65.888  1.00  0.00     0.000 HD 
HETATM    5  O   UNL     1     -10.104  20.368  67.179  1.00  0.00    -0.432 OA 
ENDROOT
BRANCH   2   6
HETATM    6  C   UNL     1      -9.488  18.243  66.340  1.00  0.00    -0.286 A  
HETATM    7  C   UNL     1      -8.802  17.202  66.935  1.00  0.00    -0.255 A  
HETATM    8  C   UNL     1      -9.370  16.002  66.445  1.00  0.00    -0.329 A  
HETATM    9  C   UNL     1      -9.156  14.630  66.662  1.00  0.00    -0.285 A  
HETATM   10  C   UNL     1      -9.918  13.663  65.977  1.00  0.00    -0.302 A  
HETATM   11  C   UNL     1     -10.891  14.128  65.073  1.00  0.00    -0.408 A  
HETATM   12  O   UNL     1     -10.436  17.742  65.482  1.00  0.00    -0.646 OA 
HETATM   13  C   UNL     1     -10.357  16.385  65.550  1.00  0.00    -0.313 A  
HETATM   14  C   UNL     1     -11.141  15.490  64.839  1.00  0.00    -0.428 A  
BRANCH  10  15
HETATM   15  N   UNL     1      -9.694  12.314  66.166  1.00  0.00    -0.243 NA 
HETATM   16  C   UNL     1      -9.862  11.662  67.473  1.00  0.00    -0.188 C  
HETATM   17  N   UNL     1     -10.111   9.410  66.315  1.00  0.00    -0.277 NA 
HETATM   18  C   UNL     1     -10.679  10.362  67.304  1.00  0.00    -0.273 C  
HETATM   19  C   UNL     1      -9.168  11.451  65.094  1.00  0.00    -0.103 C  
HETATM   20  C   UNL     1      -9.978  10.133  65.026  1.00  0.00    -0.305 C  
BRANCH  17  21
HETATM   21  C   UNL     1      -8.815   8.861  66.744  1.00  0.00    -0.124 C  
BRANCH  21  22
HETATM   22  C   UNL     1      -8.948   7.577  67.574  1.00  0.00    -0.127 C  
BRANCH  22  23
HETATM   23  C   UNL     1      -9.822   6.506  66.917  1.00  0.00    -0.211 C  
BRANCH  23  24
HETATM   24  C   UNL     1     -11.044   6.173  67.771  1.00  0.00    -0.306 C  
BRANCH  24  25
HETATM   25  C   UNL     1     -10.707   6.030  69.214  1.00  0.00    -0.401 A  
HETATM   26  C   UNL     1     -10.038   4.973  69.798  1.00  0.00    -0.267 A  
HETATM   27  N   UNL     1      -9.954   5.214  71.141  1.00  0.00    -0.196 NA 
HETATM   28  H   UNL     1      -9.510   4.593  71.817  1.00  0.00     0.000 HD 
HETATM   29  C   UNL     1     -10.555   6.411  71.451  1.00  0.00    -0.230 A  
HETATM   30  C   UNL     1     -11.030   6.952  70.259  1.00  0.00    -0.322 A  
HETATM   31  C   UNL     1     -11.690   8.203  70.296  1.00  0.00     0.097 A  
HETATM   32  C   UNL     1     -11.862   8.854  71.524  1.00  0.00    -0.402 A  
HETATM   33  C   UNL     1     -11.378   8.280  72.701  1.00  0.00    -0.421 A  
HETATM   34  C   UNL     1     -12.540  10.119  71.568  1.00  0.00    -0.434 C  
HETATM   35  N   UNL     1     -13.091  11.141  71.613  1.00  0.00    -0.457 NA 
HETATM   36  C   UNL     1     -10.713   7.047  72.687  1.00  0.00    -0.291 A  
ENDBRANCH  24  25
ENDBRANCH  23  24
ENDBRANCH  22  23
ENDBRANCH  21  22
ENDBRANCH  17  21
ENDBRANCH  10  15
ENDBRANCH   2   6
TORSDOF 7
ENDMDL
MODEL       21
REMARK 921   NORMALIZED FREE ENERGY PREDICTED BY IDOCK:   -6.94 KCAL/MOL
REMARK 922        TOTAL FREE ENERGY PREDICTED BY IDOCK:  -11.06 KCAL/MOL
REMARK 923 INTER-LIGAND FREE ENERGY PREDICTED BY IDOCK:  -10.11 KCAL/MOL
REMARK 924 INTRA-LIGAND FREE ENERGY PREDICTED BY IDOCK:   -0.95 KCAL/MOL
REMARK 927      BINDING AFFINITY PREDICTED BY RF-SCORE:    0.00 PKD
ROOT
HETATM    1  N   UNL     1     -12.145  14.963  74.378  1.00  0.00    -0.557 N  
HETATM    2  C   UNL     1     -12.858  15.622  73.418  1.00  0.00    -0.548 C  
HETATM    3  H1  UNL     1     -11.413  14.305  74.112  1.00  0.00     0.000 HD 
HETATM    4  H2  UNL     1     -12.344  15.131  75.364  1.00  0.00     0.000 HD 
HETATM    5  O   UNL     1     -13.739  16.415  73.738  1.00  0.00    -0.455 OA 
ENDROOT
BRANCH   2   6
HETATM    6  C   UNL     1     -12.478  15.325  72.058  1.00  0.00    -0.354 A  
HETATM    7  C   UNL     1     -12.641  14.173  71.313  1.00  0.00    -0.438 A  
HETATM    8  C   UNL     1     -12.125  14.442  70.023  1.00  0.00    -0.401 A  
HETATM    9  C   UNL     1     -12.012  13.723  68.820  1.00  0.00    -0.400 A  
HETATM   10  C   UNL     1     -11.414  14.305  67.685  1.00  0.00    -0.346 A  
HETATM   11  C   UNL     1     -10.937  15.624  67.810  1.00  0.00    -0.316 A  
HETATM   12  O   UNL     1     -11.858  16.285  71.296  1.00  0.00    -0.424 OA 
HETATM   13  C   UNL     1     -11.647  15.742  70.066  1.00  0.00    -0.357 A  
HETATM   14  C   UNL     1     -11.043  16.375  68.991  1.00  0.00    -0.315 A  
BRANCH  10  15
HETATM   15  N   UNL     1     -11.274  13.596  66.509  1.00  0.00    -0.305 NA 
HETATM   16  C   UNL     1     -12.395  12.879  65.883  1.00  0.00    -0.313 C  
HETATM   17  N   UNL     1     -11.175  12.923  63.651  1.00  0.00    -0.415 NA 
HETATM   18  C   UNL     1     -12.442  13.203  64.374  1.00  0.00    -0.310 C  
HETATM   19  C   UNL     1      -9.968  13.419  65.852  1.00  0.00    -0.277 C  
HETATM   20  C   UNL     1     -10.097  13.682  64.331  1.00  0.00     0.078 C  
BRANCH  17  21
HETATM   21  C   UNL     1     -10.858  11.486  63.611  1.00  0.00    -0.415 C  
BRANCH  21  22
HETATM   22  C   UNL     1      -9.361  11.204  63.414  1.00  0.00    -0.279 C  
BRANCH  22  23
HETATM   23  C   UNL     1      -8.953   9.770  63.760  1.00  0.00    -0.272 C  
BRANCH  23  24
HETATM   24  C   UNL     1      -8.318   9.683  65.146  1.00  0.00    -0.142 C  
BRANCH  24  25
HETATM   25  C   UNL     1      -9.266   9.171  66.174  1.00  0.00    -0.259 A  
HETATM   26  C   UNL     1     -10.128   9.928  66.943  1.00  0.00    -0.225 A  
HETATM   27  N   UNL     1     -10.804   9.084  67.779  1.00  0.00    -0.482 NA 
HETATM   28  H   UNL     1     -11.505   9.376  68.459  1.00  0.00     0.000 HD 
HETATM   29  C   UNL     1     -10.403   7.784  67.573  1.00  0.00    -0.264 A  
HETATM   30  C   UNL     1      -9.444   7.806  66.564  1.00  0.00    -0.262 A  
HETATM   31  C   UNL     1      -8.868   6.583  66.147  1.00  0.00    -0.160 A  
HETATM   32  C   UNL     1      -9.262   5.390  66.766  1.00  0.00    -0.128 A  
HETATM   33  C   UNL     1     -10.223   5.406  67.780  1.00  0.00    -0.230 A  
HETATM   34  C   UNL     1      -8.674   4.147  66.355  1.00  0.00    -0.115 C  
HETATM   35  N   UNL     1      -8.200   3.138  66.030  1.00  0.00    -0.093 NA 
HETATM   36  C   UNL     1     -10.814   6.604  68.202  1.00  0.00    -0.334 A  
ENDBRANCH  24  25
ENDBRANCH  23  24
ENDBRANCH  22  23
ENDBRANCH  21  22
ENDBRANCH  17  21
ENDBRANCH  10  15
ENDBRANCH   2   6
TORSDOF 7
ENDMDL
MODEL       22
REMARK 921   NORMALIZED FREE ENERGY PREDICTED BY IDOCK:   -6.87 KCAL/MOL
REMARK 922        TOTAL FREE ENERGY PREDICTED BY IDOCK:  -10.97 KCAL/MOL
REMARK 923 INTER-LIGAND FREE ENERGY PREDICTED BY IDOCK:   -9.87 KCAL/MOL
REMARK 924 INTRA-LIGAND FREE ENERGY PREDICTED BY IDOCK:   -1.10 KCAL/MOL
REMARK 927      BINDING AFFINITY PREDICTED BY RF-SCORE:    0.00 PKD
ROOT
HETATM    1  N   UNL     1     -12.069  14.870  74.412  1.00  0.00    -0.557 N  
HETATM    2  C   UNL     1     -12.718  15.590  73.451  1.00  0.00    -0.532 C  
HETATM    3  H1  UNL     1     -11.403  14.144  74.148  1.00  0.00     0.000 HD 
HETATM    4  H2  UNL     1     -12.252  15.058  75.398  1.00  0.00     0.000 HD 
HETATM    5  O   UNL     1     -13.519  16.463  73.768  1.00  0.00    -0.614 OA 
ENDROOT
BRANCH   2   6
HETATM    6  C   UNL     1     -12.367  15.254  72.092  1.00  0.00    -0.365 A  
HETATM    7  C   UNL     1     -12.442  14.050  71.419  1.00  0.00    -0.438 A  
HETATM    8  C   UNL     1     -12.013  14.294  70.093  1.00  0.00    -0.391 A  
HETATM    9  C   UNL     1     -11.878  13.521  68.925  1.00  0.00    -0.384 A  
HETATM   10  C   UNL     1     -11.393  14.094  67.733  1.00  0.00    -0.306 A  
HETATM   11  C   UNL     1     -11.052  15.460  67.764  1.00  0.00    -0.320 A  
HETATM   12  O   UNL     1     -11.885  16.226  71.250  1.00  0.00    -0.424 OA 
HETATM   13  C   UNL     1     -11.671  15.636  70.042  1.00  0.00    -0.357 A  
HETATM   14  C   UNL     1     -11.184  16.264  68.906  1.00  0.00    -0.337 A  
BRANCH  10  15
HETATM   15  N   UNL     1     -11.231  13.336  66.591  1.00  0.00    -0.299 NA 
HETATM   16  C   UNL     1     -12.280  12.436  66.087  1.00  0.00    -0.040 C  
HETATM   17  N   UNL     1     -11.220  12.498  63.775  1.00  0.00    -0.427 NA 
HETATM   18  C   UNL     1     -12.466  12.653  64.570  1.00  0.00    -0.448 C  
HETATM   19  C   UNL     1      -9.957  13.292  65.854  1.00  0.00    -0.272 C  
HETATM   20  C   UNL     1     -10.215  13.437  64.334  1.00  0.00    -0.237 C  
BRANCH  17  21
HETATM   21  C   UNL     1     -10.711  11.117  63.792  1.00  0.00    -0.329 C  
BRANCH  21  22
HETATM   22  C   UNL     1      -9.323  10.978  63.151  1.00  0.00    -0.339 C  
BRANCH  22  23
HETATM   23  C   UNL     1      -8.330  10.177  63.998  1.00  0.00    -0.172 C  
BRANCH  23  24
HETATM   24  C   UNL     1      -8.906   9.838  65.372  1.00  0.00    -0.199 C  
BRANCH  24  25
HETATM   25  C   UNL     1      -8.889   8.375  65.649  1.00  0.00    -0.196 A  
HETATM   26  C   UNL     1      -8.332   7.396  64.851  1.00  0.00    -0.022 A  
HETATM   27  N   UNL     1      -8.551   6.186  65.447  1.00  0.00    -0.239 NA 
HETATM   28  H   UNL     1      -8.247   5.288  65.072  1.00  0.00     0.000 HD 
HETATM   29  C   UNL     1      -9.242   6.351  66.625  1.00  0.00    -0.151 A  
HETATM   30  C   UNL     1      -9.461   7.717  66.784  1.00  0.00    -0.244 A  
HETATM   31  C   UNL     1     -10.150   8.166  67.934  1.00  0.00    -0.246 A  
HETATM   32  C   UNL     1     -10.607   7.230  68.872  1.00  0.00    -0.207 A  
HETATM   33  C   UNL     1     -10.375   5.866  68.677  1.00  0.00    -0.271 A  
HETATM   34  C   UNL     1     -11.317   7.679  70.036  1.00  0.00    -0.067 C  
HETATM   35  N   UNL     1     -11.895   8.034  70.979  1.00  0.00    -0.286 NA 
HETATM   36  C   UNL     1      -9.686   5.401  67.551  1.00  0.00    -0.153 A  
ENDBRANCH  24  25
ENDBRANCH  23  24
ENDBRANCH  22  23
ENDBRANCH  21  22
ENDBRANCH  17  21
ENDBRANCH  10  15
ENDBRANCH   2   6
TORSDOF 7
ENDMDL
MODEL       23
REMARK 921   NORMALIZED FREE ENERGY PREDICTED BY IDOCK:   -6.85 KCAL/MOL
REMARK 922        TOTAL FREE ENERGY PREDICTED BY IDOCK:  -10.93 KCAL/MOL
REMARK 923 INTER-LIGAND FREE ENERGY PREDICTED BY IDOCK:   -9.38 KCAL/MOL
REMARK 924 INTRA-LIGAND FREE ENERGY PREDICTED BY IDOCK:   -1.55 KCAL/MOL
REMARK 927      BINDING AFFINITY PREDICTED BY RF-SCORE:    0.00 PKD
ROOT
HETATM    1  N   UNL     1     -11.307  15.691  64.306  1.00  0.00    -0.760 N  
HETATM    2  C   UNL     1     -12.000  14.515  64.318  1.00  0.00    -0.397 C  
HETATM    3  H1  UNL     1     -10.840  16.021  65.151  1.00  0.00     0.000 HD 
HETATM    4  H2  UNL     1     -11.254  16.241  63.449  1.00  0.00     0.000 HD 
HETATM    5  O   UNL     1     -12.561  14.118  63.301  1.00  0.00    -0.766 OA 
ENDROOT
BRANCH   2   6
HETATM    6  C   UNL     1     -11.990  13.809  65.576  1.00  0.00    -0.384 A  
HETATM    7  C   UNL     1     -11.835  12.463  65.848  1.00  0.00    -0.467 A  
HETATM    8  C   UNL     1     -11.860  12.322  67.256  1.00  0.00    -0.330 A  
HETATM    9  C   UNL     1     -11.733  11.251  68.158  1.00  0.00    -0.323 A  
HETATM   10  C   UNL     1     -11.820  11.465  69.548  1.00  0.00    -0.357 A  
HETATM   11  C   UNL     1     -12.038  12.784  69.987  1.00  0.00    -0.355 A  
HETATM   12  O   UNL     1     -12.137  14.504  66.751  1.00  0.00    -0.395 OA 
HETATM   13  C   UNL     1     -12.058  13.597  67.763  1.00  0.00    -0.290 A  
HETATM   14  C   UNL     1     -12.158  13.879  69.117  1.00  0.00    -0.377 A  
BRANCH  10  15
HETATM   15  N   UNL     1     -11.725  10.414  70.438  1.00  0.00    -0.305 NA 
HETATM   16  C   UNL     1     -12.599  10.295  71.614  1.00  0.00    -0.432 C  
HETATM   17  N   UNL     1     -12.112   7.801  71.723  1.00  0.00    -0.287 NA 
HETATM   18  C   UNL     1     -13.156   8.858  71.705  1.00  0.00    -0.374 C  
HETATM   19  C   UNL     1     -10.669   9.392  70.332  1.00  0.00    -0.263 C  
HETATM   20  C   UNL     1     -11.277   7.978  70.509  1.00  0.00    -0.250 C  
BRANCH  17  21
HETATM   21  C   UNL     1     -11.284   7.849  72.939  1.00  0.00    -0.366 C  
BRANCH  21  22
HETATM   22  C   UNL     1     -10.625   6.503  73.274  1.00  0.00    -0.301 C  
BRANCH  22  23
HETATM   23  C   UNL     1      -9.168   6.626  73.725  1.00  0.00    -0.176 C  
BRANCH  23  24
HETATM   24  C   UNL     1      -8.278   5.588  73.043  1.00  0.00    -0.119 C  
BRANCH  24  25
HETATM   25  C   UNL     1      -8.311   5.699  71.558  1.00  0.00    -0.127 A  
HETATM   26  C   UNL     1      -8.755   4.735  70.675  1.00  0.00    -0.108 A  
HETATM   27  N   UNL     1      -8.595   5.217  69.406  1.00  0.00    -0.095 NA 
HETATM   28  H   UNL     1      -8.841   4.711  68.555  1.00  0.00     0.000 HD 
HETATM   29  C   UNL     1      -8.055   6.481  69.438  1.00  0.00    -0.119 A  
HETATM   30  C   UNL     1      -7.873   6.815  70.777  1.00  0.00    -0.101 A  
HETATM   31  C   UNL     1      -7.334   8.084  71.095  1.00  0.00    -0.065 A  
HETATM   32  C   UNL     1      -6.983   8.961  70.061  1.00  0.00    -0.044 A  
HETATM   33  C   UNL     1      -7.173   8.590  68.727  1.00  0.00    -0.078 A  
HETATM   34  C   UNL     1      -6.426  10.245  70.376  1.00  0.00    -0.131 C  
HETATM   35  N   UNL     1      -5.970  11.285  70.623  1.00  0.00    -0.321 NA 
HETATM   36  C   UNL     1      -7.715   7.344  68.390  1.00  0.00    -0.120 A  
ENDBRANCH  24  25
ENDBRANCH  23  24
ENDBRANCH  22  23
ENDBRANCH  21  22
ENDBRANCH  17  21
ENDBRANCH  10  15
ENDBRANCH   2   6
TORSDOF 7
ENDMDL
MODEL       24
REMARK 921   NORMALIZED FREE ENERGY PREDICTED BY IDOCK:   -6.80 KCAL/MOL
REMARK 922        TOTAL FREE ENERGY PREDICTED BY IDOCK:  -10.86 KCAL/MOL
REMARK 923 INTER-LIGAND FREE ENERGY PREDICTED BY IDOCK:   -9.75 KCAL/MOL
REMARK 924 INTRA-LIGAND FREE ENERGY PREDICTED BY IDOCK:   -1.10 KCAL/MOL
REMARK 927      BINDING AFFINITY PREDICTED BY RF-SCORE:    0.00 PKD
ROOT
HETATM    1  N   UNL     1     -12.128  15.082  74.318  1.00  0.00    -0.634 N  
HETATM    2  C   UNL     1     -12.924  15.608  73.340  1.00  0.00    -0.559 C  
HETATM    3  H1  UNL     1     -11.328  14.501  74.070  1.00  0.00     0.000 HD 
HETATM    4  H2  UNL     1     -12.336  15.271  75.298  1.00  0.00     0.000 HD 
HETATM    5  O   UNL     1     -13.887  16.308  73.638  1.00  0.00    -0.456 OA 
ENDROOT
BRANCH   2   6
HETATM    6  C   UNL     1     -12.525  15.295  71.990  1.00  0.00    -0.354 A  
HETATM    7  C   UNL     1     -12.677  14.133  71.257  1.00  0.00    -0.434 A  
HETATM    8  C   UNL     1     -12.145  14.385  69.971  1.00  0.00    -0.401 A  
HETATM    9  C   UNL     1     -12.015  13.651  68.778  1.00  0.00    -0.394 A  
HETATM   10  C   UNL     1     -11.403  14.220  67.644  1.00  0.00    -0.324 A  
HETATM   11  C   UNL     1     -10.930  15.541  67.758  1.00  0.00    -0.317 A  
HETATM   12  O   UNL     1     -11.897  16.245  71.224  1.00  0.00    -0.424 OA 
HETATM   13  C   UNL     1     -11.669  15.687  70.004  1.00  0.00    -0.357 A  
HETATM   14  C   UNL     1     -11.052  16.308  68.928  1.00  0.00    -0.345 A  
BRANCH  10  15
HETATM   15  N   UNL     1     -11.247  13.496  66.480  1.00  0.00    -0.301 NA 
HETATM   16  C   UNL     1     -12.374  12.834  65.806  1.00  0.00    -0.323 C  
HETATM   17  N   UNL     1     -11.052  12.798  63.632  1.00  0.00    -0.430 NA 
HETATM   18  C   UNL     1     -12.334  13.150  64.294  1.00  0.00    -0.351 C  
HETATM   19  C   UNL     1      -9.923  13.246  65.884  1.00  0.00    -0.272 C  
HETATM   20  C   UNL     1      -9.967  13.505  64.358  1.00  0.00     0.169 C  
BRANCH  17  21
HETATM   21  C   UNL     1     -10.809  11.347  63.613  1.00  0.00    -0.384 C  
BRANCH  21  22
HETATM   22  C   UNL     1      -9.319  10.985  63.547  1.00  0.00    -0.276 C  
BRANCH  22  23
HETATM   23  C   UNL     1      -8.968   9.679  64.264  1.00  0.00    -0.269 C  
BRANCH  23  24
HETATM   24  C   UNL     1      -8.311   9.938  65.618  1.00  0.00    -0.140 C  
BRANCH  24  25
HETATM   25  C   UNL     1      -9.128   9.428  66.754  1.00  0.00    -0.168 A  
HETATM   26  C   UNL     1     -10.405   8.906  66.675  1.00  0.00    -0.223 A  
HETATM   27  N   UNL     1     -10.808   8.579  67.939  1.00  0.00    -0.482 NA 
HETATM   28  H   UNL     1     -11.713   8.174  68.175  1.00  0.00     0.000 HD 
HETATM   29  C   UNL     1      -9.819   8.874  68.848  1.00  0.00    -0.177 A  
HETATM   30  C   UNL     1      -8.747   9.401  68.132  1.00  0.00    -0.124 A  
HETATM   31  C   UNL     1      -7.581   9.782  68.836  1.00  0.00    -0.081 A  
HETATM   32  C   UNL     1      -7.539   9.637  70.228  1.00  0.00    -0.175 A  
HETATM   33  C   UNL     1      -8.635   9.111  70.916  1.00  0.00    -0.259 A  
HETATM   34  C   UNL     1      -6.362  10.032  70.949  1.00  0.00    -0.029 C  
HETATM   35  N   UNL     1      -5.415  10.353  71.540  1.00  0.00    -0.261 NA 
HETATM   36  C   UNL     1      -9.796   8.718  70.239  1.00  0.00    -0.198 A  
ENDBRANCH  24  25
ENDBRANCH  23  24
ENDBRANCH  22  23
ENDBRANCH  21  22
ENDBRANCH  17  21
ENDBRANCH  10  15
ENDBRANCH   2   6
TORSDOF 7
ENDMDL
MODEL       25
REMARK 921   NORMALIZED FREE ENERGY PREDICTED BY IDOCK:   -6.78 KCAL/MOL
REMARK 922        TOTAL FREE ENERGY PREDICTED BY IDOCK:  -10.83 KCAL/MOL
REMARK 923 INTER-LIGAND FREE ENERGY PREDICTED BY IDOCK:   -8.77 KCAL/MOL
REMARK 924 INTRA-LIGAND FREE ENERGY PREDICTED BY IDOCK:   -2.06 KCAL/MOL
REMARK 927      BINDING AFFINITY PREDICTED BY RF-SCORE:    0.00 PKD
ROOT
HETATM    1  N   UNL     1     -10.378   7.561  66.505  1.00  0.00    -0.501 N  
HETATM    2  C   UNL     1      -9.107   7.818  66.078  1.00  0.00    -0.121 C  
HETATM    3  H1  UNL     1     -10.900   8.270  67.021  1.00  0.00     0.000 HD 
HETATM    4  H2  UNL     1     -10.808   6.657  66.309  1.00  0.00     0.000 HD 
HETATM    5  O   UNL     1      -8.480   6.965  65.457  1.00  0.00    -0.144 OA 
ENDROOT
BRANCH   2   6
HETATM    6  C   UNL     1      -8.609   9.135  66.393  1.00  0.00    -0.125 A  
HETATM    7  C   UNL     1      -9.279  10.332  66.555  1.00  0.00    -0.179 A  
HETATM    8  C   UNL     1      -8.309  11.302  66.901  1.00  0.00    -0.155 A  
HETATM    9  C   UNL     1      -8.331  12.673  67.216  1.00  0.00    -0.189 A  
HETATM   10  C   UNL     1      -7.140  13.364  67.513  1.00  0.00    -0.144 A  
HETATM   11  C   UNL     1      -5.940  12.629  67.477  1.00  0.00    -0.151 A  
HETATM   12  O   UNL     1      -7.264   9.327  66.595  1.00  0.00    -0.081 OA 
HETATM   13  C   UNL     1      -7.091  10.642  66.900  1.00  0.00    -0.109 A  
HETATM   14  C   UNL     1      -5.881  11.259  67.178  1.00  0.00    -0.082 A  
BRANCH  10  15
HETATM   15  N   UNL     1      -7.151  14.714  67.796  1.00  0.00    -0.160 NA 
HETATM   16  C   UNL     1      -6.489  15.277  68.983  1.00  0.00    -0.111 C  
HETATM   17  N   UNL     1      -6.417  17.559  67.860  1.00  0.00    -0.160 NA 
HETATM   18  C   UNL     1      -5.649  16.507  68.576  1.00  0.00    -0.116 C  
HETATM   19  C   UNL     1      -7.916  15.678  66.986  1.00  0.00    -0.233 C  
HETATM   20  C   UNL     1      -7.047  16.922  66.677  1.00  0.00    -0.254 C  
BRANCH  17  21
HETATM   21  C   UNL     1      -7.432  18.193  68.716  1.00  0.00    -0.274 C  
BRANCH  21  22
HETATM   22  C   UNL     1      -8.528  18.915  67.918  1.00  0.00    -0.318 C  
BRANCH  22  23
HETATM   23  C   UNL     1      -9.931  18.749  68.507  1.00  0.00    -0.450 C  
BRANCH  23  24
HETATM   24  C   UNL     1     -10.734  17.686  67.759  1.00  0.00    -0.336 C  
BRANCH  24  25
HETATM   25  C   UNL     1     -10.876  16.427  68.541  1.00  0.00    -0.339 A  
HETATM   26  C   UNL     1     -10.596  16.259  69.883  1.00  0.00    -0.280 A  
HETATM   27  N   UNL     1     -10.832  14.952  70.205  1.00  0.00    -0.460 NA 
HETATM   28  H   UNL     1     -10.706  14.550  71.134  1.00  0.00     0.000 HD 
HETATM   29  C   UNL     1     -11.265  14.257  69.100  1.00  0.00    -0.270 A  
HETATM   30  C   UNL     1     -11.311  15.159  68.041  1.00  0.00    -0.346 A  
HETATM   31  C   UNL     1     -11.739  14.698  66.774  1.00  0.00    -0.355 A  
HETATM   32  C   UNL     1     -12.088  13.351  66.613  1.00  0.00    -0.429 A  
HETATM   33  C   UNL     1     -12.024  12.472  67.697  1.00  0.00    -0.287 A  
HETATM   34  C   UNL     1     -12.513  12.875  65.327  1.00  0.00    -0.493 C  
HETATM   35  N   UNL     1     -12.853  12.481  64.289  1.00  0.00    -0.746 NA 
HETATM   36  C   UNL     1     -11.613  12.909  68.962  1.00  0.00    -0.372 A  
ENDBRANCH  24  25
ENDBRANCH  23  24
ENDBRANCH  22  23
ENDBRANCH  21  22
ENDBRANCH  17  21
ENDBRANCH  10  15
ENDBRANCH   2   6
TORSDOF 7
ENDMDL
MODEL       26
REMARK 921   NORMALIZED FREE ENERGY PREDICTED BY IDOCK:   -6.76 KCAL/MOL
REMARK 922        TOTAL FREE ENERGY PREDICTED BY IDOCK:  -10.80 KCAL/MOL
REMARK 923 INTER-LIGAND FREE ENERGY PREDICTED BY IDOCK:   -9.48 KCAL/MOL
REMARK 924 INTRA-LIGAND FREE ENERGY PREDICTED BY IDOCK:   -1.33 KCAL/MOL
REMARK 927      BINDING AFFINITY PREDICTED BY RF-SCORE:    0.00 PKD
ROOT
HETATM    1  N   UNL     1     -10.402   3.224  72.565  1.00  0.00    -0.146 N  
HETATM    2  C   UNL     1     -10.643   4.446  73.125  1.00  0.00    -0.200 C  
HETATM    3  H1  UNL     1     -10.084   3.157  71.598  1.00  0.00     0.000 HD 
HETATM    4  H2  UNL     1     -10.541   2.377  73.115  1.00  0.00     0.000 HD 
HETATM    5  O   UNL     1     -11.026   4.528  74.288  1.00  0.00    -0.292 OA 
ENDROOT
BRANCH   2   6
HETATM    6  C   UNL     1     -10.393   5.576  72.263  1.00  0.00    -0.210 A  
HETATM    7  C   UNL     1     -10.961   5.922  71.052  1.00  0.00    -0.335 A  
HETATM    8  C   UNL     1     -10.381   7.152  70.663  1.00  0.00    -0.217 A  
HETATM    9  C   UNL     1     -10.534   8.033  69.577  1.00  0.00    -0.226 A  
HETATM   10  C   UNL     1      -9.764   9.209  69.489  1.00  0.00    -0.173 A  
HETATM   11  C   UNL     1      -8.843   9.459  70.524  1.00  0.00    -0.287 A  
HETATM   12  O   UNL     1      -9.467   6.522  72.627  1.00  0.00    -0.148 OA 
HETATM   13  C   UNL     1      -9.465   7.472  71.652  1.00  0.00    -0.149 A  
HETATM   14  C   UNL     1      -8.671   8.609  71.628  1.00  0.00    -0.270 A  
BRANCH  10  15
HETATM   15  N   UNL     1      -9.889  10.064  68.413  1.00  0.00    -0.151 NA 
HETATM   16  C   UNL     1      -9.266  11.397  68.387  1.00  0.00    -0.183 C  
HETATM   17  N   UNL     1      -9.403  11.411  65.847  1.00  0.00    -0.225 NA 
HETATM   18  C   UNL     1      -8.540  11.606  67.040  1.00  0.00    -0.169 C  
HETATM   19  C   UNL     1     -10.742   9.747  67.255  1.00  0.00    -0.227 C  
HETATM   20  C   UNL     1      -9.988  10.050  65.937  1.00  0.00    -0.269 C  
BRANCH  17  21
HETATM   21  C   UNL     1     -10.461  12.429  65.746  1.00  0.00    -0.259 C  
BRANCH  21  22
HETATM   22  C   UNL     1      -9.986  13.834  66.145  1.00  0.00    -0.318 C  
BRANCH  22  23
HETATM   23  C   UNL     1     -10.853  14.496  67.219  1.00  0.00    -0.297 C  
BRANCH  23  24
HETATM   24  C   UNL     1     -10.069  14.735  68.508  1.00  0.00    -0.230 C  
BRANCH  24  25
HETATM   25  C   UNL     1     -10.953  15.087  69.654  1.00  0.00    -0.294 A  
HETATM   26  C   UNL     1     -11.157  16.351  70.172  1.00  0.00    -0.277 A  
HETATM   27  N   UNL     1     -12.015  16.241  71.231  1.00  0.00    -0.622 NA 
HETATM   28  H   UNL     1     -12.338  17.022  71.802  1.00  0.00     0.000 HD 
HETATM   29  C   UNL     1     -12.380  14.929  71.417  1.00  0.00    -0.335 A  
HETATM   30  C   UNL     1     -11.736  14.181  70.435  1.00  0.00    -0.312 A  
HETATM   31  C   UNL     1     -11.951  12.783  70.394  1.00  0.00    -0.331 A  
HETATM   32  C   UNL     1     -12.789  12.188  71.346  1.00  0.00    -0.378 A  
HETATM   33  C   UNL     1     -13.415  12.968  72.321  1.00  0.00    -0.645 A  
HETATM   34  C   UNL     1     -13.003  10.769  71.316  1.00  0.00    -0.402 C  
HETATM   35  N   UNL     1     -13.178   9.621  71.301  1.00  0.00    -0.369 NA 
HETATM   36  C   UNL     1     -13.224  14.354  72.374  1.00  0.00    -0.528 A  
ENDBRANCH  24  25
ENDBRANCH  23  24
ENDBRANCH  22  23
ENDBRANCH  21  22
ENDBRANCH  17  21
ENDBRANCH  10  15
ENDBRANCH   2   6
TORSDOF 7
ENDMDL
MODEL       27
REMARK 921   NORMALIZED FREE ENERGY PREDICTED BY IDOCK:   -6.74 KCAL/MOL
REMARK 922        TOTAL FREE ENERGY PREDICTED BY IDOCK:  -10.78 KCAL/MOL
REMARK 923 INTER-LIGAND FREE ENERGY PREDICTED BY IDOCK:   -9.45 KCAL/MOL
REMARK 924 INTRA-LIGAND FREE ENERGY PREDICTED BY IDOCK:   -1.33 KCAL/MOL
REMARK 927      BINDING AFFINITY PREDICTED BY RF-SCORE:    0.00 PKD
ROOT
HETATM    1  N   UNL     1     -12.474  15.016  63.777  1.00  0.00    -1.049 N  
HETATM    2  C   UNL     1     -11.442  14.987  64.672  1.00  0.00    -0.381 C  
HETATM    3  H1  UNL     1     -13.072  14.199  63.657  1.00  0.00     0.000 HD 
HETATM    4  H2  UNL     1     -12.647  15.858  63.228  1.00  0.00     0.000 HD 
HETATM    5  O   UNL     1     -10.723  15.971  64.817  1.00  0.00    -0.611 OA 
ENDROOT
BRANCH   2   6
HETATM    6  C   UNL     1     -11.304  13.755  65.409  1.00  0.00    -0.308 A  
HETATM    7  C   UNL     1     -10.845  12.516  65.004  1.00  0.00    -0.324 A  
HETATM    8  C   UNL     1     -10.878  11.674  66.141  1.00  0.00    -0.343 A  
HETATM    9  C   UNL     1     -10.530  10.338  66.410  1.00  0.00    -0.233 A  
HETATM   10  C   UNL     1     -10.706   9.792  67.696  1.00  0.00    -0.274 A  
HETATM   11  C   UNL     1     -11.242  10.633  68.689  1.00  0.00    -0.337 A  
HETATM   12  O   UNL     1     -11.645  13.710  66.738  1.00  0.00    -0.330 OA 
HETATM   13  C   UNL     1     -11.386  12.447  67.174  1.00  0.00    -0.329 A  
HETATM   14  C   UNL     1     -11.590  11.974  68.461  1.00  0.00    -0.363 A  
BRANCH  10  15
HETATM   15  N   UNL     1     -10.392   8.474  67.960  1.00  0.00    -0.219 NA 
HETATM   16  C   UNL     1     -10.501   7.891  69.306  1.00  0.00    -0.216 C  
HETATM   17  N   UNL     1     -10.618   5.563  68.287  1.00  0.00    -0.173 NA 
HETATM   18  C   UNL     1     -11.234   6.534  69.227  1.00  0.00    -0.328 C  
HETATM   19  C   UNL     1      -9.825   7.583  66.933  1.00  0.00    -0.226 C  
HETATM   20  C   UNL     1     -10.548   6.214  66.955  1.00  0.00    -0.315 C  
BRANCH  17  21
HETATM   21  C   UNL     1      -9.284   5.125  68.727  1.00  0.00    -0.119 C  
BRANCH  21  22
HETATM   22  C   UNL     1      -9.308   3.800  69.502  1.00  0.00    -0.249 C  
BRANCH  22  23
HETATM   23  C   UNL     1      -8.186   3.669  70.535  1.00  0.00    -0.070 C  
BRANCH  23  24
HETATM   24  C   UNL     1      -8.730   3.312  71.917  1.00  0.00    -0.113 C  
BRANCH  24  25
HETATM   25  C   UNL     1      -9.658   4.349  72.447  1.00  0.00    -0.198 A  
HETATM   26  C   UNL     1     -10.910   4.129  72.986  1.00  0.00    -0.164 A  
HETATM   27  N   UNL     1     -11.443   5.340  73.329  1.00  0.00    -0.508 NA 
HETATM   28  H   UNL     1     -12.363   5.474  73.749  1.00  0.00     0.000 HD 
HETATM   29  C   UNL     1     -10.563   6.353  73.027  1.00  0.00    -0.242 A  
HETATM   30  C   UNL     1      -9.428   5.761  72.480  1.00  0.00    -0.151 A  
HETATM   31  C   UNL     1      -8.351   6.589  72.087  1.00  0.00    -0.107 A  
HETATM   32  C   UNL     1      -8.458   7.977  72.243  1.00  0.00    -0.206 A  
HETATM   33  C   UNL     1      -9.615   8.539  72.790  1.00  0.00    -0.243 A  
HETATM   34  C   UNL     1      -7.373   8.824  71.836  1.00  0.00    -0.012 C  
HETATM   35  N   UNL     1      -6.500   9.516  71.506  1.00  0.00    -0.294 NA 
HETATM   36  C   UNL     1     -10.689   7.737  73.195  1.00  0.00    -0.414 A  
ENDBRANCH  24  25
ENDBRANCH  23  24
ENDBRANCH  22  23
ENDBRANCH  21  22
ENDBRANCH  17  21
ENDBRANCH  10  15
ENDBRANCH   2   6
TORSDOF 7
ENDMDL
MODEL       28
REMARK 921   NORMALIZED FREE ENERGY PREDICTED BY IDOCK:   -6.72 KCAL/MOL
REMARK 922        TOTAL FREE ENERGY PREDICTED BY IDOCK:  -10.74 KCAL/MOL
REMARK 923 INTER-LIGAND FREE ENERGY PREDICTED BY IDOCK:   -9.65 KCAL/MOL
REMARK 924 INTRA-LIGAND FREE ENERGY PREDICTED BY IDOCK:   -1.10 KCAL/MOL
REMARK 927      BINDING AFFINITY PREDICTED BY RF-SCORE:    0.00 PKD
ROOT
HETATM    1  N   UNL     1      -9.425  20.471  66.935  1.00  0.00    -0.615 N  
HETATM    2  C   UNL     1     -10.298  19.725  66.195  1.00  0.00    -0.524 C  
HETATM    3  H1  UNL     1      -8.929  20.050  67.720  1.00  0.00     0.000 HD 
HETATM    4  H2  UNL     1      -9.270  21.451  66.702  1.00  0.00     0.000 HD 
HETATM    5  O   UNL     1     -10.895  20.231  65.250  1.00  0.00    -0.200 OA 
ENDROOT
BRANCH   2   6
HETATM    6  C   UNL     1     -10.424  18.346  66.601  1.00  0.00    -0.385 A  
HETATM    7  C   UNL     1     -10.130  17.181  65.918  1.00  0.00    -0.257 A  
HETATM    8  C   UNL     1     -10.400  16.109  66.801  1.00  0.00    -0.291 A  
HETATM    9  C   UNL     1     -10.293  14.708  66.739  1.00  0.00    -0.268 A  
HETATM   10  C   UNL     1     -10.671  13.907  67.834  1.00  0.00    -0.240 A  
HETATM   11  C   UNL     1     -11.158  14.564  68.980  1.00  0.00    -0.279 A  
HETATM   12  O   UNL     1     -10.889  18.043  67.856  1.00  0.00    -0.367 OA 
HETATM   13  C   UNL     1     -10.874  16.687  67.969  1.00  0.00    -0.337 A  
HETATM   14  C   UNL     1     -11.267  15.960  69.082  1.00  0.00    -0.334 A  
BRANCH  10  15
HETATM   15  N   UNL     1     -10.595  12.530  67.769  1.00  0.00    -0.215 NA 
HETATM   16  C   UNL     1      -9.372  11.826  67.358  1.00  0.00    -0.174 C  
HETATM   17  N   UNL     1     -10.194   9.719  68.522  1.00  0.00    -0.179 NA 
HETATM   18  C   UNL     1      -9.074  10.679  68.348  1.00  0.00    -0.156 C  
HETATM   19  C   UNL     1     -11.767  11.669  68.006  1.00  0.00    -0.281 C  
HETATM   20  C   UNL     1     -11.386  10.496  68.943  1.00  0.00    -0.251 C  
BRANCH  17  21
HETATM   21  C   UNL     1     -10.474   8.954  67.296  1.00  0.00    -0.277 C  
BRANCH  21  22
HETATM   22  C   UNL     1      -9.264   8.151  66.797  1.00  0.00    -0.206 C  
BRANCH  22  23
HETATM   23  C   UNL     1      -9.613   6.734  66.333  1.00  0.00    -0.149 C  
BRANCH  23  24
HETATM   24  C   UNL     1     -10.833   6.184  67.070  1.00  0.00    -0.435 C  
BRANCH  24  25
HETATM   25  C   UNL     1     -10.478   5.571  68.379  1.00  0.00    -0.227 A  
HETATM   26  C   UNL     1      -9.606   4.519  68.581  1.00  0.00    -0.157 A  
HETATM   27  N   UNL     1      -9.578   4.243  69.920  1.00  0.00    -0.194 NA 
HETATM   28  H   UNL     1      -9.016   3.508  70.351  1.00  0.00     0.000 HD 
HETATM   29  C   UNL     1     -10.414   5.094  70.602  1.00  0.00    -0.199 A  
HETATM   30  C   UNL     1     -10.987   5.947  69.662  1.00  0.00    -0.447 A  
HETATM   31  C   UNL     1     -11.892   6.939  70.106  1.00  0.00    -0.266 A  
HETATM   32  C   UNL     1     -12.199   7.029  71.470  1.00  0.00    -0.407 A  
HETATM   33  C   UNL     1     -11.610   6.154  72.385  1.00  0.00    -0.338 A  
HETATM   34  C   UNL     1     -13.124   8.028  71.926  1.00  0.00    -0.311 C  
HETATM   35  N   UNL     1     -13.875   8.831  72.302  1.00  0.00    -0.443 NA 
HETATM   36  C   UNL     1     -10.704   5.170  71.969  1.00  0.00    -0.236 A  
ENDBRANCH  24  25
ENDBRANCH  23  24
ENDBRANCH  22  23
ENDBRANCH  21  22
ENDBRANCH  17  21
ENDBRANCH  10  15
ENDBRANCH   2   6
TORSDOF 7
ENDMDL
MODEL       29
REMARK 921   NORMALIZED FREE ENERGY PREDICTED BY IDOCK:   -6.69 KCAL/MOL
REMARK 922        TOTAL FREE ENERGY PREDICTED BY IDOCK:  -10.70 KCAL/MOL
REMARK 923 INTER-LIGAND FREE ENERGY PREDICTED BY IDOCK:   -9.95 KCAL/MOL
REMARK 924 INTRA-LIGAND FREE ENERGY PREDICTED BY IDOCK:   -0.75 KCAL/MOL
REMARK 927      BINDING AFFINITY PREDICTED BY RF-SCORE:    0.00 PKD
ROOT
HETATM    1  N   UNL     1      -9.956   1.817  64.308  1.00  0.00    -0.312 N  
HETATM    2  C   UNL     1      -8.963   2.152  65.184  1.00  0.00    -0.124 C  
HETATM    3  H1  UNL     1     -10.891   2.208  64.418  1.00  0.00     0.000 HD 
HETATM    4  H2  UNL     1      -9.761   1.173  63.542  1.00  0.00     0.000 HD 
HETATM    5  O   UNL     1      -7.838   1.681  65.052  1.00  0.00    -0.069 OA 
ENDROOT
BRANCH   2   6
HETATM    6  C   UNL     1      -9.344   3.086  66.216  1.00  0.00    -0.069 A  
HETATM    7  C   UNL     1      -9.936   4.331  66.123  1.00  0.00    -0.231 A  
HETATM    8  C   UNL     1     -10.130   4.793  67.446  1.00  0.00    -0.177 A  
HETATM    9  C   UNL     1     -10.688   5.942  68.034  1.00  0.00    -0.332 A  
HETATM   10  C   UNL     1     -10.712   6.096  69.434  1.00  0.00    -0.320 A  
HETATM   11  C   UNL     1     -10.156   5.061  70.209  1.00  0.00    -0.339 A  
HETATM   12  O   UNL     1      -9.137   2.769  67.535  1.00  0.00    -0.147 OA 
HETATM   13  C   UNL     1      -9.614   3.809  68.274  1.00  0.00    -0.106 A  
HETATM   14  C   UNL     1      -9.600   3.896  69.657  1.00  0.00    -0.259 A  
BRANCH  10  15
HETATM   15  N   UNL     1     -11.234   7.233  70.018  1.00  0.00    -0.243 NA 
HETATM   16  C   UNL     1     -12.381   7.193  70.937  1.00  0.00    -0.292 C  
HETATM   17  N   UNL     1     -11.695   9.449  71.891  1.00  0.00    -0.363 NA 
HETATM   18  C   UNL     1     -12.075   8.044  72.189  1.00  0.00    -0.343 C  
HETATM   19  C   UNL     1     -10.747   8.581  69.679  1.00  0.00    -0.197 C  
HETATM   20  C   UNL     1     -10.532   9.410  70.969  1.00  0.00    -0.322 C  
BRANCH  17  21
HETATM   21  C   UNL     1     -12.803  10.218  71.304  1.00  0.00    -0.422 C  
BRANCH  21  22
HETATM   22  C   UNL     1     -13.038  11.566  72.001  1.00  0.00    -0.430 C  
BRANCH  22  23
HETATM   23  C   UNL     1     -12.799  12.778  71.096  1.00  0.00    -0.315 C  
BRANCH  23  24
HETATM   24  C   UNL     1     -12.009  12.400  69.845  1.00  0.00    -0.369 C  
BRANCH  24  25
HETATM   25  C   UNL     1     -11.546  13.593  69.082  1.00  0.00    -0.356 A  
HETATM   26  C   UNL     1     -11.003  14.745  69.615  1.00  0.00    -0.261 A  
HETATM   27  N   UNL     1     -10.736  15.603  68.585  1.00  0.00    -0.246 NA 
HETATM   28  H   UNL     1     -10.331  16.533  68.693  1.00  0.00     0.000 HD 
HETATM   29  C   UNL     1     -11.092  15.036  67.385  1.00  0.00    -0.324 A  
HETATM   30  C   UNL     1     -11.596  13.768  67.663  1.00  0.00    -0.381 A  
HETATM   31  C   UNL     1     -12.031  12.958  66.589  1.00  0.00    -0.436 A  
HETATM   32  C   UNL     1     -11.960  13.453  65.281  1.00  0.00    -0.409 A  
HETATM   33  C   UNL     1     -11.454  14.732  65.037  1.00  0.00    -0.389 A  
HETATM   34  C   UNL     1     -12.409  12.639  64.187  1.00  0.00    -0.436 C  
HETATM   35  N   UNL     1     -12.775  11.988  63.297  1.00  0.00    -0.687 NA 
HETATM   36  C   UNL     1     -11.009  15.548  66.085  1.00  0.00    -0.247 A  
ENDBRANCH  24  25
ENDBRANCH  23  24
ENDBRANCH  22  23
ENDBRANCH  21  22
ENDBRANCH  17  21
ENDBRANCH  10  15
ENDBRANCH   2   6
TORSDOF 7
ENDMDL
MODEL       30
REMARK 921   NORMALIZED FREE ENERGY PREDICTED BY IDOCK:   -6.67 KCAL/MOL
REMARK 922        TOTAL FREE ENERGY PREDICTED BY IDOCK:  -10.68 KCAL/MOL
REMARK 923 INTER-LIGAND FREE ENERGY PREDICTED BY IDOCK:   -9.13 KCAL/MOL
REMARK 924 INTRA-LIGAND FREE ENERGY PREDICTED BY IDOCK:   -1.55 KCAL/MOL
REMARK 927      BINDING AFFINITY PREDICTED BY RF-SCORE:    0.00 PKD
ROOT
HETATM    1  N   UNL     1      -9.447  20.948  66.922  1.00  0.00    -0.670 N  
HETATM    2  C   UNL     1     -10.046  19.841  66.392  1.00  0.00    -0.491 C  
HETATM    3  H1  UNL     1      -8.664  20.848  67.568  1.00  0.00     0.000 HD 
HETATM    4  H2  UNL     1      -9.784  21.877  66.671  1.00  0.00     0.000 HD 
HETATM    5  O   UNL     1     -10.988  19.961  65.614  1.00  0.00    -0.349 OA 
ENDROOT
BRANCH   2   6
HETATM    6  C   UNL     1      -9.475  18.580  66.798  1.00  0.00    -0.301 A  
HETATM    7  C   UNL     1      -9.562  17.328  66.220  1.00  0.00    -0.268 A  
HETATM    8  C   UNL     1      -8.774  16.456  67.007  1.00  0.00    -0.224 A  
HETATM    9  C   UNL     1      -8.429  15.094  66.953  1.00  0.00    -0.278 A  
HETATM   10  C   UNL     1      -7.602  14.520  67.938  1.00  0.00    -0.145 A  
HETATM   11  C   UNL     1      -7.142  15.361  68.968  1.00  0.00    -0.144 A  
HETATM   12  O   UNL     1      -8.690  18.516  67.924  1.00  0.00    -0.274 OA 
HETATM   13  C   UNL     1      -8.271  17.226  68.044  1.00  0.00    -0.223 A  
HETATM   14  C   UNL     1      -7.457  16.727  69.048  1.00  0.00    -0.228 A  
BRANCH  10  15
HETATM   15  N   UNL     1      -7.282  13.177  67.906  1.00  0.00    -0.116 NA 
HETATM   16  C   UNL     1      -5.968  12.690  67.460  1.00  0.00    -0.151 C  
HETATM   17  N   UNL     1      -6.352  10.510  68.714  1.00  0.00    -0.047 NA 
HETATM   18  C   UNL     1      -5.430  11.648  68.466  1.00  0.00    -0.042 C  
HETATM   19  C   UNL     1      -8.269  12.129  68.217  1.00  0.00    -0.168 C  
HETATM   20  C   UNL     1      -7.647  11.076  69.167  1.00  0.00    -0.113 C  
BRANCH  17  21
HETATM   21  C   UNL     1      -6.537   9.666  67.523  1.00  0.00    -0.070 C  
BRANCH  21  22
HETATM   22  C   UNL     1      -7.828   8.837  67.565  1.00  0.00    -0.102 C  
BRANCH  22  23
HETATM   23  C   UNL     1      -8.617   8.855  66.254  1.00  0.00    -0.145 C  
BRANCH  23  24
HETATM   24  C   UNL     1      -8.134   9.965  65.322  1.00  0.00    -0.139 C  
BRANCH  24  25
HETATM   25  C   UNL     1      -9.210  10.453  64.414  1.00  0.00    -0.291 A  
HETATM   26  C   UNL     1      -9.428  10.049  63.112  1.00  0.00    -0.184 A  
HETATM   27  N   UNL     1     -10.493  10.753  62.623  1.00  0.00    -0.724 NA 
HETATM   28  H   UNL     1     -10.872  10.656  61.681  1.00  0.00     0.000 HD 
HETATM   29  C   UNL     1     -10.980  11.612  63.580  1.00  0.00    -0.431 A  
HETATM   30  C   UNL     1     -10.199  11.440  64.721  1.00  0.00    -0.338 A  
HETATM   31  C   UNL     1     -10.498  12.206  65.871  1.00  0.00    -0.288 A  
HETATM   32  C   UNL     1     -11.555  13.125  65.831  1.00  0.00    -0.391 A  
HETATM   33  C   UNL     1     -12.313  13.277  64.668  1.00  0.00    -0.447 A  
HETATM   34  C   UNL     1     -11.856  13.913  66.992  1.00  0.00    -0.415 C  
HETATM   35  N   UNL     1     -12.104  14.558  67.926  1.00  0.00    -0.286 NA 
HETATM   36  C   UNL     1     -12.041  12.521  63.520  1.00  0.00    -0.653 A  
ENDBRANCH  24  25
ENDBRANCH  23  24
ENDBRANCH  22  23
ENDBRANCH  21  22
ENDBRANCH  17  21
ENDBRANCH  10  15
ENDBRANCH   2   6
TORSDOF 7
ENDMDL
MODEL       31
REMARK 921   NORMALIZED FREE ENERGY PREDICTED BY IDOCK:   -6.66 KCAL/MOL
REMARK 922        TOTAL FREE ENERGY PREDICTED BY IDOCK:  -10.66 KCAL/MOL
REMARK 923 INTER-LIGAND FREE ENERGY PREDICTED BY IDOCK:   -9.48 KCAL/MOL
REMARK 924 INTRA-LIGAND FREE ENERGY PREDICTED BY IDOCK:   -1.18 KCAL/MOL
REMARK 927      BINDING AFFINITY PREDICTED BY RF-SCORE:    0.00 PKD
ROOT
HETATM    1  N   UNL     1      -9.782   3.990  72.588  1.00  0.00    -0.139 N  
HETATM    2  C   UNL     1     -10.839   4.848  72.477  1.00  0.00    -0.170 C  
HETATM    3  H1  UNL     1      -9.037   4.000  71.892  1.00  0.00     0.000 HD 
HETATM    4  H2  UNL     1      -9.737   3.339  73.372  1.00  0.00     0.000 HD 
HETATM    5  O   UNL     1     -11.735   4.837  73.315  1.00  0.00    -0.312 OA 
ENDROOT
BRANCH   2   6
HETATM    6  C   UNL     1     -10.788   5.739  71.343  1.00  0.00    -0.251 A  
HETATM    7  C   UNL     1     -10.691   7.116  71.290  1.00  0.00    -0.245 A  
HETATM    8  C   UNL     1     -10.635   7.472  69.922  1.00  0.00    -0.243 A  
HETATM    9  C   UNL     1     -10.511   8.674  69.203  1.00  0.00    -0.223 A  
HETATM   10  C   UNL     1     -10.499   8.674  67.794  1.00  0.00    -0.224 A  
HETATM   11  C   UNL     1     -10.617   7.430  67.146  1.00  0.00    -0.413 A  
HETATM   12  O   UNL     1     -10.823   5.228  70.069  1.00  0.00    -0.245 OA 
HETATM   13  C   UNL     1     -10.732   6.284  69.215  1.00  0.00    -0.305 A  
HETATM   14  C   UNL     1     -10.731   6.210  67.830  1.00  0.00    -0.374 A  
BRANCH  10  15
HETATM   15  N   UNL     1     -10.406   9.853  67.082  1.00  0.00    -0.231 NA 
HETATM   16  C   UNL     1     -10.583  11.170  67.710  1.00  0.00    -0.209 C  
HETATM   17  N   UNL     1      -9.313  12.255  65.791  1.00  0.00    -0.117 NA 
HETATM   18  C   UNL     1      -9.446  12.116  67.265  1.00  0.00    -0.184 C  
HETATM   19  C   UNL     1     -10.228   9.872  65.620  1.00  0.00    -0.159 C  
HETATM   20  C   UNL     1      -9.131  10.893  65.230  1.00  0.00    -0.197 C  
BRANCH  17  21
HETATM   21  C   UNL     1     -10.475  12.922  65.183  1.00  0.00    -0.309 C  
BRANCH  21  22
HETATM   22  C   UNL     1     -10.175  14.354  64.719  1.00  0.00    -0.259 C  
BRANCH  22  23
HETATM   23  C   UNL     1     -10.795  15.433  65.610  1.00  0.00    -0.363 C  
BRANCH  23  24
HETATM   24  C   UNL     1     -11.663  14.826  66.710  1.00  0.00    -0.309 C  
BRANCH  24  25
HETATM   25  C   UNL     1     -11.477  15.506  68.022  1.00  0.00    -0.313 A  
HETATM   26  C   UNL     1     -10.984  16.781  68.220  1.00  0.00    -0.327 A  
HETATM   27  N   UNL     1     -10.948  17.016  69.566  1.00  0.00    -0.335 NA 
HETATM   28  H   UNL     1     -10.624  17.882  69.997  1.00  0.00     0.000 HD 
HETATM   29  C   UNL     1     -11.412  15.921  70.257  1.00  0.00    -0.366 A  
HETATM   30  C   UNL     1     -11.760  14.959  69.313  1.00  0.00    -0.344 A  
HETATM   31  C   UNL     1     -12.281  13.723  69.762  1.00  0.00    -0.368 A  
HETATM   32  C   UNL     1     -12.418  13.493  71.137  1.00  0.00    -0.424 A  
HETATM   33  C   UNL     1     -12.052  14.478  72.057  1.00  0.00    -0.283 A  
HETATM   34  C   UNL     1     -12.936  12.236  71.599  1.00  0.00    -0.311 C  
HETATM   35  N   UNL     1     -13.351  11.221  71.981  1.00  0.00    -0.408 NA 
HETATM   36  C   UNL     1     -11.544  15.712  71.634  1.00  0.00    -0.519 A  
ENDBRANCH  24  25
ENDBRANCH  23  24
ENDBRANCH  22  23
ENDBRANCH  21  22
ENDBRANCH  17  21
ENDBRANCH  10  15
ENDBRANCH   2   6
TORSDOF 7
ENDMDL
MODEL       32
REMARK 921   NORMALIZED FREE ENERGY PREDICTED BY IDOCK:   -6.62 KCAL/MOL
REMARK 922        TOTAL FREE ENERGY PREDICTED BY IDOCK:  -10.61 KCAL/MOL
REMARK 923 INTER-LIGAND FREE ENERGY PREDICTED BY IDOCK:   -9.65 KCAL/MOL
REMARK 924 INTRA-LIGAND FREE ENERGY PREDICTED BY IDOCK:   -0.96 KCAL/MOL
REMARK 927      BINDING AFFINITY PREDICTED BY RF-SCORE:    0.00 PKD
ROOT
HETATM    1  N   UNL     1      -6.755   3.458  67.240  1.00  0.00    -0.045 N  
HETATM    2  C   UNL     1      -7.186   3.902  66.022  1.00  0.00    -0.068 C  
HETATM    3  H1  UNL     1      -6.882   4.036  68.071  1.00  0.00     0.000 HD 
HETATM    4  H2  UNL     1      -6.304   2.547  67.318  1.00  0.00     0.000 HD 
HETATM    5  O   UNL     1      -7.033   3.207  65.022  1.00  0.00    -0.053 OA 
ENDROOT
BRANCH   2   6
HETATM    6  C   UNL     1      -7.828   5.194  66.032  1.00  0.00    -0.103 A  
HETATM    7  C   UNL     1      -7.528   6.348  65.334  1.00  0.00    -0.084 A  
HETATM    8  C   UNL     1      -8.507   7.307  65.687  1.00  0.00    -0.138 A  
HETATM    9  C   UNL     1      -8.783   8.637  65.324  1.00  0.00    -0.200 A  
HETATM   10  C   UNL     1      -9.870   9.329  65.893  1.00  0.00    -0.265 A  
HETATM   11  C   UNL     1     -10.657   8.638  66.833  1.00  0.00    -0.270 A  
HETATM   12  O   UNL     1      -8.931   5.404  66.822  1.00  0.00    -0.112 OA 
HETATM   13  C   UNL     1      -9.335   6.686  66.608  1.00  0.00    -0.163 A  
HETATM   14  C   UNL     1     -10.418   7.307  67.211  1.00  0.00    -0.380 A  
BRANCH  10  15
HETATM   15  N   UNL     1     -10.131  10.644  65.562  1.00  0.00    -0.269 NA 
HETATM   16  C   UNL     1      -9.526  11.297  64.391  1.00  0.00    -0.180 C  
HETATM   17  N   UNL     1     -11.385  13.034  64.401  1.00  0.00    -0.339 NA 
HETATM   18  C   UNL     1     -10.614  12.052  63.596  1.00  0.00    -0.454 C  
HETATM   19  C   UNL     1     -10.951  11.519  66.417  1.00  0.00    -0.284 C  
HETATM   20  C   UNL     1     -11.969  12.305  65.554  1.00  0.00    -0.321 C  
BRANCH  17  21
HETATM   21  C   UNL     1     -10.554  14.159  64.860  1.00  0.00    -0.430 C  
BRANCH  21  22
HETATM   22  C   UNL     1     -11.264  15.052  65.888  1.00  0.00    -0.313 C  
BRANCH  22  23
HETATM   23  C   UNL     1     -10.390  15.424  67.089  1.00  0.00    -0.271 C  
BRANCH  23  24
HETATM   24  C   UNL     1     -10.476  14.374  68.195  1.00  0.00    -0.237 C  
BRANCH  24  25
HETATM   25  C   UNL     1     -11.479  14.727  69.237  1.00  0.00    -0.322 A  
HETATM   26  C   UNL     1     -11.951  15.992  69.525  1.00  0.00    -0.185 A  
HETATM   27  N   UNL     1     -12.837  15.890  70.561  1.00  0.00    -0.664 NA 
HETATM   28  H   UNL     1     -13.337  16.674  70.979  1.00  0.00     0.000 HD 
HETATM   29  C   UNL     1     -12.957  14.579  70.959  1.00  0.00    -0.358 A  
HETATM   30  C   UNL     1     -12.123  13.823  70.140  1.00  0.00    -0.429 A  
HETATM   31  C   UNL     1     -12.066  12.423  70.334  1.00  0.00    -0.381 A  
HETATM   32  C   UNL     1     -12.832  11.837  71.350  1.00  0.00    -0.440 A  
HETATM   33  C   UNL     1     -13.654  12.627  72.158  1.00  0.00    -0.510 A  
HETATM   34  C   UNL     1     -12.771  10.418  71.559  1.00  0.00    -0.459 C  
HETATM   35  N   UNL     1     -12.723   9.272  71.737  1.00  0.00    -0.353 NA 
HETATM   36  C   UNL     1     -13.734  14.013  71.976  1.00  0.00    -0.569 A  
ENDBRANCH  24  25
ENDBRANCH  23  24
ENDBRANCH  22  23
ENDBRANCH  21  22
ENDBRANCH  17  21
ENDBRANCH  10  15
ENDBRANCH   2   6
TORSDOF 7
ENDMDL
MODEL       33
REMARK 921   NORMALIZED FREE ENERGY PREDICTED BY IDOCK:   -6.61 KCAL/MOL
REMARK 922        TOTAL FREE ENERGY PREDICTED BY IDOCK:  -10.59 KCAL/MOL
REMARK 923 INTER-LIGAND FREE ENERGY PREDICTED BY IDOCK:   -9.37 KCAL/MOL
REMARK 924 INTRA-LIGAND FREE ENERGY PREDICTED BY IDOCK:   -1.22 KCAL/MOL
REMARK 927      BINDING AFFINITY PREDICTED BY RF-SCORE:    0.00 PKD
ROOT
HETATM    1  N   UNL     1     -10.738  18.490  66.956  1.00  0.00    -0.372 N  
HETATM    2  C   UNL     1     -10.392  18.005  68.185  1.00  0.00    -0.388 C  
HETATM    3  H1  UNL     1     -11.154  17.873  66.259  1.00  0.00     0.000 HD 
HETATM    4  H2  UNL     1     -10.581  19.473  66.735  1.00  0.00     0.000 HD 
HETATM    5  O   UNL     1      -9.892  18.747  69.024  1.00  0.00    -0.370 OA 
ENDROOT
BRANCH   2   6
HETATM    6  C   UNL     1     -10.679  16.606  68.395  1.00  0.00    -0.353 A  
HETATM    7  C   UNL     1     -10.670  15.854  69.554  1.00  0.00    -0.288 A  
HETATM    8  C   UNL     1     -11.073  14.546  69.198  1.00  0.00    -0.284 A  
HETATM    9  C   UNL     1     -11.289  13.340  69.889  1.00  0.00    -0.067 A  
HETATM   10  C   UNL     1     -11.691  12.177  69.204  1.00  0.00    -0.328 A  
HETATM   11  C   UNL     1     -11.864  12.275  67.810  1.00  0.00    -0.341 A  
HETATM   12  O   UNL     1     -11.042  15.815  67.333  1.00  0.00    -0.311 OA 
HETATM   13  C   UNL     1     -11.278  14.569  67.827  1.00  0.00    -0.298 A  
HETATM   14  C   UNL     1     -11.669  13.463  67.089  1.00  0.00    -0.424 A  
BRANCH  10  15
HETATM   15  N   UNL     1     -11.878  10.984  69.872  1.00  0.00    -0.321 NA 
HETATM   16  C   UNL     1     -10.888   9.898  69.839  1.00  0.00    -0.278 C  
HETATM   17  N   UNL     1     -11.875   8.933  71.976  1.00  0.00    -0.364 NA 
HETATM   18  C   UNL     1     -10.643   9.372  71.270  1.00  0.00    -0.330 C  
HETATM   19  C   UNL     1     -13.131  10.671  70.581  1.00  0.00    -0.169 C  
HETATM   20  C   UNL     1     -12.820  10.077  71.977  1.00  0.00    -0.389 C  
BRANCH  17  21
HETATM   21  C   UNL     1     -12.487   7.749  71.352  1.00  0.00    -0.320 C  
BRANCH  21  22
HETATM   22  C   UNL     1     -11.833   6.430  71.790  1.00  0.00    -0.374 C  
BRANCH  22  23
HETATM   23  C   UNL     1     -10.811   5.887  70.789  1.00  0.00    -0.352 C  
BRANCH  23  24
HETATM   24  C   UNL     1     -11.163   6.277  69.355  1.00  0.00    -0.489 C  
BRANCH  24  25
HETATM   25  C   UNL     1     -10.035   6.050  68.410  1.00  0.00    -0.173 A  
HETATM   26  C   UNL     1      -9.180   4.966  68.402  1.00  0.00    -0.124 A  
HETATM   27  N   UNL     1      -8.271   5.151  67.398  1.00  0.00    -0.107 NA 
HETATM   28  H   UNL     1      -7.518   4.502  67.167  1.00  0.00     0.000 HD 
HETATM   29  C   UNL     1      -8.514   6.336  66.744  1.00  0.00    -0.111 A  
HETATM   30  C   UNL     1      -9.622   6.920  67.352  1.00  0.00    -0.163 A  
HETATM   31  C   UNL     1     -10.095   8.158  66.858  1.00  0.00    -0.367 A  
HETATM   32  C   UNL     1      -9.431   8.771  65.788  1.00  0.00    -0.239 A  
HETATM   33  C   UNL     1      -8.318   8.160  65.206  1.00  0.00    -0.160 A  
HETATM   34  C   UNL     1      -9.900  10.033  65.289  1.00  0.00    -0.318 C  
HETATM   35  N   UNL     1     -10.271  11.056  64.883  1.00  0.00    -0.290 NA 
HETATM   36  C   UNL     1      -7.839   6.930  65.672  1.00  0.00    -0.109 A  
ENDBRANCH  24  25
ENDBRANCH  23  24
ENDBRANCH  22  23
ENDBRANCH  21  22
ENDBRANCH  17  21
ENDBRANCH  10  15
ENDBRANCH   2   6
TORSDOF 7
ENDMDL
MODEL       34
REMARK 921   NORMALIZED FREE ENERGY PREDICTED BY IDOCK:   -6.59 KCAL/MOL
REMARK 922        TOTAL FREE ENERGY PREDICTED BY IDOCK:  -10.57 KCAL/MOL
REMARK 923 INTER-LIGAND FREE ENERGY PREDICTED BY IDOCK:   -8.72 KCAL/MOL
REMARK 924 INTRA-LIGAND FREE ENERGY PREDICTED BY IDOCK:   -1.85 KCAL/MOL
REMARK 927      BINDING AFFINITY PREDICTED BY RF-SCORE:    0.00 PKD
ROOT
HETATM    1  N   UNL     1     -12.406  15.370  74.229  1.00  0.00    -0.669 N  
HETATM    2  C   UNL     1     -13.194  15.623  73.143  1.00  0.00    -0.569 C  
HETATM    3  H1  UNL     1     -11.619  14.726  74.154  1.00  0.00     0.000 HD 
HETATM    4  H2  UNL     1     -12.606  15.826  75.119  1.00  0.00     0.000 HD 
HETATM    5  O   UNL     1     -14.140  16.399  73.233  1.00  0.00    -0.354 OA 
ENDROOT
BRANCH   2   6
HETATM    6  C   UNL     1     -12.807  14.940  71.932  1.00  0.00    -0.328 A  
HETATM    7  C   UNL     1     -12.438  15.442  70.699  1.00  0.00    -0.478 A  
HETATM    8  C   UNL     1     -12.116  14.332  69.883  1.00  0.00    -0.404 A  
HETATM    9  C   UNL     1     -11.658  14.156  68.565  1.00  0.00    -0.351 A  
HETATM   10  C   UNL     1     -11.441  12.866  68.043  1.00  0.00    -0.319 A  
HETATM   11  C   UNL     1     -11.702  11.773  68.890  1.00  0.00    -0.384 A  
HETATM   12  O   UNL     1     -12.754  13.569  71.908  1.00  0.00    -0.281 OA 
HETATM   13  C   UNL     1     -12.337  13.208  70.663  1.00  0.00    -0.326 A  
HETATM   14  C   UNL     1     -12.149  11.910  70.214  1.00  0.00    -0.409 A  
BRANCH  10  15
HETATM   15  N   UNL     1     -11.019  12.685  66.741  1.00  0.00    -0.254 NA 
HETATM   16  C   UNL     1     -11.399  11.509  65.945  1.00  0.00    -0.108 C  
HETATM   17  N   UNL     1     -10.890  12.793  63.808  1.00  0.00    -0.410 NA 
HETATM   18  C   UNL     1     -11.874  11.960  64.546  1.00  0.00    -0.224 C  
HETATM   19  C   UNL     1     -10.069  13.605  66.091  1.00  0.00    -0.306 C  
HETATM   20  C   UNL     1     -10.560  13.959  64.666  1.00  0.00    -0.412 C  
BRANCH  17  21
HETATM   21  C   UNL     1      -9.674  12.044  63.454  1.00  0.00    -0.182 C  
BRANCH  21  22
HETATM   22  C   UNL     1      -9.971  10.668  62.839  1.00  0.00    -0.185 C  
BRANCH  22  23
HETATM   23  C   UNL     1      -8.745   9.755  62.751  1.00  0.00    -0.227 C  
BRANCH  23  24
HETATM   24  C   UNL     1      -7.730  10.067  63.849  1.00  0.00    -0.145 C  
BRANCH  24  25
HETATM   25  C   UNL     1      -8.119   9.488  65.165  1.00  0.00    -0.126 A  
HETATM   26  C   UNL     1      -8.640   8.228  65.383  1.00  0.00    -0.151 A  
HETATM   27  N   UNL     1      -8.886   8.096  66.721  1.00  0.00    -0.132 NA 
HETATM   28  H   UNL     1      -9.275   7.264  67.163  1.00  0.00     0.000 HD 
HETATM   29  C   UNL     1      -8.533   9.246  67.388  1.00  0.00    -0.122 A  
HETATM   30  C   UNL     1      -8.039  10.136  66.437  1.00  0.00    -0.122 A  
HETATM   31  C   UNL     1      -7.592  11.408  66.864  1.00  0.00    -0.151 A  
HETATM   32  C   UNL     1      -7.670  11.745  68.222  1.00  0.00    -0.130 A  
HETATM   33  C   UNL     1      -8.177  10.830  69.148  1.00  0.00    -0.124 A  
HETATM   34  C   UNL     1      -7.227  13.038  68.660  1.00  0.00    -0.101 C  
HETATM   35  N   UNL     1      -6.874  14.084  69.022  1.00  0.00    -0.108 NA 
HETATM   36  C   UNL     1      -8.617   9.562  68.748  1.00  0.00    -0.123 A  
ENDBRANCH  24  25
ENDBRANCH  23  24
ENDBRANCH  22  23
ENDBRANCH  21  22
ENDBRANCH  17  21
ENDBRANCH  10  15
ENDBRANCH   2   6
TORSDOF 7
ENDMDL
MODEL       35
REMARK 921   NORMALIZED FREE ENERGY PREDICTED BY IDOCK:   -6.57 KCAL/MOL
REMARK 922        TOTAL FREE ENERGY PREDICTED BY IDOCK:  -10.53 KCAL/MOL
REMARK 923 INTER-LIGAND FREE ENERGY PREDICTED BY IDOCK:   -9.89 KCAL/MOL
REMARK 924 INTRA-LIGAND FREE ENERGY PREDICTED BY IDOCK:   -0.64 KCAL/MOL
REMARK 927      BINDING AFFINITY PREDICTED BY RF-SCORE:    0.00 PKD
ROOT
HETATM    1  N   UNL     1     -10.600   3.687  64.952  1.00  0.00    -0.468 N  
HETATM    2  C   UNL     1      -9.886   4.125  66.030  1.00  0.00    -0.196 C  
HETATM    3  H1  UNL     1     -11.090   4.354  64.355  1.00  0.00     0.000 HD 
HETATM    4  H2  UNL     1     -10.645   2.690  64.742  1.00  0.00     0.000 HD 
HETATM    5  O   UNL     1      -9.297   3.322  66.748  1.00  0.00    -0.178 OA 
ENDROOT
BRANCH   2   6
HETATM    6  C   UNL     1      -9.874   5.555  66.219  1.00  0.00    -0.145 A  
HETATM    7  C   UNL     1     -10.708   6.368  66.963  1.00  0.00    -0.434 A  
HETATM    8  C   UNL     1     -10.218   7.689  66.832  1.00  0.00    -0.365 A  
HETATM    9  C   UNL     1     -10.583   8.948  67.341  1.00  0.00    -0.305 A  
HETATM   10  C   UNL     1      -9.861  10.105  66.989  1.00  0.00    -0.191 A  
HETATM   11  C   UNL     1      -8.771   9.946  66.112  1.00  0.00    -0.150 A  
HETATM   12  O   UNL     1      -8.907   6.317  65.611  1.00  0.00    -0.147 OA 
HETATM   13  C   UNL     1      -9.123   7.608  65.986  1.00  0.00    -0.105 A  
HETATM   14  C   UNL     1      -8.371   8.704  65.594  1.00  0.00    -0.151 A  
BRANCH  10  15
HETATM   15  N   UNL     1     -10.231  11.348  67.462  1.00  0.00    -0.182 NA 
HETATM   16  C   UNL     1     -10.305  12.532  66.594  1.00  0.00    -0.227 C  
HETATM   17  N   UNL     1     -11.859  13.658  68.266  1.00  0.00    -0.357 NA 
HETATM   18  C   UNL     1     -11.633  13.279  66.847  1.00  0.00    -0.364 C  
HETATM   19  C   UNL     1     -10.474  11.600  68.893  1.00  0.00    -0.175 C  
HETATM   20  C   UNL     1     -11.777  12.417  69.076  1.00  0.00    -0.323 C  
BRANCH  17  21
HETATM   21  C   UNL     1     -10.890  14.658  68.741  1.00  0.00    -0.255 C  
BRANCH  21  22
HETATM   22  C   UNL     1     -11.228  16.087  68.290  1.00  0.00    -0.350 C  
BRANCH  22  23
HETATM   23  C   UNL     1     -10.004  16.996  68.152  1.00  0.00    -0.287 C  
BRANCH  23  24
HETATM   24  C   UNL     1     -10.401  18.470  68.100  1.00  0.00    -0.391 C  
BRANCH  24  25
HETATM   25  C   UNL     1      -9.343  19.322  67.488  1.00  0.00    -0.369 A  
HETATM   26  C   UNL     1      -9.364  19.868  66.220  1.00  0.00    -0.385 A  
HETATM   27  N   UNL     1      -8.198  20.558  66.037  1.00  0.00    -0.507 NA 
HETATM   28  H   UNL     1      -7.947  21.061  65.186  1.00  0.00     0.000 HD 
HETATM   29  C   UNL     1      -7.411  20.476  67.162  1.00  0.00    -0.328 A  
HETATM   30  C   UNL     1      -8.108  19.713  68.095  1.00  0.00    -0.353 A  
HETATM   31  C   UNL     1      -7.520  19.481  69.360  1.00  0.00    -0.197 A  
HETATM   32  C   UNL     1      -6.251  20.008  69.635  1.00  0.00    -0.383 A  
HETATM   33  C   UNL     1      -5.577  20.764  68.673  1.00  0.00    -0.382 A  
HETATM   34  C   UNL     1      -5.643  19.767  70.913  1.00  0.00    -0.270 C  
HETATM   35  N   UNL     1      -5.144  19.574  71.944  1.00  0.00    -0.593 NA 
HETATM   36  C   UNL     1      -6.146  21.015  67.418  1.00  0.00    -0.376 A  
ENDBRANCH  24  25
ENDBRANCH  23  24
ENDBRANCH  22  23
ENDBRANCH  21  22
ENDBRANCH  17  21
ENDBRANCH  10  15
ENDBRANCH   2   6
TORSDOF 7
ENDMDL
MODEL       36
REMARK 921   NORMALIZED FREE ENERGY PREDICTED BY IDOCK:   -6.55 KCAL/MOL
REMARK 922        TOTAL FREE ENERGY PREDICTED BY IDOCK:  -10.51 KCAL/MOL
REMARK 923 INTER-LIGAND FREE ENERGY PREDICTED BY IDOCK:   -9.88 KCAL/MOL
REMARK 924 INTRA-LIGAND FREE ENERGY PREDICTED BY IDOCK:   -0.63 KCAL/MOL
REMARK 927      BINDING AFFINITY PREDICTED BY RF-SCORE:    0.00 PKD
ROOT
HETATM    1  N   UNL     1     -10.517   4.135  72.450  1.00  0.00    -0.144 N  
HETATM    2  C   UNL     1     -10.015   4.093  71.181  1.00  0.00    -0.140 C  
HETATM    3  H1  UNL     1     -10.947   4.990  72.804  1.00  0.00     0.000 HD 
HETATM    4  H2  UNL     1     -10.463   3.309  73.045  1.00  0.00     0.000 HD 
HETATM    5  O   UNL     1      -9.498   3.065  70.755  1.00  0.00    -0.143 OA 
ENDROOT
BRANCH   2   6
HETATM    6  C   UNL     1     -10.164   5.311  70.421  1.00  0.00    -0.268 A  
HETATM    7  C   UNL     1     -10.188   6.628  70.835  1.00  0.00    -0.219 A  
HETATM    8  C   UNL     1     -10.314   7.423  69.672  1.00  0.00    -0.226 A  
HETATM    9  C   UNL     1     -10.371   8.802  69.401  1.00  0.00    -0.217 A  
HETATM   10  C   UNL     1     -10.515   9.272  68.081  1.00  0.00    -0.215 A  
HETATM   11  C   UNL     1     -10.602   8.311  67.057  1.00  0.00    -0.328 A  
HETATM   12  O   UNL     1     -10.299   5.253  69.056  1.00  0.00    -0.210 OA 
HETATM   13  C   UNL     1     -10.390   6.535  68.610  1.00  0.00    -0.191 A  
HETATM   14  C   UNL     1     -10.537   6.927  67.288  1.00  0.00    -0.393 A  
BRANCH  10  15
HETATM   15  N   UNL     1     -10.600  10.623  67.811  1.00  0.00    -0.217 NA 
HETATM   16  C   UNL     1     -10.513  11.161  66.445  1.00  0.00    -0.260 C  
HETATM   17  N   UNL     1     -11.683  13.287  67.209  1.00  0.00    -0.358 NA 
HETATM   18  C   UNL     1     -11.648  12.183  66.216  1.00  0.00    -0.360 C  
HETATM   19  C   UNL     1     -10.676  11.633  68.881  1.00  0.00    -0.207 C  
HETATM   20  C   UNL     1     -11.778  12.671  68.557  1.00  0.00    -0.330 C  
BRANCH  17  21
HETATM   21  C   UNL     1     -10.505  14.164  67.116  1.00  0.00    -0.270 C  
BRANCH  21  22
HETATM   22  C   UNL     1     -10.663  15.472  67.905  1.00  0.00    -0.294 C  
BRANCH  22  23
HETATM   23  C   UNL     1     -10.434  16.731  67.064  1.00  0.00    -0.285 C  
BRANCH  23  24
HETATM   24  C   UNL     1     -10.409  17.990  67.928  1.00  0.00    -0.402 C  
BRANCH  24  25
HETATM   25  C   UNL     1      -9.456  19.013  67.416  1.00  0.00    -0.347 A  
HETATM   26  C   UNL     1      -9.551  19.694  66.219  1.00  0.00    -0.405 A  
HETATM   27  N   UNL     1      -8.467  20.520  66.114  1.00  0.00    -0.526 NA 
HETATM   28  H   UNL     1      -8.282  21.140  65.326  1.00  0.00     0.000 HD 
HETATM   29  C   UNL     1      -7.661  20.396  67.221  1.00  0.00    -0.333 A  
HETATM   30  C   UNL     1      -8.261  19.462  68.062  1.00  0.00    -0.353 A  
HETATM   31  C   UNL     1      -7.634  19.152  69.291  1.00  0.00    -0.189 A  
HETATM   32  C   UNL     1      -6.425  19.776  69.623  1.00  0.00    -0.389 A  
HETATM   33  C   UNL     1      -5.847  20.704  68.753  1.00  0.00    -0.384 A  
HETATM   34  C   UNL     1      -5.778  19.458  70.865  1.00  0.00    -0.173 C  
HETATM   35  N   UNL     1      -5.247  19.203  71.866  1.00  0.00    -0.679 NA 
HETATM   36  C   UNL     1      -6.456  21.033  67.535  1.00  0.00    -0.420 A  
ENDBRANCH  24  25
ENDBRANCH  23  24
ENDBRANCH  22  23
ENDBRANCH  21  22
ENDBRANCH  17  21
ENDBRANCH  10  15
ENDBRANCH   2   6
TORSDOF 7
ENDMDL
MODEL       37
REMARK 921   NORMALIZED FREE ENERGY PREDICTED BY IDOCK:   -6.55 KCAL/MOL
REMARK 922        TOTAL FREE ENERGY PREDICTED BY IDOCK:  -10.50 KCAL/MOL
REMARK 923 INTER-LIGAND FREE ENERGY PREDICTED BY IDOCK:   -8.55 KCAL/MOL
REMARK 924 INTRA-LIGAND FREE ENERGY PREDICTED BY IDOCK:   -1.95 KCAL/MOL
REMARK 927      BINDING AFFINITY PREDICTED BY RF-SCORE:    0.00 PKD
ROOT
HETATM    1  N   UNL     1      -9.296   5.576  70.329  1.00  0.00    -0.151 N  
HETATM    2  C   UNL     1      -9.227   6.079  69.062  1.00  0.00    -0.121 C  
HETATM    3  H1  UNL     1      -9.414   6.203  71.125  1.00  0.00     0.000 HD 
HETATM    4  H2  UNL     1      -9.229   4.569  70.481  1.00  0.00     0.000 HD 
HETATM    5  O   UNL     1      -9.085   5.325  68.104  1.00  0.00    -0.108 OA 
ENDROOT
BRANCH   2   6
HETATM    6  C   UNL     1      -9.354   7.513  68.963  1.00  0.00    -0.146 A  
HETATM    7  C   UNL     1      -8.405   8.508  69.100  1.00  0.00    -0.120 A  
HETATM    8  C   UNL     1      -9.063   9.738  68.860  1.00  0.00    -0.148 A  
HETATM    9  C   UNL     1      -8.676  11.089  68.820  1.00  0.00    -0.146 A  
HETATM   10  C   UNL     1      -9.619  12.101  68.553  1.00  0.00    -0.133 A  
HETATM   11  C   UNL     1     -10.951  11.703  68.333  1.00  0.00    -0.265 A  
HETATM   12  O   UNL     1     -10.574   8.073  68.677  1.00  0.00    -0.191 OA 
HETATM   13  C   UNL     1     -10.390   9.420  68.618  1.00  0.00    -0.203 A  
HETATM   14  C   UNL     1     -11.371  10.364  68.354  1.00  0.00    -0.292 A  
BRANCH  10  15
HETATM   15  N   UNL     1      -9.253  13.432  68.540  1.00  0.00    -0.135 NA 
HETATM   16  C   UNL     1     -10.227  14.520  68.711  1.00  0.00    -0.244 C  
HETATM   17  N   UNL     1      -8.351  16.088  69.416  1.00  0.00    -0.209 NA 
HETATM   18  C   UNL     1      -9.693  15.540  69.741  1.00  0.00    -0.241 C  
HETATM   19  C   UNL     1      -7.874  13.861  68.248  1.00  0.00    -0.146 C  
HETATM   20  C   UNL     1      -7.424  14.938  69.267  1.00  0.00    -0.177 C  
BRANCH  17  21
HETATM   21  C   UNL     1      -8.361  16.913  68.197  1.00  0.00    -0.212 C  
BRANCH  21  22
HETATM   22  C   UNL     1      -9.688  17.656  67.983  1.00  0.00    -0.301 C  
BRANCH  22  23
HETATM   23  C   UNL     1     -10.256  17.509  66.570  1.00  0.00    -0.342 C  
BRANCH  23  24
HETATM   24  C   UNL     1      -9.701  16.272  65.865  1.00  0.00    -0.354 C  
BRANCH  24  25
HETATM   25  C   UNL     1     -10.728  15.580  65.039  1.00  0.00    -0.463 A  
HETATM   26  C   UNL     1     -11.811  16.168  64.415  1.00  0.00     0.051 A  
HETATM   27  N   UNL     1     -12.521  15.186  63.782  1.00  0.00    -1.007 NA 
HETATM   28  H   UNL     1     -13.373  15.340  63.243  1.00  0.00     0.000 HD 
HETATM   29  C   UNL     1     -11.924  13.963  63.977  1.00  0.00    -0.387 A  
HETATM   30  C   UNL     1     -10.790  14.179  64.755  1.00  0.00    -0.426 A  
HETATM   31  C   UNL     1      -9.979  13.072  65.096  1.00  0.00    -0.170 A  
HETATM   32  C   UNL     1     -10.342  11.791  64.659  1.00  0.00    -0.336 A  
HETATM   33  C   UNL     1     -11.491  11.610  63.885  1.00  0.00    -0.433 A  
HETATM   34  C   UNL     1      -9.529  10.662  65.011  1.00  0.00    -0.243 C  
HETATM   35  N   UNL     1      -8.878   9.743  65.295  1.00  0.00    -0.162 NA 
HETATM   36  C   UNL     1     -12.303  12.693  63.527  1.00  0.00    -0.591 A  
ENDBRANCH  24  25
ENDBRANCH  23  24
ENDBRANCH  22  23
ENDBRANCH  21  22
ENDBRANCH  17  21
ENDBRANCH  10  15
ENDBRANCH   2   6
TORSDOF 7
ENDMDL
MODEL       38
REMARK 921   NORMALIZED FREE ENERGY PREDICTED BY IDOCK:   -6.53 KCAL/MOL
REMARK 922        TOTAL FREE ENERGY PREDICTED BY IDOCK:  -10.48 KCAL/MOL
REMARK 923 INTER-LIGAND FREE ENERGY PREDICTED BY IDOCK:   -9.24 KCAL/MOL
REMARK 924 INTRA-LIGAND FREE ENERGY PREDICTED BY IDOCK:   -1.23 KCAL/MOL
REMARK 927      BINDING AFFINITY PREDICTED BY RF-SCORE:    0.00 PKD
ROOT
HETATM    1  N   UNL     1     -10.639   6.683  74.184  1.00  0.00    -0.452 N  
HETATM    2  C   UNL     1     -10.922   5.757  73.221  1.00  0.00    -0.253 C  
HETATM    3  H1  UNL     1     -10.272   7.598  73.925  1.00  0.00     0.000 HD 
HETATM    4  H2  UNL     1     -10.796   6.458  75.166  1.00  0.00     0.000 HD 
HETATM    5  O   UNL     1     -11.364   4.656  73.533  1.00  0.00    -0.321 OA 
ENDROOT
BRANCH   2   6
HETATM    6  C   UNL     1     -10.682   6.190  71.865  1.00  0.00    -0.232 A  
HETATM    7  C   UNL     1     -10.601   7.462  71.332  1.00  0.00    -0.232 A  
HETATM    8  C   UNL     1     -10.303   7.312  69.956  1.00  0.00    -0.222 A  
HETATM    9  C   UNL     1     -10.072   8.187  68.880  1.00  0.00    -0.211 A  
HETATM   10  C   UNL     1      -9.804   7.689  67.590  1.00  0.00    -0.164 A  
HETATM   11  C   UNL     1      -9.780   6.290  67.429  1.00  0.00    -0.137 A  
HETATM   12  O   UNL     1     -10.475   5.259  70.877  1.00  0.00    -0.241 OA 
HETATM   13  C   UNL     1     -10.248   5.947  69.724  1.00  0.00    -0.218 A  
HETATM   14  C   UNL     1      -9.994   5.387  68.482  1.00  0.00    -0.223 A  
BRANCH  10  15
HETATM   15  N   UNL     1      -9.604   8.542  66.524  1.00  0.00    -0.216 NA 
HETATM   16  C   UNL     1     -10.177   9.895  66.477  1.00  0.00    -0.222 C  
HETATM   17  N   UNL     1      -8.429  10.575  64.758  1.00  0.00    -0.170 NA 
HETATM   18  C   UNL     1      -9.091  10.905  66.047  1.00  0.00    -0.191 C  
HETATM   19  C   UNL     1      -8.889   8.119  65.307  1.00  0.00     0.008 C  
HETATM   20  C   UNL     1      -7.871   9.206  64.882  1.00  0.00    -0.117 C  
BRANCH  17  21
HETATM   21  C   UNL     1      -9.351  10.664  63.615  1.00  0.00    -0.284 C  
BRANCH  21  22
HETATM   22  C   UNL     1     -10.104  12.000  63.549  1.00  0.00    -0.448 C  
BRANCH  22  23
HETATM   23  C   UNL     1     -11.609  11.873  63.799  1.00  0.00    -0.555 C  
BRANCH  23  24
HETATM   24  C   UNL     1     -12.285  13.241  63.874  1.00  0.00    -0.491 C  
BRANCH  24  25
HETATM   25  C   UNL     1     -11.680  14.117  64.916  1.00  0.00    -0.395 A  
HETATM   26  C   UNL     1     -11.094  15.350  64.710  1.00  0.00    -0.403 A  
HETATM   27  N   UNL     1     -10.642  15.812  65.914  1.00  0.00    -0.329 NA 
HETATM   28  H   UNL     1     -10.164  16.702  66.055  1.00  0.00     0.000 HD 
HETATM   29  C   UNL     1     -10.921  14.905  66.910  1.00  0.00    -0.327 A  
HETATM   30  C   UNL     1     -11.582  13.833  66.315  1.00  0.00    -0.369 A  
HETATM   31  C   UNL     1     -11.996  12.753  67.128  1.00  0.00    -0.351 A  
HETATM   32  C   UNL     1     -11.719  12.780  68.501  1.00  0.00    -0.371 A  
HETATM   33  C   UNL     1     -11.048  13.869  69.064  1.00  0.00    -0.302 A  
HETATM   34  C   UNL     1     -12.127  11.682  69.331  1.00  0.00    -0.263 C  
HETATM   35  N   UNL     1     -12.451  10.795  70.008  1.00  0.00    -0.302 NA 
HETATM   36  C   UNL     1     -10.638  14.953  68.279  1.00  0.00    -0.240 A  
ENDBRANCH  24  25
ENDBRANCH  23  24
ENDBRANCH  22  23
ENDBRANCH  21  22
ENDBRANCH  17  21
ENDBRANCH  10  15
ENDBRANCH   2   6
TORSDOF 7
ENDMDL
MODEL       39
REMARK 921   NORMALIZED FREE ENERGY PREDICTED BY IDOCK:   -6.51 KCAL/MOL
REMARK 922        TOTAL FREE ENERGY PREDICTED BY IDOCK:  -10.46 KCAL/MOL
REMARK 923 INTER-LIGAND FREE ENERGY PREDICTED BY IDOCK:   -9.21 KCAL/MOL
REMARK 924 INTRA-LIGAND FREE ENERGY PREDICTED BY IDOCK:   -1.24 KCAL/MOL
REMARK 927      BINDING AFFINITY PREDICTED BY RF-SCORE:    0.00 PKD
ROOT
HETATM    1  N   UNL     1     -10.666   4.248  72.760  1.00  0.00    -0.168 N  
HETATM    2  C   UNL     1      -9.944   5.330  73.175  1.00  0.00    -0.167 C  
HETATM    3  H1  UNL     1     -11.464   4.371  72.137  1.00  0.00     0.000 HD 
HETATM    4  H2  UNL     1     -10.406   3.313  73.075  1.00  0.00     0.000 HD 
HETATM    5  O   UNL     1      -8.984   5.182  73.924  1.00  0.00    -0.117 OA 
ENDROOT
BRANCH   2   6
HETATM    6  C   UNL     1     -10.387   6.600  72.651  1.00  0.00    -0.196 A  
HETATM    7  C   UNL     1      -9.729   7.521  71.860  1.00  0.00    -0.191 A  
HETATM    8  C   UNL     1     -10.644   8.569  71.603  1.00  0.00    -0.353 A  
HETATM    9  C   UNL     1     -10.615   9.767  70.865  1.00  0.00    -0.344 A  
HETATM   10  C   UNL     1     -11.737  10.617  70.827  1.00  0.00    -0.335 A  
HETATM   11  C   UNL     1     -12.876  10.220  71.554  1.00  0.00    -0.557 A  
HETATM   12  O   UNL     1     -11.659   7.043  72.919  1.00  0.00    -0.177 OA 
HETATM   13  C   UNL     1     -11.806   8.237  72.281  1.00  0.00    -0.388 A  
HETATM   14  C   UNL     1     -12.944   9.028  72.291  1.00  0.00    -0.490 A  
BRANCH  10  15
HETATM   15  N   UNL     1     -11.707  11.807  70.128  1.00  0.00    -0.304 NA 
HETATM   16  C   UNL     1     -12.489  12.983  70.537  1.00  0.00    -0.231 C  
HETATM   17  N   UNL     1     -10.923  14.486  69.211  1.00  0.00    -0.256 NA 
HETATM   18  C   UNL     1     -11.592  14.239  70.514  1.00  0.00    -0.177 C  
HETATM   19  C   UNL     1     -10.969  11.952  68.861  1.00  0.00    -0.238 C  
HETATM   20  C   UNL     1     -10.150  13.266  68.868  1.00  0.00     0.026 C  
BRANCH  17  21
HETATM   21  C   UNL     1     -11.880  14.817  68.143  1.00  0.00    -0.287 C  
BRANCH  21  22
HETATM   22  C   UNL     1     -11.202  15.317  66.859  1.00  0.00    -0.256 C  
BRANCH  22  23
HETATM   23  C   UNL     1     -11.903  14.866  65.575  1.00  0.00    -0.155 C  
BRANCH  23  24
HETATM   24  C   UNL     1     -12.467  13.453  65.707  1.00  0.00    -0.496 C  
BRANCH  24  25
HETATM   25  C   UNL     1     -11.917  12.523  64.682  1.00  0.00    -0.468 A  
HETATM   26  C   UNL     1     -12.523  12.161  63.495  1.00  0.00    -0.555 A  
HETATM   27  N   UNL     1     -11.705  11.273  62.854  1.00  0.00    -0.672 NA 
HETATM   28  H   UNL     1     -11.907  10.840  61.954  1.00  0.00     0.000 HD 
HETATM   29  C   UNL     1     -10.570  11.046  63.597  1.00  0.00    -0.269 A  
HETATM   30  C   UNL     1     -10.670  11.825  64.747  1.00  0.00    -0.355 A  
HETATM   31  C   UNL     1      -9.615  11.785  65.689  1.00  0.00    -0.240 A  
HETATM   32  C   UNL     1      -8.511  10.957  65.451  1.00  0.00    -0.088 A  
HETATM   33  C   UNL     1      -8.446  10.184  64.289  1.00  0.00    -0.179 A  
HETATM   34  C   UNL     1      -7.442  10.904  66.408  1.00  0.00    -0.145 C  
HETATM   35  N   UNL     1      -6.576  10.853  67.180  1.00  0.00    -0.077 NA 
HETATM   36  C   UNL     1      -9.474  10.216  63.339  1.00  0.00    -0.308 A  
ENDBRANCH  24  25
ENDBRANCH  23  24
ENDBRANCH  22  23
ENDBRANCH  21  22
ENDBRANCH  17  21
ENDBRANCH  10  15
ENDBRANCH   2   6
TORSDOF 7
ENDMDL
MODEL       40
REMARK 921   NORMALIZED FREE ENERGY PREDICTED BY IDOCK:   -6.50 KCAL/MOL
REMARK 922        TOTAL FREE ENERGY PREDICTED BY IDOCK:  -10.44 KCAL/MOL
REMARK 923 INTER-LIGAND FREE ENERGY PREDICTED BY IDOCK:   -8.73 KCAL/MOL
REMARK 924 INTRA-LIGAND FREE ENERGY PREDICTED BY IDOCK:   -1.71 KCAL/MOL
REMARK 927      BINDING AFFINITY PREDICTED BY RF-SCORE:    0.00 PKD
ROOT
HETATM    1  N   UNL     1     -14.285  15.519  71.191  1.00  0.00    -0.793 N  
HETATM    2  C   UNL     1     -13.754  14.366  71.693  1.00  0.00    -0.404 C  
HETATM    3  H1  UNL     1     -14.079  15.805  70.234  1.00  0.00     0.000 HD 
HETATM    4  H2  UNL     1     -14.889  16.097  71.775  1.00  0.00     0.000 HD 
HETATM    5  O   UNL     1     -14.002  14.022  72.844  1.00  0.00    -0.617 OA 
ENDROOT
BRANCH   2   6
HETATM    6  C   UNL     1     -12.932  13.618  70.773  1.00  0.00    -0.135 A  
HETATM    7  C   UNL     1     -12.573  12.283  70.774  1.00  0.00    -0.302 A  
HETATM    8  C   UNL     1     -11.790  12.068  69.615  1.00  0.00    -0.401 A  
HETATM    9  C   UNL     1     -11.153  10.960  69.028  1.00  0.00    -0.302 A  
HETATM   10  C   UNL     1     -10.419  11.100  67.834  1.00  0.00    -0.190 A  
HETATM   11  C   UNL     1     -10.351  12.385  67.262  1.00  0.00    -0.227 A  
HETATM   12  O   UNL     1     -12.383  14.244  69.682  1.00  0.00    -0.329 OA 
HETATM   13  C   UNL     1     -11.692  13.299  68.987  1.00  0.00    -0.322 A  
HETATM   14  C   UNL     1     -10.984  13.510  67.814  1.00  0.00    -0.284 A  
BRANCH  10  15
HETATM   15  N   UNL     1      -9.768  10.023  67.266  1.00  0.00    -0.162 NA 
HETATM   16  C   UNL     1     -10.146   9.473  65.956  1.00  0.00    -0.249 C  
HETATM   17  N   UNL     1      -7.843   8.415  65.736  1.00  0.00    -0.097 NA 
HETATM   18  C   UNL     1      -8.881   9.263  65.095  1.00  0.00    -0.198 C  
HETATM   19  C   UNL     1      -8.716   9.279  67.981  1.00  0.00    -0.125 C  
HETATM   20  C   UNL     1      -7.508   9.032  67.044  1.00  0.00    -0.087 C  
BRANCH  17  21
HETATM   21  C   UNL     1      -8.286   7.023  65.913  1.00  0.00    -0.141 C  
BRANCH  21  22
HETATM   22  C   UNL     1      -7.427   6.239  66.916  1.00  0.00    -0.087 C  
BRANCH  22  23
HETATM   23  C   UNL     1      -8.056   4.919  67.368  1.00  0.00    -0.106 C  
BRANCH  23  24
HETATM   24  C   UNL     1      -8.382   4.932  68.861  1.00  0.00    -0.082 C  
BRANCH  24  25
HETATM   25  C   UNL     1      -9.589   5.747  69.172  1.00  0.00    -0.171 A  
HETATM   26  C   UNL     1     -10.735   5.839  68.408  1.00  0.00    -0.209 A  
HETATM   27  N   UNL     1     -11.589   6.708  69.027  1.00  0.00    -0.603 NA 
HETATM   28  H   UNL     1     -12.512   6.964  68.679  1.00  0.00     0.000 HD 
HETATM   29  C   UNL     1     -11.026   7.188  70.187  1.00  0.00    -0.267 A  
HETATM   30  C   UNL     1      -9.773   6.595  70.310  1.00  0.00    -0.182 A  
HETATM   31  C   UNL     1      -8.978   6.913  71.436  1.00  0.00    -0.141 A  
HETATM   32  C   UNL     1      -9.461   7.823  72.385  1.00  0.00    -0.234 A  
HETATM   33  C   UNL     1     -10.722   8.404  72.226  1.00  0.00    -0.417 A  
HETATM   34  C   UNL     1      -8.655   8.158  73.524  1.00  0.00    -0.246 C  
HETATM   35  N   UNL     1      -8.007   8.437  74.447  1.00  0.00    -0.319 NA 
HETATM   36  C   UNL     1     -11.530   8.096  71.125  1.00  0.00    -0.304 A  
ENDBRANCH  24  25
ENDBRANCH  23  24
ENDBRANCH  22  23
ENDBRANCH  21  22
ENDBRANCH  17  21
ENDBRANCH  10  15
ENDBRANCH   2   6
TORSDOF 7
ENDMDL
MODEL       41
REMARK 921   NORMALIZED FREE ENERGY PREDICTED BY IDOCK:   -6.50 KCAL/MOL
REMARK 922        TOTAL FREE ENERGY PREDICTED BY IDOCK:  -10.43 KCAL/MOL
REMARK 923 INTER-LIGAND FREE ENERGY PREDICTED BY IDOCK:   -9.32 KCAL/MOL
REMARK 924 INTRA-LIGAND FREE ENERGY PREDICTED BY IDOCK:   -1.11 KCAL/MOL
REMARK 927      BINDING AFFINITY PREDICTED BY RF-SCORE:    0.00 PKD
ROOT
HETATM    1  N   UNL     1      -7.694   2.767  67.105  1.00  0.00    -0.070 N  
HETATM    2  C   UNL     1      -8.887   2.585  67.744  1.00  0.00    -0.131 C  
HETATM    3  H1  UNL     1      -7.208   3.661  67.169  1.00  0.00     0.000 HD 
HETATM    4  H2  UNL     1      -7.288   2.005  66.562  1.00  0.00     0.000 HD 
HETATM    5  O   UNL     1      -9.472   1.509  67.667  1.00  0.00    -0.126 OA 
ENDROOT
BRANCH   2   6
HETATM    6  C   UNL     1      -9.357   3.721  68.500  1.00  0.00    -0.166 A  
HETATM    7  C   UNL     1      -9.763   4.972  68.078  1.00  0.00    -0.197 A  
HETATM    8  C   UNL     1     -10.167   5.684  69.232  1.00  0.00    -0.309 A  
HETATM    9  C   UNL     1     -10.693   6.963  69.488  1.00  0.00    -0.276 A  
HETATM   10  C   UNL     1     -10.985   7.373  70.803  1.00  0.00    -0.255 A  
HETATM   11  C   UNL     1     -10.728   6.456  71.839  1.00  0.00    -0.262 A  
HETATM   12  O   UNL     1      -9.465   3.636  69.866  1.00  0.00    -0.172 OA 
HETATM   13  C   UNL     1      -9.955   4.829  70.302  1.00  0.00    -0.250 A  
HETATM   14  C   UNL     1     -10.215   5.167  71.621  1.00  0.00    -0.276 A  
BRANCH  10  15
HETATM   15  N   UNL     1     -11.475   8.637  71.064  1.00  0.00    -0.273 NA 
HETATM   16  C   UNL     1     -10.854   9.852  70.517  1.00  0.00    -0.326 C  
HETATM   17  N   UNL     1     -13.030  11.123  70.871  1.00  0.00    -0.256 NA 
HETATM   18  C   UNL     1     -11.944  10.770  69.920  1.00  0.00    -0.342 C  
HETATM   19  C   UNL     1     -12.593   8.866  71.996  1.00  0.00    -0.394 C  
HETATM   20  C   UNL     1     -13.612   9.853  71.374  1.00  0.00    -0.223 C  
BRANCH  17  21
HETATM   21  C   UNL     1     -12.552  11.957  71.985  1.00  0.00     0.211 C  
BRANCH  21  22
HETATM   22  C   UNL     1     -13.389  13.227  72.190  1.00  0.00    -0.618 C  
BRANCH  22  23
HETATM   23  C   UNL     1     -12.631  14.521  71.886  1.00  0.00    -0.413 C  
BRANCH  23  24
HETATM   24  C   UNL     1     -12.719  14.891  70.406  1.00  0.00    -0.370 C  
BRANCH  24  25
HETATM   25  C   UNL     1     -11.414  14.743  69.704  1.00  0.00    -0.327 A  
HETATM   26  C   UNL     1     -10.173  15.086  70.202  1.00  0.00     0.021 A  
HETATM   27  N   UNL     1      -9.241  14.817  69.239  1.00  0.00    -0.390 NA 
HETATM   28  H   UNL     1      -8.238  14.976  69.338  1.00  0.00     0.000 HD 
HETATM   29  C   UNL     1      -9.846  14.301  68.117  1.00  0.00    -0.226 A  
HETATM   30  C   UNL     1     -11.211  14.234  68.382  1.00  0.00    -0.291 A  
HETATM   31  C   UNL     1     -12.074  13.724  67.384  1.00  0.00    -0.378 A  
HETATM   32  C   UNL     1     -11.539  13.316  66.156  1.00  0.00    -0.385 A  
HETATM   33  C   UNL     1     -10.165  13.403  65.921  1.00  0.00    -0.302 A  
HETATM   34  C   UNL     1     -12.410  12.806  65.135  1.00  0.00    -0.496 C  
HETATM   35  N   UNL     1     -13.109  12.397  64.302  1.00  0.00    -0.787 NA 
HETATM   36  C   UNL     1      -9.292  13.895  66.899  1.00  0.00    -0.265 A  
ENDBRANCH  24  25
ENDBRANCH  23  24
ENDBRANCH  22  23
ENDBRANCH  21  22
ENDBRANCH  17  21
ENDBRANCH  10  15
ENDBRANCH   2   6
TORSDOF 7
ENDMDL
MODEL       42
REMARK 921   NORMALIZED FREE ENERGY PREDICTED BY IDOCK:   -6.49 KCAL/MOL
REMARK 922        TOTAL FREE ENERGY PREDICTED BY IDOCK:  -10.43 KCAL/MOL
REMARK 923 INTER-LIGAND FREE ENERGY PREDICTED BY IDOCK:   -8.82 KCAL/MOL
REMARK 924 INTRA-LIGAND FREE ENERGY PREDICTED BY IDOCK:   -1.61 KCAL/MOL
REMARK 927      BINDING AFFINITY PREDICTED BY RF-SCORE:    0.00 PKD
ROOT
HETATM    1  N   UNL     1      -8.845  18.443  67.079  1.00  0.00    -0.264 N  
HETATM    2  C   UNL     1      -9.853  17.725  66.502  1.00  0.00    -0.329 C  
HETATM    3  H1  UNL     1      -8.274  18.027  67.815  1.00  0.00     0.000 HD 
HETATM    4  H2  UNL     1      -8.662  19.398  66.773  1.00  0.00     0.000 HD 
HETATM    5  O   UNL     1     -10.539  18.225  65.617  1.00  0.00    -0.614 OA 
ENDROOT
BRANCH   2   6
HETATM    6  C   UNL     1     -10.008  16.378  66.997  1.00  0.00    -0.261 A  
HETATM    7  C   UNL     1      -9.161  15.290  66.914  1.00  0.00    -0.263 A  
HETATM    8  C   UNL     1      -9.787  14.228  67.608  1.00  0.00    -0.224 A  
HETATM    9  C   UNL     1      -9.455  12.895  67.911  1.00  0.00    -0.208 A  
HETATM   10  C   UNL     1     -10.343  12.078  68.638  1.00  0.00    -0.196 A  
HETATM   11  C   UNL     1     -11.565  12.649  69.041  1.00  0.00    -0.367 A  
HETATM   12  O   UNL     1     -11.143  16.029  67.687  1.00  0.00    -0.317 OA 
HETATM   13  C   UNL     1     -11.002  14.726  68.052  1.00  0.00    -0.271 A  
HETATM   14  C   UNL     1     -11.925  13.978  68.767  1.00  0.00    -0.382 A  
BRANCH  10  15
HETATM   15  N   UNL     1     -10.037  10.761  68.915  1.00  0.00    -0.197 NA 
HETATM   16  C   UNL     1      -8.674  10.323  69.252  1.00  0.00    -0.174 C  
HETATM   17  N   UNL     1      -9.620   8.236  70.358  1.00  0.00    -0.167 NA 
HETATM   18  C   UNL     1      -8.715   9.406  70.494  1.00  0.00    -0.231 C  
HETATM   19  C   UNL     1     -11.031   9.682  68.788  1.00  0.00    -0.117 C  
HETATM   20  C   UNL     1     -10.971   8.754  70.026  1.00  0.00    -0.209 C  
BRANCH  17  21
HETATM   21  C   UNL     1      -9.159   7.285  69.334  1.00  0.00    -0.142 C  
BRANCH  21  22
HETATM   22  C   UNL     1     -10.280   6.818  68.395  1.00  0.00    -0.193 C  
BRANCH  22  23
HETATM   23  C   UNL     1      -9.956   6.998  66.910  1.00  0.00    -0.283 C  
BRANCH  23  24
HETATM   24  C   UNL     1      -8.655   7.773  66.707  1.00  0.00    -0.133 C  
BRANCH  24  25
HETATM   25  C   UNL     1      -8.534   8.330  65.331  1.00  0.00    -0.189 A  
HETATM   26  C   UNL     1      -7.689   7.879  64.336  1.00  0.00    -0.123 A  
HETATM   27  N   UNL     1      -7.865   8.674  63.238  1.00  0.00    -0.143 NA 
HETATM   28  H   UNL     1      -7.364   8.567  62.356  1.00  0.00     0.000 HD 
HETATM   29  C   UNL     1      -8.811   9.638  63.492  1.00  0.00    -0.234 A  
HETATM   30  C   UNL     1      -9.257   9.443  64.796  1.00  0.00    -0.220 A  
HETATM   31  C   UNL     1     -10.253  10.305  65.311  1.00  0.00    -0.308 A  
HETATM   32  C   UNL     1     -10.752  11.338  64.507  1.00  0.00    -0.390 A  
HETATM   33  C   UNL     1     -10.277  11.509  63.204  1.00  0.00    -0.389 A  
HETATM   34  C   UNL     1     -11.755  12.223  65.028  1.00  0.00    -0.352 C  
HETATM   35  N   UNL     1     -12.564  12.945  65.443  1.00  0.00    -0.597 NA 
HETATM   36  C   UNL     1      -9.299  10.661  62.671  1.00  0.00    -0.332 A  
ENDBRANCH  24  25
ENDBRANCH  23  24
ENDBRANCH  22  23
ENDBRANCH  21  22
ENDBRANCH  17  21
ENDBRANCH  10  15
ENDBRANCH   2   6
TORSDOF 7
ENDMDL
MODEL       43
REMARK 921   NORMALIZED FREE ENERGY PREDICTED BY IDOCK:   -6.44 KCAL/MOL
REMARK 922        TOTAL FREE ENERGY PREDICTED BY IDOCK:  -10.35 KCAL/MOL
REMARK 923 INTER-LIGAND FREE ENERGY PREDICTED BY IDOCK:   -9.39 KCAL/MOL
REMARK 924 INTRA-LIGAND FREE ENERGY PREDICTED BY IDOCK:   -0.96 KCAL/MOL
REMARK 927      BINDING AFFINITY PREDICTED BY RF-SCORE:    0.00 PKD
ROOT
HETATM    1  N   UNL     1      -9.113   1.657  72.995  1.00  0.00    -0.062 N  
HETATM    2  C   UNL     1      -9.992   2.527  73.574  1.00  0.00    -0.100 C  
HETATM    3  H1  UNL     1      -8.581   1.937  72.171  1.00  0.00     0.000 HD 
HETATM    4  H2  UNL     1      -8.988   0.724  73.388  1.00  0.00     0.000 HD 
HETATM    5  O   UNL     1     -10.632   2.191  74.565  1.00  0.00    -0.138 OA 
ENDROOT
BRANCH   2   6
HETATM    6  C   UNL     1     -10.072   3.825  72.948  1.00  0.00    -0.157 A  
HETATM    7  C   UNL     1      -9.831   4.206  71.642  1.00  0.00    -0.254 A  
HETATM    8  C   UNL     1     -10.104   5.592  71.562  1.00  0.00    -0.253 A  
HETATM    9  C   UNL     1     -10.082   6.561  70.542  1.00  0.00    -0.213 A  
HETATM   10  C   UNL     1     -10.412   7.903  70.815  1.00  0.00    -0.210 A  
HETATM   11  C   UNL     1     -10.759   8.227  72.140  1.00  0.00    -0.389 A  
HETATM   12  O   UNL     1     -10.455   4.917  73.686  1.00  0.00    -0.193 OA 
HETATM   13  C   UNL     1     -10.470   5.984  72.840  1.00  0.00    -0.219 A  
HETATM   14  C   UNL     1     -10.803   7.286  73.180  1.00  0.00    -0.401 A  
BRANCH  10  15
HETATM   15  N   UNL     1     -10.366   8.864  69.825  1.00  0.00    -0.202 NA 
HETATM   16  C   UNL     1      -9.637   8.663  68.564  1.00  0.00    -0.154 C  
HETATM   17  N   UNL     1     -11.045  10.472  67.462  1.00  0.00    -0.313 NA 
HETATM   18  C   UNL     1     -10.529   9.082  67.375  1.00  0.00    -0.269 C  
HETATM   19  C   UNL     1     -10.955  10.202  70.005  1.00  0.00    -0.307 C  
HETATM   20  C   UNL     1     -11.772  10.597  68.751  1.00  0.00    -0.188 C  
BRANCH  17  21
HETATM   21  C   UNL     1      -9.974  11.477  67.366  1.00  0.00    -0.190 C  
BRANCH  21  22
HETATM   22  C   UNL     1      -9.961  12.217  66.021  1.00  0.00    -0.270 C  
BRANCH  22  23
HETATM   23  C   UNL     1     -11.330  12.282  65.339  1.00  0.00    -0.389 C  
BRANCH  23  24
HETATM   24  C   UNL     1     -12.196  13.399  65.919  1.00  0.00    -0.502 C  
BRANCH  24  25
HETATM   25  C   UNL     1     -11.489  14.709  65.949  1.00  0.00    -0.338 A  
HETATM   26  C   UNL     1     -10.951  15.374  64.865  1.00  0.00    -0.437 A  
HETATM   27  N   UNL     1     -10.369  16.525  65.320  1.00  0.00    -0.628 NA 
HETATM   28  H   UNL     1      -9.893  17.208  64.732  1.00  0.00     0.000 HD 
HETATM   29  C   UNL     1     -10.517  16.629  66.683  1.00  0.00    -0.258 A  
HETATM   30  C   UNL     1     -11.225  15.508  67.106  1.00  0.00    -0.204 A  
HETATM   31  C   UNL     1     -11.525  15.371  68.482  1.00  0.00    -0.360 A  
HETATM   32  C   UNL     1     -11.091  16.354  69.381  1.00  0.00    -0.300 A  
HETATM   33  C   UNL     1     -10.377  17.464  68.923  1.00  0.00    -0.340 A  
HETATM   34  C   UNL     1     -11.383  16.216  70.780  1.00  0.00    -0.368 C  
HETATM   35  N   UNL     1     -11.612  16.110  71.914  1.00  0.00    -0.449 NA 
HETATM   36  C   UNL     1     -10.078  17.624  67.564  1.00  0.00    -0.337 A  
ENDBRANCH  24  25
ENDBRANCH  23  24
ENDBRANCH  22  23
ENDBRANCH  21  22
ENDBRANCH  17  21
ENDBRANCH  10  15
ENDBRANCH   2   6
TORSDOF 7
ENDMDL
MODEL       44
REMARK 921   NORMALIZED FREE ENERGY PREDICTED BY IDOCK:   -6.40 KCAL/MOL
REMARK 922        TOTAL FREE ENERGY PREDICTED BY IDOCK:  -10.29 KCAL/MOL
REMARK 923 INTER-LIGAND FREE ENERGY PREDICTED BY IDOCK:   -8.98 KCAL/MOL
REMARK 924 INTRA-LIGAND FREE ENERGY PREDICTED BY IDOCK:   -1.31 KCAL/MOL
REMARK 927      BINDING AFFINITY PREDICTED BY RF-SCORE:    0.00 PKD
ROOT
HETATM    1  N   UNL     1     -11.185  15.764  64.433  1.00  0.00    -0.756 N  
HETATM    2  C   UNL     1     -11.802  14.546  64.407  1.00  0.00    -0.403 C  
HETATM    3  H1  UNL     1     -10.543  15.998  65.190  1.00  0.00     0.000 HD 
HETATM    4  H2  UNL     1     -11.366  16.442  63.693  1.00  0.00     0.000 HD 
HETATM    5  O   UNL     1     -12.574  14.265  63.496  1.00  0.00    -0.814 OA 
ENDROOT
BRANCH   2   6
HETATM    6  C   UNL     1     -11.456  13.660  65.492  1.00  0.00    -0.305 A  
HETATM    7  C   UNL     1     -12.220  12.727  66.166  1.00  0.00    -0.340 A  
HETATM    8  C   UNL     1     -11.370  12.103  67.109  1.00  0.00    -0.393 A  
HETATM    9  C   UNL     1     -11.513  11.081  68.065  1.00  0.00    -0.365 A  
HETATM   10  C   UNL     1     -10.428  10.698  68.878  1.00  0.00    -0.210 A  
HETATM   11  C   UNL     1      -9.209  11.378  68.694  1.00  0.00    -0.149 A  
HETATM   12  O   UNL     1     -10.178  13.661  65.995  1.00  0.00    -0.292 OA 
HETATM   13  C   UNL     1     -10.135  12.718  66.975  1.00  0.00    -0.240 A  
HETATM   14  C   UNL     1      -9.027  12.394  67.743  1.00  0.00    -0.182 A  
BRANCH  10  15
HETATM   15  N   UNL     1     -10.568   9.715  69.837  1.00  0.00    -0.231 NA 
HETATM   16  C   UNL     1      -9.441   8.885  70.286  1.00  0.00    -0.187 C  
HETATM   17  N   UNL     1     -10.694   8.347  72.434  1.00  0.00    -0.339 NA 
HETATM   18  C   UNL     1      -9.423   8.822  71.829  1.00  0.00    -0.293 C  
HETATM   19  C   UNL     1     -11.880   9.355  70.403  1.00  0.00    -0.090 C  
HETATM   20  C   UNL     1     -11.779   9.232  71.944  1.00  0.00    -0.350 C  
BRANCH  17  21
HETATM   21  C   UNL     1     -10.979   6.940  72.108  1.00  0.00    -0.236 C  
BRANCH  21  22
HETATM   22  C   UNL     1     -10.802   5.996  73.306  1.00  0.00    -0.277 C  
BRANCH  22  23
HETATM   23  C   UNL     1     -10.660   4.523  72.915  1.00  0.00    -0.275 C  
BRANCH  23  24
HETATM   24  C   UNL     1      -9.236   4.193  72.470  1.00  0.00    -0.146 C  
BRANCH  24  25
HETATM   25  C   UNL     1      -9.205   3.387  71.218  1.00  0.00    -0.190 A  
HETATM   26  C   UNL     1      -8.908   2.043  71.117  1.00  0.00    -0.066 A  
HETATM   27  N   UNL     1      -8.962   1.695  69.796  1.00  0.00    -0.069 NA 
HETATM   28  H   UNL     1      -8.784   0.759  69.432  1.00  0.00     0.000 HD 
HETATM   29  C   UNL     1      -9.292   2.786  69.026  1.00  0.00    -0.142 A  
HETATM   30  C   UNL     1      -9.459   3.863  69.893  1.00  0.00    -0.267 A  
HETATM   31  C   UNL     1      -9.816   5.121  69.353  1.00  0.00    -0.269 A  
HETATM   32  C   UNL     1      -9.975   5.255  67.968  1.00  0.00    -0.202 A  
HETATM   33  C   UNL     1      -9.793   4.154  67.127  1.00  0.00    -0.182 A  
HETATM   34  C   UNL     1     -10.326   6.531  67.413  1.00  0.00    -0.208 C  
HETATM   35  N   UNL     1     -10.607   7.562  66.956  1.00  0.00    -0.343 NA 
HETATM   36  C   UNL     1      -9.450   2.898  67.641  1.00  0.00    -0.169 A  
ENDBRANCH  24  25
ENDBRANCH  23  24
ENDBRANCH  22  23
ENDBRANCH  21  22
ENDBRANCH  17  21
ENDBRANCH  10  15
ENDBRANCH   2   6
TORSDOF 7
ENDMDL
MODEL       45
REMARK 921   NORMALIZED FREE ENERGY PREDICTED BY IDOCK:   -6.38 KCAL/MOL
REMARK 922        TOTAL FREE ENERGY PREDICTED BY IDOCK:  -10.27 KCAL/MOL
REMARK 923 INTER-LIGAND FREE ENERGY PREDICTED BY IDOCK:   -8.35 KCAL/MOL
REMARK 924 INTRA-LIGAND FREE ENERGY PREDICTED BY IDOCK:   -1.92 KCAL/MOL
REMARK 927      BINDING AFFINITY PREDICTED BY RF-SCORE:    0.00 PKD
ROOT
HETATM    1  N   UNL     1     -10.893   7.943  67.445  1.00  0.00    -0.521 N  
HETATM    2  C   UNL     1      -9.710   8.156  66.798  1.00  0.00    -0.235 C  
HETATM    3  H1  UNL     1     -11.300   8.677  68.024  1.00  0.00     0.000 HD 
HETATM    4  H2  UNL     1     -11.372   7.048  67.348  1.00  0.00     0.000 HD 
HETATM    5  O   UNL     1      -9.220   7.273  66.100  1.00  0.00    -0.160 OA 
ENDROOT
BRANCH   2   6
HETATM    6  C   UNL     1      -9.133   9.465  66.989  1.00  0.00    -0.134 A  
HETATM    7  C   UNL     1      -9.729  10.667  67.315  1.00  0.00    -0.195 A  
HETATM    8  C   UNL     1      -8.692  11.624  67.420  1.00  0.00    -0.155 A  
HETATM    9  C   UNL     1      -8.619  12.992  67.738  1.00  0.00    -0.189 A  
HETATM   10  C   UNL     1      -7.383  13.668  67.740  1.00  0.00    -0.166 A  
HETATM   11  C   UNL     1      -6.236  12.920  67.410  1.00  0.00    -0.109 A  
HETATM   12  O   UNL     1      -7.777   9.640  66.859  1.00  0.00    -0.097 OA 
HETATM   13  C   UNL     1      -7.519  10.950  67.120  1.00  0.00    -0.109 A  
HETATM   14  C   UNL     1      -6.270  11.552  67.098  1.00  0.00    -0.121 A  
BRANCH  10  15
HETATM   15  N   UNL     1      -7.307  15.016  68.025  1.00  0.00    -0.115 NA 
HETATM   16  C   UNL     1      -7.243  15.530  69.401  1.00  0.00    -0.204 C  
HETATM   17  N   UNL     1      -6.240  17.704  68.542  1.00  0.00    -0.177 NA 
HETATM   18  C   UNL     1      -6.120  16.584  69.511  1.00  0.00    -0.199 C  
HETATM   19  C   UNL     1      -7.393  16.044  66.973  1.00  0.00    -0.223 C  
HETATM   20  C   UNL     1      -6.292  17.113  67.182  1.00  0.00    -0.173 C  
BRANCH  17  21
HETATM   21  C   UNL     1      -7.424  18.541  68.795  1.00  0.00    -0.286 C  
BRANCH  21  22
HETATM   22  C   UNL     1      -7.713  19.535  67.661  1.00  0.00    -0.308 C  
BRANCH  22  23
HETATM   23  C   UNL     1      -9.191  19.908  67.530  1.00  0.00    -0.448 C  
BRANCH  23  24
HETATM   24  C   UNL     1     -10.098  18.850  68.157  1.00  0.00    -0.447 C  
BRANCH  24  25
HETATM   25  C   UNL     1     -10.431  17.752  67.208  1.00  0.00    -0.356 A  
HETATM   26  C   UNL     1     -10.292  17.786  65.835  1.00  0.00    -0.254 A  
HETATM   27  N   UNL     1     -10.732  16.592  65.335  1.00  0.00    -0.507 NA 
HETATM   28  H   UNL     1     -10.744  16.345  64.346  1.00  0.00     0.000 HD 
HETATM   29  C   UNL     1     -11.155  15.773  66.355  1.00  0.00    -0.070 A  
HETATM   30  C   UNL     1     -10.970  16.470  67.545  1.00  0.00    -0.166 A  
HETATM   31  C   UNL     1     -11.320  15.843  68.763  1.00  0.00    -0.378 A  
HETATM   32  C   UNL     1     -11.857  14.549  68.740  1.00  0.00    -0.350 A  
HETATM   33  C   UNL     1     -12.035  13.880  67.527  1.00  0.00    -0.421 A  
HETATM   34  C   UNL     1     -12.225  13.910  69.973  1.00  0.00    -0.344 C  
HETATM   35  N   UNL     1     -12.528  13.388  70.965  1.00  0.00    -0.371 NA 
HETATM   36  C   UNL     1     -11.685  14.479  66.311  1.00  0.00    -0.364 A  
ENDBRANCH  24  25
ENDBRANCH  23  24
ENDBRANCH  22  23
ENDBRANCH  21  22
ENDBRANCH  17  21
ENDBRANCH  10  15
ENDBRANCH   2   6
TORSDOF 7
ENDMDL
MODEL       46
REMARK 921   NORMALIZED FREE ENERGY PREDICTED BY IDOCK:   -6.38 KCAL/MOL
REMARK 922        TOTAL FREE ENERGY PREDICTED BY IDOCK:  -10.27 KCAL/MOL
REMARK 923 INTER-LIGAND FREE ENERGY PREDICTED BY IDOCK:   -9.66 KCAL/MOL
REMARK 924 INTRA-LIGAND FREE ENERGY PREDICTED BY IDOCK:   -0.61 KCAL/MOL
REMARK 927      BINDING AFFINITY PREDICTED BY RF-SCORE:    0.00 PKD
ROOT
HETATM    1  N   UNL     1      -6.201   7.122  62.449  1.00  0.00    -0.048 N  
HETATM    2  C   UNL     1      -7.509   6.972  62.810  1.00  0.00    -0.091 C  
HETATM    3  H1  UNL     1      -5.737   8.023  62.564  1.00  0.00     0.000 HD 
HETATM    4  H2  UNL     1      -5.686   6.331  62.064  1.00  0.00     0.000 HD 
HETATM    5  O   UNL     1      -8.068   5.888  62.672  1.00  0.00    -0.101 OA 
ENDROOT
BRANCH   2   6
HETATM    6  C   UNL     1      -8.132   8.150  63.363  1.00  0.00    -0.116 A  
HETATM    7  C   UNL     1      -8.261   8.564  64.675  1.00  0.00    -0.162 A  
HETATM    8  C   UNL     1      -8.920   9.815  64.648  1.00  0.00    -0.270 A  
HETATM    9  C   UNL     1      -9.322  10.757  65.612  1.00  0.00    -0.241 A  
HETATM   10  C   UNL     1      -9.990  11.938  65.233  1.00  0.00    -0.251 A  
HETATM   11  C   UNL     1     -10.235  12.130  63.860  1.00  0.00    -0.426 A  
HETATM   12  O   UNL     1      -8.707   9.076  62.528  1.00  0.00    -0.223 OA 
HETATM   13  C   UNL     1      -9.182  10.080  63.313  1.00  0.00    -0.284 A  
HETATM   14  C   UNL     1      -9.838  11.218  62.869  1.00  0.00    -0.317 A  
BRANCH  10  15
HETATM   15  N   UNL     1     -10.412  12.853  66.176  1.00  0.00    -0.265 NA 
HETATM   16  C   UNL     1     -11.832  13.048  66.505  1.00  0.00    -0.403 C  
HETATM   17  N   UNL     1     -11.173  14.069  68.740  1.00  0.00    -0.256 NA 
HETATM   18  C   UNL     1     -12.013  13.065  68.039  1.00  0.00    -0.290 C  
HETATM   19  C   UNL     1      -9.479  13.775  66.845  1.00  0.00    -0.262 C  
HETATM   20  C   UNL     1      -9.760  13.806  68.368  1.00  0.00    -0.219 C  
BRANCH  17  21
HETATM   21  C   UNL     1     -11.553  15.451  68.406  1.00  0.00    -0.354 C  
BRANCH  21  22
HETATM   22  C   UNL     1     -10.904  16.495  69.326  1.00  0.00    -0.326 C  
BRANCH  22  23
HETATM   23  C   UNL     1      -9.766  17.277  68.665  1.00  0.00    -0.301 C  
BRANCH  23  24
HETATM   24  C   UNL     1     -10.261  18.592  68.066  1.00  0.00    -0.426 C  
BRANCH  24  25
HETATM   25  C   UNL     1      -9.169  19.363  67.408  1.00  0.00    -0.371 A  
HETATM   26  C   UNL     1      -9.132  19.766  66.087  1.00  0.00    -0.343 A  
HETATM   27  N   UNL     1      -7.952  20.423  65.878  1.00  0.00    -0.540 NA 
HETATM   28  H   UNL     1      -7.661  20.826  64.988  1.00  0.00     0.000 HD 
HETATM   29  C   UNL     1      -7.213  20.461  67.037  1.00  0.00    -0.299 A  
HETATM   30  C   UNL     1      -7.956  19.811  68.018  1.00  0.00    -0.337 A  
HETATM   31  C   UNL     1      -7.422  19.717  69.325  1.00  0.00    -0.250 A  
HETATM   32  C   UNL     1      -6.160  20.262  69.593  1.00  0.00    -0.379 A  
HETATM   33  C   UNL     1      -5.438  20.902  68.582  1.00  0.00    -0.375 A  
HETATM   34  C   UNL     1      -5.607  20.161  70.914  1.00  0.00    -0.305 C  
HETATM   35  N   UNL     1      -5.152  20.080  71.980  1.00  0.00    -0.476 NA 
HETATM   36  C   UNL     1      -5.953  21.016  67.284  1.00  0.00    -0.354 A  
ENDBRANCH  24  25
ENDBRANCH  23  24
ENDBRANCH  22  23
ENDBRANCH  21  22
ENDBRANCH  17  21
ENDBRANCH  10  15
ENDBRANCH   2   6
TORSDOF 7
ENDMDL
MODEL       47
REMARK 921   NORMALIZED FREE ENERGY PREDICTED BY IDOCK:   -6.35 KCAL/MOL
REMARK 922        TOTAL FREE ENERGY PREDICTED BY IDOCK:  -10.22 KCAL/MOL
REMARK 923 INTER-LIGAND FREE ENERGY PREDICTED BY IDOCK:   -9.03 KCAL/MOL
REMARK 924 INTRA-LIGAND FREE ENERGY PREDICTED BY IDOCK:   -1.19 KCAL/MOL
REMARK 927      BINDING AFFINITY PREDICTED BY RF-SCORE:    0.00 PKD
ROOT
HETATM    1  N   UNL     1     -11.049  15.230  64.569  1.00  0.00    -0.673 N  
HETATM    2  C   UNL     1     -11.820  14.108  64.463  1.00  0.00    -0.436 C  
HETATM    3  H1  UNL     1     -10.363  15.313  65.318  1.00  0.00     0.000 HD 
HETATM    4  H2  UNL     1     -11.161  15.988  63.895  1.00  0.00     0.000 HD 
HETATM    5  O   UNL     1     -12.646  14.009  63.560  1.00  0.00    -0.842 OA 
ENDROOT
BRANCH   2   6
HETATM    6  C   UNL     1     -11.564  13.092  65.454  1.00  0.00    -0.341 A  
HETATM    7  C   UNL     1     -11.983  12.995  66.767  1.00  0.00    -0.434 A  
HETATM    8  C   UNL     1     -11.480  11.772  67.270  1.00  0.00    -0.373 A  
HETATM    9  C   UNL     1     -11.562  11.082  68.493  1.00  0.00    -0.380 A  
HETATM   10  C   UNL     1     -10.910   9.846  68.668  1.00  0.00    -0.209 A  
HETATM   11  C   UNL     1     -10.177   9.340  67.578  1.00  0.00    -0.300 A  
HETATM   12  O   UNL     1     -10.800  11.998  65.131  1.00  0.00    -0.283 OA 
HETATM   13  C   UNL     1     -10.753  11.205  66.236  1.00  0.00    -0.240 A  
HETATM   14  C   UNL     1     -10.082   9.996  66.340  1.00  0.00    -0.307 A  
BRANCH  10  15
HETATM   15  N   UNL     1     -10.963   9.176  69.874  1.00  0.00    -0.229 NA 
HETATM   16  C   UNL     1     -11.295   9.851  71.137  1.00  0.00    -0.370 C  
HETATM   17  N   UNL     1     -11.952   7.616  72.159  1.00  0.00    -0.303 NA 
HETATM   18  C   UNL     1     -12.349   9.025  71.908  1.00  0.00    -0.384 C  
HETATM   19  C   UNL     1     -10.588   7.757  69.999  1.00  0.00    -0.238 C  
HETATM   20  C   UNL     1     -11.641   7.000  70.845  1.00  0.00    -0.328 C  
BRANCH  17  21
HETATM   21  C   UNL     1     -10.803   7.510  73.072  1.00  0.00    -0.392 C  
BRANCH  21  22
HETATM   22  C   UNL     1     -10.375   6.059  73.337  1.00  0.00    -0.247 C  
BRANCH  22  23
HETATM   23  C   UNL     1      -8.948   5.926  73.874  1.00  0.00    -0.126 C  
BRANCH  23  24
HETATM   24  C   UNL     1      -7.948   5.639  72.756  1.00  0.00    -0.102 C  
BRANCH  24  25
HETATM   25  C   UNL     1      -8.082   4.258  72.215  1.00  0.00    -0.092 A  
HETATM   26  C   UNL     1      -7.727   3.089  72.858  1.00  0.00    -0.051 A  
HETATM   27  N   UNL     1      -7.984   2.045  72.013  1.00  0.00    -0.045 NA 
HETATM   28  H   UNL     1      -7.815   1.064  72.232  1.00  0.00     0.000 HD 
HETATM   29  C   UNL     1      -8.503   2.507  70.826  1.00  0.00    -0.054 A  
HETATM   30  C   UNL     1      -8.585   3.893  70.926  1.00  0.00    -0.107 A  
HETATM   31  C   UNL     1      -9.101   4.625  69.831  1.00  0.00    -0.161 A  
HETATM   32  C   UNL     1      -9.500   3.942  68.675  1.00  0.00    -0.217 A  
HETATM   33  C   UNL     1      -9.399   2.551  68.606  1.00  0.00    -0.242 A  
HETATM   34  C   UNL     1     -10.016   4.680  67.556  1.00  0.00    -0.121 C  
HETATM   35  N   UNL     1     -10.430   5.270  66.645  1.00  0.00    -0.279 NA 
HETATM   36  C   UNL     1      -8.900   1.806  69.682  1.00  0.00    -0.122 A  
ENDBRANCH  24  25
ENDBRANCH  23  24
ENDBRANCH  22  23
ENDBRANCH  21  22
ENDBRANCH  17  21
ENDBRANCH  10  15
ENDBRANCH   2   6
TORSDOF 7
ENDMDL
MODEL       48
REMARK 921   NORMALIZED FREE ENERGY PREDICTED BY IDOCK:   -6.34 KCAL/MOL
REMARK 922        TOTAL FREE ENERGY PREDICTED BY IDOCK:  -10.21 KCAL/MOL
REMARK 923 INTER-LIGAND FREE ENERGY PREDICTED BY IDOCK:   -9.22 KCAL/MOL
REMARK 924 INTRA-LIGAND FREE ENERGY PREDICTED BY IDOCK:   -0.99 KCAL/MOL
REMARK 927      BINDING AFFINITY PREDICTED BY RF-SCORE:    0.00 PKD
ROOT
HETATM    1  N   UNL     1     -10.545  20.455  65.262  1.00  0.00    -0.130 N  
HETATM    2  C   UNL     1     -10.072  19.852  66.393  1.00  0.00    -0.499 C  
HETATM    3  H1  UNL     1     -10.810  19.893  64.454  1.00  0.00     0.000 HD 
HETATM    4  H2  UNL     1     -10.634  21.470  65.227  1.00  0.00     0.000 HD 
HETATM    5  O   UNL     1      -9.754  20.529  67.366  1.00  0.00    -0.436 OA 
ENDROOT
BRANCH   2   6
HETATM    6  C   UNL     1     -10.008  18.412  66.340  1.00  0.00    -0.386 A  
HETATM    7  C   UNL     1      -9.324  17.515  67.138  1.00  0.00    -0.250 A  
HETATM    8  C   UNL     1      -9.649  16.219  66.672  1.00  0.00    -0.264 A  
HETATM    9  C   UNL     1      -9.319  14.906  67.050  1.00  0.00    -0.240 A  
HETATM   10  C   UNL     1      -9.825  13.801  66.339  1.00  0.00    -0.298 A  
HETATM   11  C   UNL     1     -10.667  14.068  65.242  1.00  0.00    -0.367 A  
HETATM   12  O   UNL     1     -10.720  17.731  65.383  1.00  0.00    -0.626 OA 
HETATM   13  C   UNL     1     -10.496  16.404  65.590  1.00  0.00    -0.347 A  
HETATM   14  C   UNL     1     -11.027  15.365  64.842  1.00  0.00    -0.453 A  
BRANCH  10  15
HETATM   15  N   UNL     1      -9.483  12.510  66.688  1.00  0.00    -0.237 NA 
HETATM   16  C   UNL     1      -9.025  12.153  68.039  1.00  0.00    -0.189 C  
HETATM   17  N   UNL     1      -9.664   9.728  67.614  1.00  0.00    -0.152 NA 
HETATM   18  C   UNL     1      -9.775  10.895  68.527  1.00  0.00    -0.183 C  
HETATM   19  C   UNL     1      -9.450  11.415  65.702  1.00  0.00    -0.230 C  
HETATM   20  C   UNL     1     -10.148  10.159  66.278  1.00  0.00    -0.238 C  
BRANCH  17  21
HETATM   21  C   UNL     1      -8.289   9.209  67.530  1.00  0.00    -0.116 C  
BRANCH  21  22
HETATM   22  C   UNL     1      -8.227   7.725  67.142  1.00  0.00    -0.118 C  
BRANCH  22  23
HETATM   23  C   UNL     1      -7.468   6.856  68.147  1.00  0.00    -0.099 C  
BRANCH  23  24
HETATM   24  C   UNL     1      -8.323   5.693  68.646  1.00  0.00    -0.106 C  
BRANCH  24  25
HETATM   25  C   UNL     1      -9.616   6.147  69.230  1.00  0.00    -0.153 A  
HETATM   26  C   UNL     1     -10.864   6.022  68.653  1.00  0.00    -0.307 A  
HETATM   27  N   UNL     1     -11.780   6.586  69.497  1.00  0.00    -0.645 NA 
HETATM   28  H   UNL     1     -12.782   6.636  69.319  1.00  0.00     0.000 HD 
HETATM   29  C   UNL     1     -11.156   7.077  70.620  1.00  0.00    -0.272 A  
HETATM   30  C   UNL     1      -9.797   6.808  70.485  1.00  0.00    -0.187 A  
HETATM   31  C   UNL     1      -8.919   7.205  71.521  1.00  0.00    -0.135 A  
HETATM   32  C   UNL     1      -9.434   7.870  72.642  1.00  0.00    -0.284 A  
HETATM   33  C   UNL     1     -10.803   8.129  72.741  1.00  0.00    -0.390 A  
HETATM   34  C   UNL     1      -8.547   8.285  73.692  1.00  0.00    -0.191 C  
HETATM   35  N   UNL     1      -7.835   8.627  74.543  1.00  0.00    -0.370 NA 
HETATM   36  C   UNL     1     -11.691   7.736  71.732  1.00  0.00    -0.323 A  
ENDBRANCH  24  25
ENDBRANCH  23  24
ENDBRANCH  22  23
ENDBRANCH  21  22
ENDBRANCH  17  21
ENDBRANCH  10  15
ENDBRANCH   2   6
TORSDOF 7
ENDMDL
MODEL       49
REMARK 921   NORMALIZED FREE ENERGY PREDICTED BY IDOCK:   -6.31 KCAL/MOL
REMARK 922        TOTAL FREE ENERGY PREDICTED BY IDOCK:  -10.17 KCAL/MOL
REMARK 923 INTER-LIGAND FREE ENERGY PREDICTED BY IDOCK:   -8.60 KCAL/MOL
REMARK 924 INTRA-LIGAND FREE ENERGY PREDICTED BY IDOCK:   -1.58 KCAL/MOL
REMARK 927      BINDING AFFINITY PREDICTED BY RF-SCORE:    0.00 PKD
ROOT
HETATM    1  N   UNL     1     -13.519  15.624  70.681  1.00  0.00    -0.800 N  
HETATM    2  C   UNL     1     -12.583  15.014  69.896  1.00  0.00    -0.164 C  
HETATM    3  H1  UNL     1     -14.021  15.089  71.389  1.00  0.00     0.000 HD 
HETATM    4  H2  UNL     1     -13.716  16.617  70.559  1.00  0.00     0.000 HD 
HETATM    5  O   UNL     1     -11.978  15.657  69.043  1.00  0.00    -0.374 OA 
ENDROOT
BRANCH   2   6
HETATM    6  C   UNL     1     -12.370  13.613  70.170  1.00  0.00    -0.304 A  
HETATM    7  C   UNL     1     -11.473  12.719  69.619  1.00  0.00    -0.255 A  
HETATM    8  C   UNL     1     -11.662  11.485  70.285  1.00  0.00    -0.379 A  
HETATM    9  C   UNL     1     -11.071  10.210  70.221  1.00  0.00    -0.384 A  
HETATM   10  C   UNL     1     -11.523   9.163  71.047  1.00  0.00    -0.306 A  
HETATM   11  C   UNL     1     -12.584   9.446  71.928  1.00  0.00    -0.481 A  
HETATM   12  O   UNL     1     -13.126  12.981  71.126  1.00  0.00    -0.230 OA 
HETATM   13  C   UNL     1     -12.692  11.693  71.188  1.00  0.00    -0.325 A  
HETATM   14  C   UNL     1     -13.190  10.708  72.028  1.00  0.00    -0.473 A  
BRANCH  10  15
HETATM   15  N   UNL     1     -10.966   7.903  70.970  1.00  0.00    -0.240 NA 
HETATM   16  C   UNL     1      -9.530   7.688  70.737  1.00  0.00    -0.162 C  
HETATM   17  N   UNL     1      -9.719   5.351  71.724  1.00  0.00    -0.159 NA 
HETATM   18  C   UNL     1      -8.990   6.645  71.739  1.00  0.00    -0.140 C  
HETATM   19  C   UNL     1     -11.786   6.680  71.011  1.00  0.00    -0.372 C  
HETATM   20  C   UNL     1     -11.153   5.645  71.973  1.00  0.00    -0.230 C  
BRANCH  17  21
HETATM   21  C   UNL     1      -9.547   4.624  70.456  1.00  0.00    -0.198 C  
BRANCH  21  22
HETATM   22  C   UNL     1      -8.080   4.289  70.148  1.00  0.00    -0.060 C  
BRANCH  22  23
HETATM   23  C   UNL     1      -7.492   5.102  68.992  1.00  0.00    -0.069 C  
BRANCH  23  24
HETATM   24  C   UNL     1      -8.217   4.819  67.678  1.00  0.00    -0.104 C  
BRANCH  24  25
HETATM   25  C   UNL     1      -9.266   5.832  67.378  1.00  0.00    -0.109 A  
HETATM   26  C   UNL     1     -10.599   5.578  67.118  1.00  0.00    -0.240 A  
HETATM   27  N   UNL     1     -11.216   6.772  66.867  1.00  0.00    -0.759 NA 
HETATM   28  H   UNL     1     -12.205   6.880  66.643  1.00  0.00     0.000 HD 
HETATM   29  C   UNL     1     -10.315   7.806  66.959  1.00  0.00    -0.334 A  
HETATM   30  C   UNL     1      -9.082   7.248  67.288  1.00  0.00    -0.133 A  
HETATM   31  C   UNL     1      -7.970   8.105  67.454  1.00  0.00    -0.117 A  
HETATM   32  C   UNL     1      -8.131   9.484  67.270  1.00  0.00    -0.110 A  
HETATM   33  C   UNL     1      -9.381  10.010  66.935  1.00  0.00    -0.188 A  
HETATM   34  C   UNL     1      -7.004  10.359  67.428  1.00  0.00    -0.085 C  
HETATM   35  N   UNL     1      -6.095  11.073  67.550  1.00  0.00    -0.048 NA 
HETATM   36  C   UNL     1     -10.498   9.181  66.775  1.00  0.00    -0.266 A  
ENDBRANCH  24  25
ENDBRANCH  23  24
ENDBRANCH  22  23
ENDBRANCH  21  22
ENDBRANCH  17  21
ENDBRANCH  10  15
ENDBRANCH   2   6
TORSDOF 7
ENDMDL
MODEL       50
REMARK 921   NORMALIZED FREE ENERGY PREDICTED BY IDOCK:   -6.29 KCAL/MOL
REMARK 922        TOTAL FREE ENERGY PREDICTED BY IDOCK:  -10.15 KCAL/MOL
REMARK 923 INTER-LIGAND FREE ENERGY PREDICTED BY IDOCK:   -9.23 KCAL/MOL
REMARK 924 INTRA-LIGAND FREE ENERGY PREDICTED BY IDOCK:   -0.91 KCAL/MOL
REMARK 927      BINDING AFFINITY PREDICTED BY RF-SCORE:    0.00 PKD
ROOT
HETATM    1  N   UNL     1     -10.254   2.916  62.967  1.00  0.00    -0.124 N  
HETATM    2  C   UNL     1      -9.307   2.607  63.901  1.00  0.00    -0.113 C  
HETATM    3  H1  UNL     1     -11.023   3.542  63.204  1.00  0.00     0.000 HD 
HETATM    4  H2  UNL     1     -10.191   2.520  62.029  1.00  0.00     0.000 HD 
HETATM    5  O   UNL     1      -8.381   1.853  63.616  1.00  0.00    -0.078 OA 
ENDROOT
BRANCH   2   6
HETATM    6  C   UNL     1      -9.483   3.240  65.186  1.00  0.00    -0.139 A  
HETATM    7  C   UNL     1     -10.089   4.436  65.520  1.00  0.00    -0.251 A  
HETATM    8  C   UNL     1     -10.021   4.551  66.928  1.00  0.00    -0.229 A  
HETATM    9  C   UNL     1     -10.460   5.490  67.879  1.00  0.00    -0.244 A  
HETATM   10  C   UNL     1     -10.208   5.298  69.252  1.00  0.00    -0.231 A  
HETATM   11  C   UNL     1      -9.503   4.138  69.624  1.00  0.00    -0.259 A  
HETATM   12  O   UNL     1      -9.018   2.624  66.321  1.00  0.00    -0.140 OA 
HETATM   13  C   UNL     1      -9.346   3.425  67.372  1.00  0.00    -0.203 A  
HETATM   14  C   UNL     1      -9.060   3.174  68.705  1.00  0.00    -0.209 A  
BRANCH  10  15
HETATM   15  N   UNL     1     -10.611   6.229  70.188  1.00  0.00    -0.227 NA 
HETATM   16  C   UNL     1     -11.999   6.706  70.278  1.00  0.00    -0.240 C  
HETATM   17  N   UNL     1     -11.591   7.436  72.681  1.00  0.00    -0.282 NA 
HETATM   18  C   UNL     1     -12.465   6.676  71.751  1.00  0.00    -0.311 C  
HETATM   19  C   UNL     1      -9.658   6.890  71.095  1.00  0.00    -0.166 C  
HETATM   20  C   UNL     1     -10.215   6.897  72.540  1.00  0.00    -0.183 C  
BRANCH  17  21
HETATM   21  C   UNL     1     -11.615   8.884  72.417  1.00  0.00    -0.167 C  
BRANCH  21  22
HETATM   22  C   UNL     1     -13.029   9.428  72.167  1.00  0.00    -0.503 C  
BRANCH  22  23
HETATM   23  C   UNL     1     -13.148  10.275  70.898  1.00  0.00    -0.423 C  
BRANCH  23  24
HETATM   24  C   UNL     1     -11.810  10.391  70.170  1.00  0.00    -0.379 C  
BRANCH  24  25
HETATM   25  C   UNL     1     -11.798  11.499  69.175  1.00  0.00    -0.406 A  
HETATM   26  C   UNL     1     -11.726  11.367  67.803  1.00  0.00    -0.203 A  
HETATM   27  N   UNL     1     -11.714  12.620  67.256  1.00  0.00    -0.365 NA 
HETATM   28  H   UNL     1     -11.663  12.819  66.258  1.00  0.00     0.000 HD 
HETATM   29  C   UNL     1     -11.779  13.574  68.245  1.00  0.00    -0.359 A  
HETATM   30  C   UNL     1     -11.842  12.900  69.461  1.00  0.00    -0.383 A  
HETATM   31  C   UNL     1     -11.927  13.656  70.654  1.00  0.00    -0.328 A  
HETATM   32  C   UNL     1     -11.930  15.055  70.583  1.00  0.00    -0.370 A  
HETATM   33  C   UNL     1     -11.859  15.699  69.345  1.00  0.00    -0.391 A  
HETATM   34  C   UNL     1     -12.005  15.828  71.790  1.00  0.00    -0.467 C  
HETATM   35  N   UNL     1     -12.062  16.460  72.763  1.00  0.00    -0.523 NA 
HETATM   36  C   UNL     1     -11.784  14.970  68.152  1.00  0.00    -0.335 A  
ENDBRANCH  24  25
ENDBRANCH  23  24
ENDBRANCH  22  23
ENDBRANCH  21  22
ENDBRANCH  17  21
ENDBRANCH  10  15
ENDBRANCH   2   6
TORSDOF 7
ENDMDL
MODEL       51
REMARK 921   NORMALIZED FREE ENERGY PREDICTED BY IDOCK:   -6.29 KCAL/MOL
REMARK 922        TOTAL FREE ENERGY PREDICTED BY IDOCK:  -10.14 KCAL/MOL
REMARK 923 INTER-LIGAND FREE ENERGY PREDICTED BY IDOCK:   -9.19 KCAL/MOL
REMARK 924 INTRA-LIGAND FREE ENERGY PREDICTED BY IDOCK:   -0.96 KCAL/MOL
REMARK 927      BINDING AFFINITY PREDICTED BY RF-SCORE:    0.00 PKD
ROOT
HETATM    1  N   UNL     1      -9.744  20.597  66.975  1.00  0.00    -0.632 N  
HETATM    2  C   UNL     1     -10.461  19.817  66.114  1.00  0.00    -0.509 C  
HETATM    3  H1  UNL     1      -9.240  20.172  67.753  1.00  0.00     0.000 HD 
HETATM    4  H2  UNL     1      -9.713  21.607  66.840  1.00  0.00     0.000 HD 
HETATM    5  O   UNL     1     -11.068  20.327  65.177  1.00  0.00    -0.145 OA 
ENDROOT
BRANCH   2   6
HETATM    6  C   UNL     1     -10.418  18.401  66.387  1.00  0.00    -0.383 A  
HETATM    7  C   UNL     1     -10.417  17.720  67.590  1.00  0.00    -0.393 A  
HETATM    8  C   UNL     1     -10.411  16.340  67.280  1.00  0.00    -0.285 A  
HETATM    9  C   UNL     1     -10.430  15.146  68.023  1.00  0.00    -0.247 A  
HETATM   10  C   UNL     1     -10.404  13.894  67.378  1.00  0.00    -0.252 A  
HETATM   11  C   UNL     1     -10.355  13.892  65.971  1.00  0.00    -0.310 A  
HETATM   12  O   UNL     1     -10.384  17.504  65.348  1.00  0.00    -0.629 OA 
HETATM   13  C   UNL     1     -10.378  16.259  65.897  1.00  0.00    -0.365 A  
HETATM   14  C   UNL     1     -10.346  15.063  65.197  1.00  0.00    -0.422 A  
BRANCH  10  15
HETATM   15  N   UNL     1     -10.395  12.719  68.102  1.00  0.00    -0.232 NA 
HETATM   16  C   UNL     1     -11.624  12.109  68.632  1.00  0.00    -0.321 C  
HETATM   17  N   UNL     1     -10.441   9.862  68.787  1.00  0.00    -0.204 NA 
HETATM   18  C   UNL     1     -11.638  10.600  68.306  1.00  0.00    -0.167 C  
HETATM   19  C   UNL     1      -9.142  12.046  68.487  1.00  0.00    -0.106 C  
HETATM   20  C   UNL     1      -9.246  10.526  68.209  1.00  0.00    -0.152 C  
BRANCH  17  21
HETATM   21  C   UNL     1     -10.359   9.822  70.256  1.00  0.00    -0.291 C  
BRANCH  21  22
HETATM   22  C   UNL     1     -11.652   9.326  70.919  1.00  0.00    -0.364 C  
BRANCH  22  23
HETATM   23  C   UNL     1     -11.421   8.575  72.233  1.00  0.00    -0.445 C  
BRANCH  23  24
HETATM   24  C   UNL     1      -9.935   8.340  72.495  1.00  0.00    -0.373 C  
BRANCH  24  25
HETATM   25  C   UNL     1      -9.591   6.893  72.565  1.00  0.00    -0.165 A  
HETATM   26  C   UNL     1      -9.154   6.208  73.681  1.00  0.00    -0.127 A  
HETATM   27  N   UNL     1      -8.925   4.910  73.320  1.00  0.00    -0.110 NA 
HETATM   28  H   UNL     1      -8.593   4.180  73.949  1.00  0.00     0.000 HD 
HETATM   29  C   UNL     1      -9.205   4.728  71.985  1.00  0.00    -0.136 A  
HETATM   30  C   UNL     1      -9.635   5.955  71.486  1.00  0.00    -0.175 A  
HETATM   31  C   UNL     1     -10.000   6.043  70.123  1.00  0.00    -0.228 A  
HETATM   32  C   UNL     1      -9.907   4.906  69.310  1.00  0.00    -0.272 A  
HETATM   33  C   UNL     1      -9.465   3.693  69.843  1.00  0.00    -0.262 A  
HETATM   34  C   UNL     1     -10.266   4.992  67.923  1.00  0.00    -0.084 C  
HETATM   35  N   UNL     1     -10.552   5.055  66.798  1.00  0.00    -0.224 NA 
HETATM   36  C   UNL     1      -9.108   3.580  71.192  1.00  0.00    -0.177 A  
ENDBRANCH  24  25
ENDBRANCH  23  24
ENDBRANCH  22  23
ENDBRANCH  21  22
ENDBRANCH  17  21
ENDBRANCH  10  15
ENDBRANCH   2   6
TORSDOF 7
ENDMDL
MODEL       52
REMARK 921   NORMALIZED FREE ENERGY PREDICTED BY IDOCK:   -6.29 KCAL/MOL
REMARK 922        TOTAL FREE ENERGY PREDICTED BY IDOCK:  -10.14 KCAL/MOL
REMARK 923 INTER-LIGAND FREE ENERGY PREDICTED BY IDOCK:   -8.60 KCAL/MOL
REMARK 924 INTRA-LIGAND FREE ENERGY PREDICTED BY IDOCK:   -1.54 KCAL/MOL
REMARK 927      BINDING AFFINITY PREDICTED BY RF-SCORE:    0.00 PKD
ROOT
HETATM    1  N   UNL     1     -11.180  15.328  64.451  1.00  0.00    -0.690 N  
HETATM    2  C   UNL     1     -11.834  14.143  64.270  1.00  0.00    -0.397 C  
HETATM    3  H1  UNL     1     -10.572  15.461  65.259  1.00  0.00     0.000 HD 
HETATM    4  H2  UNL     1     -11.300  16.083  63.776  1.00  0.00     0.000 HD 
HETATM    5  O   UNL     1     -12.565  13.984  63.298  1.00  0.00    -0.801 OA 
ENDROOT
BRANCH   2   6
HETATM    6  C   UNL     1     -11.574  13.140  65.273  1.00  0.00    -0.321 A  
HETATM    7  C   UNL     1     -11.989  13.059  66.588  1.00  0.00    -0.453 A  
HETATM    8  C   UNL     1     -11.483  11.842  67.105  1.00  0.00    -0.386 A  
HETATM    9  C   UNL     1     -11.561  11.167  68.336  1.00  0.00    -0.376 A  
HETATM   10  C   UNL     1     -10.907   9.934  68.525  1.00  0.00    -0.217 A  
HETATM   11  C   UNL     1     -10.178   9.415  67.438  1.00  0.00    -0.298 A  
HETATM   12  O   UNL     1     -10.810  12.042  64.961  1.00  0.00    -0.286 OA 
HETATM   13  C   UNL     1     -10.759  11.262  66.075  1.00  0.00    -0.242 A  
HETATM   14  C   UNL     1     -10.087  10.055  66.192  1.00  0.00    -0.317 A  
BRANCH  10  15
HETATM   15  N   UNL     1     -10.957   9.279  69.739  1.00  0.00    -0.224 NA 
HETATM   16  C   UNL     1     -11.302   9.966  70.992  1.00  0.00    -0.386 C  
HETATM   17  N   UNL     1     -11.935   7.735  72.040  1.00  0.00    -0.296 NA 
HETATM   18  C   UNL     1     -12.347   9.137  71.770  1.00  0.00    -0.372 C  
HETATM   19  C   UNL     1     -10.565   7.866  69.883  1.00  0.00    -0.242 C  
HETATM   20  C   UNL     1     -11.611   7.106  70.735  1.00  0.00    -0.318 C  
BRANCH  17  21
HETATM   21  C   UNL     1     -10.788   7.655  72.958  1.00  0.00    -0.400 C  
BRANCH  21  22
HETATM   22  C   UNL     1     -10.615   6.265  73.588  1.00  0.00    -0.280 C  
BRANCH  22  23
HETATM   23  C   UNL     1      -9.154   5.853  73.781  1.00  0.00    -0.127 C  
BRANCH  23  24
HETATM   24  C   UNL     1      -8.890   4.446  73.247  1.00  0.00    -0.106 C  
BRANCH  24  25
HETATM   25  C   UNL     1      -9.004   4.369  71.765  1.00  0.00    -0.157 A  
HETATM   26  C   UNL     1      -9.780   3.481  71.047  1.00  0.00    -0.155 A  
HETATM   27  N   UNL     1      -9.583   3.724  69.717  1.00  0.00    -0.198 NA 
HETATM   28  H   UNL     1     -10.033   3.211  68.958  1.00  0.00     0.000 HD 
HETATM   29  C   UNL     1      -8.692   4.757  69.546  1.00  0.00    -0.086 A  
HETATM   30  C   UNL     1      -8.317   5.190  70.815  1.00  0.00    -0.113 A  
HETATM   31  C   UNL     1      -7.404   6.264  70.925  1.00  0.00    -0.080 A  
HETATM   32  C   UNL     1      -6.891   6.852  69.762  1.00  0.00    -0.051 A  
HETATM   33  C   UNL     1      -7.284   6.389  68.504  1.00  0.00    -0.085 A  
HETATM   34  C   UNL     1      -5.955   7.937  69.867  1.00  0.00    -0.023 C  
HETATM   35  N   UNL     1      -5.195   8.812  69.944  1.00  0.00    -0.029 NA 
HETATM   36  C   UNL     1      -8.194   5.333  68.372  1.00  0.00    -0.090 A  
ENDBRANCH  24  25
ENDBRANCH  23  24
ENDBRANCH  22  23
ENDBRANCH  21  22
ENDBRANCH  17  21
ENDBRANCH  10  15
ENDBRANCH   2   6
TORSDOF 7
ENDMDL
MODEL       53
REMARK 921   NORMALIZED FREE ENERGY PREDICTED BY IDOCK:   -6.29 KCAL/MOL
REMARK 922        TOTAL FREE ENERGY PREDICTED BY IDOCK:  -10.14 KCAL/MOL
REMARK 923 INTER-LIGAND FREE ENERGY PREDICTED BY IDOCK:   -8.95 KCAL/MOL
REMARK 924 INTRA-LIGAND FREE ENERGY PREDICTED BY IDOCK:   -1.19 KCAL/MOL
REMARK 927      BINDING AFFINITY PREDICTED BY RF-SCORE:    0.00 PKD
ROOT
HETATM    1  N   UNL     1     -11.511   2.135  73.945  1.00  0.00    -0.159 N  
HETATM    2  C   UNL     1     -10.370   2.877  73.835  1.00  0.00    -0.147 C  
HETATM    3  H1  UNL     1     -12.359   2.421  73.456  1.00  0.00     0.000 HD 
HETATM    4  H2  UNL     1     -11.515   1.291  74.519  1.00  0.00     0.000 HD 
HETATM    5  O   UNL     1      -9.350   2.533  74.424  1.00  0.00    -0.079 OA 
ENDROOT
BRANCH   2   6
HETATM    6  C   UNL     1     -10.472   4.036  72.983  1.00  0.00    -0.174 A  
HETATM    7  C   UNL     1     -10.748   5.354  73.291  1.00  0.00    -0.320 A  
HETATM    8  C   UNL     1     -10.680   6.083  72.080  1.00  0.00    -0.270 A  
HETATM    9  C   UNL     1     -10.830   7.432  71.713  1.00  0.00    -0.253 A  
HETATM   10  C   UNL     1     -10.705   7.831  70.368  1.00  0.00    -0.236 A  
HETATM   11  C   UNL     1     -10.428   6.829  69.418  1.00  0.00    -0.244 A  
HETATM   12  O   UNL     1     -10.264   3.912  71.631  1.00  0.00    -0.136 OA 
HETATM   13  C   UNL     1     -10.394   5.155  71.092  1.00  0.00    -0.206 A  
HETATM   14  C   UNL     1     -10.261   5.476  69.750  1.00  0.00    -0.336 A  
BRANCH  10  15
HETATM   15  N   UNL     1     -10.878   9.149  69.996  1.00  0.00    -0.232 NA 
HETATM   16  C   UNL     1     -10.295   9.705  68.765  1.00  0.00    -0.213 C  
HETATM   17  N   UNL     1     -12.003  11.590  68.809  1.00  0.00    -0.446 NA 
HETATM   18  C   UNL     1     -11.366  10.516  68.003  1.00  0.00    -0.246 C  
HETATM   19  C   UNL     1     -11.569  10.122  70.859  1.00  0.00    -0.372 C  
HETATM   20  C   UNL     1     -12.572  10.957  70.025  1.00  0.00    -0.187 C  
BRANCH  17  21
HETATM   21  C   UNL     1     -11.057  12.658  69.169  1.00  0.00    -0.195 C  
BRANCH  21  22
HETATM   22  C   UNL     1     -11.593  14.065  68.869  1.00  0.00    -0.351 C  
BRANCH  22  23
HETATM   23  C   UNL     1     -12.228  14.200  67.482  1.00  0.00    -0.258 C  
BRANCH  23  24
HETATM   24  C   UNL     1     -11.207  14.640  66.435  1.00  0.00    -0.336 C  
BRANCH  24  25
HETATM   25  C   UNL     1     -11.228  13.776  65.223  1.00  0.00    -0.311 A  
HETATM   26  C   UNL     1     -12.025  13.947  64.108  1.00  0.00    -0.428 A  
HETATM   27  N   UNL     1     -11.759  12.929  63.236  1.00  0.00    -0.815 NA 
HETATM   28  H   UNL     1     -12.208  12.807  62.328  1.00  0.00     0.000 HD 
HETATM   29  C   UNL     1     -10.800  12.091  63.756  1.00  0.00    -0.420 A  
HETATM   30  C   UNL     1     -10.440  12.602  65.000  1.00  0.00    -0.331 A  
HETATM   31  C   UNL     1      -9.451  11.927  65.752  1.00  0.00    -0.210 A  
HETATM   32  C   UNL     1      -8.873  10.759  65.237  1.00  0.00    -0.200 A  
HETATM   33  C   UNL     1      -9.262  10.271  63.988  1.00  0.00    -0.311 A  
HETATM   34  C   UNL     1      -7.876  10.064  66.001  1.00  0.00    -0.119 C  
HETATM   35  N   UNL     1      -7.071   9.493  66.614  1.00  0.00    -0.085 NA 
HETATM   36  C   UNL     1     -10.232  10.929  63.222  1.00  0.00    -0.317 A  
ENDBRANCH  24  25
ENDBRANCH  23  24
ENDBRANCH  22  23
ENDBRANCH  21  22
ENDBRANCH  17  21
ENDBRANCH  10  15
ENDBRANCH   2   6
TORSDOF 7
ENDMDL
MODEL       54
REMARK 921   NORMALIZED FREE ENERGY PREDICTED BY IDOCK:   -6.28 KCAL/MOL
REMARK 922        TOTAL FREE ENERGY PREDICTED BY IDOCK:  -10.13 KCAL/MOL
REMARK 923 INTER-LIGAND FREE ENERGY PREDICTED BY IDOCK:   -8.49 KCAL/MOL
REMARK 924 INTRA-LIGAND FREE ENERGY PREDICTED BY IDOCK:   -1.64 KCAL/MOL
REMARK 927      BINDING AFFINITY PREDICTED BY RF-SCORE:    0.00 PKD
ROOT
HETATM    1  N   UNL     1     -12.364  13.471  63.160  1.00  0.00    -1.024 N  
HETATM    2  C   UNL     1     -12.428  13.302  64.514  1.00  0.00    -0.319 C  
HETATM    3  H1  UNL     1     -11.698  12.931  62.607  1.00  0.00     0.000 HD 
HETATM    4  H2  UNL     1     -12.983  14.138  62.701  1.00  0.00     0.000 HD 
HETATM    5  O   UNL     1     -13.228  13.952  65.180  1.00  0.00    -0.768 OA 
ENDROOT
BRANCH   2   6
HETATM    6  C   UNL     1     -11.522  12.317  65.053  1.00  0.00    -0.336 A  
HETATM    7  C   UNL     1     -11.211  12.009  66.364  1.00  0.00    -0.389 A  
HETATM    8  C   UNL     1     -10.296  10.930  66.325  1.00  0.00    -0.306 A  
HETATM    9  C   UNL     1      -9.627  10.149  67.284  1.00  0.00    -0.189 A  
HETATM   10  C   UNL     1      -8.744   9.124  66.891  1.00  0.00    -0.123 A  
HETATM   11  C   UNL     1      -8.562   8.921  65.510  1.00  0.00    -0.191 A  
HETATM   12  O   UNL     1     -10.819  11.497  64.205  1.00  0.00    -0.327 OA 
HETATM   13  C   UNL     1     -10.078  10.662  64.983  1.00  0.00    -0.321 A  
HETATM   14  C   UNL     1      -9.221   9.673  64.525  1.00  0.00    -0.277 A  
BRANCH  10  15
HETATM   15  N   UNL     1      -8.063   8.372  67.827  1.00  0.00    -0.121 NA 
HETATM   16  C   UNL     1      -7.331   7.147  67.473  1.00  0.00    -0.092 C  
HETATM   17  N   UNL     1      -5.939   7.367  69.591  1.00  0.00    -0.023 NA 
HETATM   18  C   UNL     1      -5.928   7.174  68.118  1.00  0.00    -0.030 C  
HETATM   19  C   UNL     1      -8.109   8.684  69.266  1.00  0.00    -0.112 C  
HETATM   20  C   UNL     1      -6.684   8.620  69.871  1.00  0.00    -0.042 C  
BRANCH  17  21
HETATM   21  C   UNL     1      -6.542   6.229  70.302  1.00  0.00    -0.045 C  
BRANCH  21  22
HETATM   22  C   UNL     1      -6.712   6.479  71.807  1.00  0.00    -0.063 C  
BRANCH  22  23
HETATM   23  C   UNL     1      -6.740   5.199  72.646  1.00  0.00    -0.069 C  
BRANCH  23  24
HETATM   24  C   UNL     1      -7.993   4.370  72.367  1.00  0.00    -0.092 C  
BRANCH  24  25
HETATM   25  C   UNL     1      -9.247   5.145  72.583  1.00  0.00    -0.146 A  
HETATM   26  C   UNL     1      -9.816   5.459  73.801  1.00  0.00    -0.165 A  
HETATM   27  N   UNL     1     -10.968   6.155  73.564  1.00  0.00    -0.444 NA 
HETATM   28  H   UNL     1     -11.593   6.511  74.287  1.00  0.00     0.000 HD 
HETATM   29  C   UNL     1     -11.167   6.305  72.211  1.00  0.00    -0.283 A  
HETATM   30  C   UNL     1     -10.097   5.688  71.569  1.00  0.00    -0.253 A  
HETATM   31  C   UNL     1     -10.050   5.707  70.155  1.00  0.00    -0.293 A  
HETATM   32  C   UNL     1     -11.083   6.327  69.441  1.00  0.00    -0.477 A  
HETATM   33  C   UNL     1     -12.146   6.930  70.118  1.00  0.00    -0.111 A  
HETATM   34  C   UNL     1     -11.047   6.340  68.005  1.00  0.00    -0.265 C  
HETATM   35  N   UNL     1     -11.026   6.351  66.844  1.00  0.00    -0.380 NA 
HETATM   36  C   UNL     1     -12.207   6.932  71.517  1.00  0.00    -0.415 A  
ENDBRANCH  24  25
ENDBRANCH  23  24
ENDBRANCH  22  23
ENDBRANCH  21  22
ENDBRANCH  17  21
ENDBRANCH  10  15
ENDBRANCH   2   6
TORSDOF 7
ENDMDL
MODEL       55
REMARK 921   NORMALIZED FREE ENERGY PREDICTED BY IDOCK:   -6.22 KCAL/MOL
REMARK 922        TOTAL FREE ENERGY PREDICTED BY IDOCK:  -10.05 KCAL/MOL
REMARK 923 INTER-LIGAND FREE ENERGY PREDICTED BY IDOCK:   -9.04 KCAL/MOL
REMARK 924 INTRA-LIGAND FREE ENERGY PREDICTED BY IDOCK:   -1.01 KCAL/MOL
REMARK 927      BINDING AFFINITY PREDICTED BY RF-SCORE:    0.00 PKD
ROOT
HETATM    1  N   UNL     1     -10.142   2.632  74.485  1.00  0.00    -0.123 N  
HETATM    2  C   UNL     1     -10.244   2.631  73.124  1.00  0.00    -0.132 C  
HETATM    3  H1  UNL     1     -10.095   3.514  74.995  1.00  0.00     0.000 HD 
HETATM    4  H2  UNL     1     -10.113   1.749  74.994  1.00  0.00     0.000 HD 
HETATM    5  O   UNL     1     -10.301   1.570  72.510  1.00  0.00    -0.129 OA 
ENDROOT
BRANCH   2   6
HETATM    6  C   UNL     1     -10.299   3.936  72.511  1.00  0.00    -0.138 A  
HETATM    7  C   UNL     1     -11.055   5.046  72.833  1.00  0.00    -0.348 A  
HETATM    8  C   UNL     1     -10.682   6.072  71.933  1.00  0.00    -0.282 A  
HETATM    9  C   UNL     1     -11.045   7.418  71.742  1.00  0.00    -0.269 A  
HETATM   10  C   UNL     1     -10.468   8.179  70.707  1.00  0.00    -0.202 A  
HETATM   11  C   UNL     1      -9.525   7.540  69.880  1.00  0.00    -0.160 A  
HETATM   12  O   UNL     1      -9.496   4.220  71.434  1.00  0.00    -0.137 OA 
HETATM   13  C   UNL     1      -9.735   5.514  71.089  1.00  0.00    -0.174 A  
HETATM   14  C   UNL     1      -9.131   6.203  70.049  1.00  0.00    -0.151 A  
BRANCH  10  15
HETATM   15  N   UNL     1     -10.839   9.492  70.495  1.00  0.00    -0.266 NA 
HETATM   16  C   UNL     1     -10.209  10.335  69.468  1.00  0.00    -0.236 C  
HETATM   17  N   UNL     1     -12.238  11.868  69.482  1.00  0.00    -0.192 NA 
HETATM   18  C   UNL     1     -11.298  11.068  68.656  1.00  0.00    -0.281 C  
HETATM   19  C   UNL     1     -11.821  10.176  71.355  1.00  0.00    -0.328 C  
HETATM   20  C   UNL     1     -12.839  10.955  70.485  1.00  0.00    -0.220 C  
BRANCH  17  21
HETATM   21  C   UNL     1     -11.578  13.007  70.139  1.00  0.00    -0.064 C  
BRANCH  21  22
HETATM   22  C   UNL     1     -12.569  14.022  70.728  1.00  0.00    -0.431 C  
BRANCH  22  23
HETATM   23  C   UNL     1     -12.188  15.480  70.464  1.00  0.00    -0.444 C  
BRANCH  23  24
HETATM   24  C   UNL     1     -10.704  15.624  70.131  1.00  0.00    -0.355 C  
BRANCH  24  25
HETATM   25  C   UNL     1     -10.475  16.343  68.847  1.00  0.00    -0.285 A  
HETATM   26  C   UNL     1      -9.874  17.576  68.695  1.00  0.00    -0.338 A  
HETATM   27  N   UNL     1      -9.883  17.891  67.364  1.00  0.00    -0.295 NA 
HETATM   28  H   UNL     1      -9.502  18.749  66.967  1.00  0.00     0.000 HD 
HETATM   29  C   UNL     1     -10.478  16.885  66.639  1.00  0.00    -0.257 A  
HETATM   30  C   UNL     1     -10.853  15.894  67.542  1.00  0.00    -0.305 A  
HETATM   31  C   UNL     1     -11.486  14.729  67.049  1.00  0.00    -0.362 A  
HETATM   32  C   UNL     1     -11.732  14.609  65.676  1.00  0.00    -0.304 A  
HETATM   33  C   UNL     1     -11.348  15.626  64.798  1.00  0.00    -0.348 A  
HETATM   34  C   UNL     1     -12.384  13.434  65.170  1.00  0.00    -0.456 C  
HETATM   35  N   UNL     1     -12.914  12.487  64.755  1.00  0.00    -0.842 NA 
HETATM   36  C   UNL     1     -10.712  16.783  65.263  1.00  0.00    -0.183 A  
ENDBRANCH  24  25
ENDBRANCH  23  24
ENDBRANCH  22  23
ENDBRANCH  21  22
ENDBRANCH  17  21
ENDBRANCH  10  15
ENDBRANCH   2   6
TORSDOF 7
ENDMDL
MODEL       56
REMARK 921   NORMALIZED FREE ENERGY PREDICTED BY IDOCK:   -6.20 KCAL/MOL
REMARK 922        TOTAL FREE ENERGY PREDICTED BY IDOCK:  -10.01 KCAL/MOL
REMARK 923 INTER-LIGAND FREE ENERGY PREDICTED BY IDOCK:   -9.16 KCAL/MOL
REMARK 924 INTRA-LIGAND FREE ENERGY PREDICTED BY IDOCK:   -0.86 KCAL/MOL
REMARK 927      BINDING AFFINITY PREDICTED BY RF-SCORE:    0.00 PKD
ROOT
HETATM    1  N   UNL     1     -11.087   6.163  66.439  1.00  0.00    -0.704 N  
HETATM    2  C   UNL     1     -10.712   6.566  67.688  1.00  0.00    -0.307 C  
HETATM    3  H1  UNL     1     -10.894   6.754  65.630  1.00  0.00     0.000 HD 
HETATM    4  H2  UNL     1     -11.560   5.269  66.314  1.00  0.00     0.000 HD 
HETATM    5  O   UNL     1     -10.944   5.856  68.662  1.00  0.00    -0.287 OA 
ENDROOT
BRANCH   2   6
HETATM    6  C   UNL     1     -10.031   7.837  67.745  1.00  0.00    -0.174 A  
HETATM    7  C   UNL     1     -10.515   9.102  68.019  1.00  0.00    -0.276 A  
HETATM    8  C   UNL     1      -9.407   9.981  67.987  1.00  0.00    -0.139 A  
HETATM    9  C   UNL     1      -9.215  11.358  68.198  1.00  0.00    -0.178 A  
HETATM   10  C   UNL     1      -7.936  11.936  68.070  1.00  0.00    -0.147 A  
HETATM   11  C   UNL     1      -6.872  11.082  67.724  1.00  0.00    -0.069 A  
HETATM   12  O   UNL     1      -8.679   7.899  67.516  1.00  0.00    -0.124 OA 
HETATM   13  C   UNL     1      -8.309   9.200  67.663  1.00  0.00    -0.116 A  
HETATM   14  C   UNL     1      -7.025   9.702  67.517  1.00  0.00    -0.084 A  
BRANCH  10  15
HETATM   15  N   UNL     1      -7.745  13.291  68.249  1.00  0.00    -0.133 NA 
HETATM   16  C   UNL     1      -6.822  13.831  69.259  1.00  0.00    -0.078 C  
HETATM   17  N   UNL     1      -6.698  16.022  67.973  1.00  0.00    -0.119 NA 
HETATM   18  C   UNL     1      -5.936  14.924  68.623  1.00  0.00    -0.088 C  
HETATM   19  C   UNL     1      -8.530  14.296  67.513  1.00  0.00    -0.187 C  
HETATM   20  C   UNL     1      -7.597  15.405  66.966  1.00  0.00    -0.160 C  
BRANCH  17  21
HETATM   21  C   UNL     1      -7.466  16.823  68.940  1.00  0.00    -0.240 C  
BRANCH  21  22
HETATM   22  C   UNL     1      -8.517  17.724  68.277  1.00  0.00    -0.277 C  
BRANCH  22  23
HETATM   23  C   UNL     1      -9.841  17.792  69.041  1.00  0.00    -0.225 C  
BRANCH  23  24
HETATM   24  C   UNL     1     -11.013  17.320  68.181  1.00  0.00    -0.193 C  
BRANCH  24  25
HETATM   25  C   UNL     1     -11.454  15.941  68.529  1.00  0.00    -0.377 A  
HETATM   26  C   UNL     1     -11.587  14.879  67.656  1.00  0.00    -0.339 A  
HETATM   27  N   UNL     1     -12.040  13.801  68.366  1.00  0.00    -0.436 NA 
HETATM   28  H   UNL     1     -12.228  12.881  67.969  1.00  0.00     0.000 HD 
HETATM   29  C   UNL     1     -12.204  14.135  69.690  1.00  0.00    -0.326 A  
HETATM   30  C   UNL     1     -11.836  15.471  69.825  1.00  0.00    -0.376 A  
HETATM   31  C   UNL     1     -11.903  16.068  71.105  1.00  0.00    -0.465 A  
HETATM   32  C   UNL     1     -12.351  15.311  72.195  1.00  0.00    -0.441 A  
HETATM   33  C   UNL     1     -12.719  13.974  72.022  1.00  0.00    -0.367 A  
HETATM   34  C   UNL     1     -12.431  15.915  73.496  1.00  0.00    -0.568 C  
HETATM   35  N   UNL     1     -12.503  16.397  74.550  1.00  0.00    -0.784 NA 
HETATM   36  C   UNL     1     -12.651  13.360  70.766  1.00  0.00    -0.369 A  
ENDBRANCH  24  25
ENDBRANCH  23  24
ENDBRANCH  22  23
ENDBRANCH  21  22
ENDBRANCH  17  21
ENDBRANCH  10  15
ENDBRANCH   2   6
TORSDOF 7
ENDMDL
MODEL       57
REMARK 921   NORMALIZED FREE ENERGY PREDICTED BY IDOCK:   -6.19 KCAL/MOL
REMARK 922        TOTAL FREE ENERGY PREDICTED BY IDOCK:   -9.99 KCAL/MOL
REMARK 923 INTER-LIGAND FREE ENERGY PREDICTED BY IDOCK:   -8.88 KCAL/MOL
REMARK 924 INTRA-LIGAND FREE ENERGY PREDICTED BY IDOCK:   -1.11 KCAL/MOL
REMARK 927      BINDING AFFINITY PREDICTED BY RF-SCORE:    0.00 PKD
ROOT
HETATM    1  N   UNL     1      -8.421   5.813  66.577  1.00  0.00    -0.114 N  
HETATM    2  C   UNL     1      -8.254   6.650  65.511  1.00  0.00    -0.138 C  
HETATM    3  H1  UNL     1      -8.554   6.194  67.513  1.00  0.00     0.000 HD 
HETATM    4  H2  UNL     1      -8.412   4.803  66.436  1.00  0.00     0.000 HD 
HETATM    5  O   UNL     1      -8.094   6.192  64.384  1.00  0.00    -0.124 OA 
ENDROOT
BRANCH   2   6
HETATM    6  C   UNL     1      -8.305   8.058  65.823  1.00  0.00    -0.138 A  
HETATM    7  C   UNL     1      -9.239   9.018  65.484  1.00  0.00    -0.262 A  
HETATM    8  C   UNL     1      -8.823  10.227  66.090  1.00  0.00    -0.166 A  
HETATM    9  C   UNL     1      -9.325  11.539  66.157  1.00  0.00    -0.230 A  
HETATM   10  C   UNL     1      -8.631  12.542  66.861  1.00  0.00    -0.158 A  
HETATM   11  C   UNL     1      -7.424  12.177  67.486  1.00  0.00    -0.148 A  
HETATM   12  O   UNL     1      -7.315   8.625  66.588  1.00  0.00    -0.080 OA 
HETATM   13  C   UNL     1      -7.635   9.939  66.743  1.00  0.00    -0.095 A  
HETATM   14  C   UNL     1      -6.898  10.876  67.450  1.00  0.00    -0.079 A  
BRANCH  10  15
HETATM   15  N   UNL     1      -9.104  13.838  66.907  1.00  0.00    -0.247 NA 
HETATM   16  C   UNL     1      -8.488  14.873  67.751  1.00  0.00    -0.154 C  
HETATM   17  N   UNL     1      -9.525  16.680  66.291  1.00  0.00    -0.281 NA 
HETATM   18  C   UNL     1      -8.286  16.164  66.928  1.00  0.00    -0.238 C  
HETATM   19  C   UNL     1     -10.326  14.252  66.196  1.00  0.00    -0.299 C  
HETATM   20  C   UNL     1     -10.084  15.589  65.453  1.00  0.00    -0.352 C  
BRANCH  17  21
HETATM   21  C   UNL     1     -10.514  17.140  67.278  1.00  0.00    -0.313 C  
BRANCH  21  22
HETATM   22  C   UNL     1      -9.924  17.319  68.685  1.00  0.00    -0.327 C  
BRANCH  22  23
HETATM   23  C   UNL     1     -10.706  16.589  69.779  1.00  0.00    -0.298 C  
BRANCH  23  24
HETATM   24  C   UNL     1     -11.809  15.710  69.193  1.00  0.00    -0.378 C  
BRANCH  24  25
HETATM   25  C   UNL     1     -12.492  14.887  70.230  1.00  0.00    -0.386 A  
HETATM   26  C   UNL     1     -13.331  15.353  71.222  1.00  0.00    -0.520 A  
HETATM   27  N   UNL     1     -13.726  14.285  71.979  1.00  0.00    -0.408 NA 
HETATM   28  H   UNL     1     -14.350  14.340  72.784  1.00  0.00     0.000 HD 
HETATM   29  C   UNL     1     -13.163  13.125  71.500  1.00  0.00    -0.282 A  
HETATM   30  C   UNL     1     -12.389  13.470  70.396  1.00  0.00    -0.397 A  
HETATM   31  C   UNL     1     -11.700  12.448  69.702  1.00  0.00    -0.377 A  
HETATM   32  C   UNL     1     -11.800  11.124  70.150  1.00  0.00    -0.449 A  
HETATM   33  C   UNL     1     -12.581  10.814  71.266  1.00  0.00    -0.532 A  
HETATM   34  C   UNL     1     -11.095  10.084  69.456  1.00  0.00    -0.238 C  
HETATM   35  N   UNL     1     -10.524   9.237  68.903  1.00  0.00    -0.214 NA 
HETATM   36  C   UNL     1     -13.279  11.809  71.962  1.00  0.00    -0.460 A  
ENDBRANCH  24  25
ENDBRANCH  23  24
ENDBRANCH  22  23
ENDBRANCH  21  22
ENDBRANCH  17  21
ENDBRANCH  10  15
ENDBRANCH   2   6
TORSDOF 7
ENDMDL
MODEL       58
REMARK 921   NORMALIZED FREE ENERGY PREDICTED BY IDOCK:   -6.18 KCAL/MOL
REMARK 922        TOTAL FREE ENERGY PREDICTED BY IDOCK:   -9.99 KCAL/MOL
REMARK 923 INTER-LIGAND FREE ENERGY PREDICTED BY IDOCK:   -9.22 KCAL/MOL
REMARK 924 INTRA-LIGAND FREE ENERGY PREDICTED BY IDOCK:   -0.77 KCAL/MOL
REMARK 927      BINDING AFFINITY PREDICTED BY RF-SCORE:    0.00 PKD
ROOT
HETATM    1  N   UNL     1      -8.014  20.310  65.937  1.00  0.00    -0.543 N  
HETATM    2  C   UNL     1      -9.254  19.881  66.315  1.00  0.00    -0.373 C  
HETATM    3  H1  UNL     1      -7.312  19.640  65.623  1.00  0.00     0.000 HD 
HETATM    4  H2  UNL     1      -7.789  21.305  65.970  1.00  0.00     0.000 HD 
HETATM    5  O   UNL     1     -10.098  20.687  66.693  1.00  0.00    -0.327 OA 
ENDROOT
BRANCH   2   6
HETATM    6  C   UNL     1      -9.469  18.458  66.209  1.00  0.00    -0.241 A  
HETATM    7  C   UNL     1      -8.859  17.408  66.869  1.00  0.00    -0.259 A  
HETATM    8  C   UNL     1      -9.484  16.221  66.417  1.00  0.00    -0.322 A  
HETATM    9  C   UNL     1      -9.355  14.850  66.702  1.00  0.00    -0.291 A  
HETATM   10  C   UNL     1     -10.154  13.898  66.041  1.00  0.00    -0.313 A  
HETATM   11  C   UNL     1     -11.076  14.375  65.090  1.00  0.00    -0.365 A  
HETATM   12  O   UNL     1     -10.423  17.973  65.349  1.00  0.00    -0.621 OA 
HETATM   13  C   UNL     1     -10.424  16.618  65.480  1.00  0.00    -0.267 A  
HETATM   14  C   UNL     1     -11.240  15.736  64.788  1.00  0.00    -0.375 A  
BRANCH  10  15
HETATM   15  N   UNL     1     -10.014  12.548  66.295  1.00  0.00    -0.247 NA 
HETATM   16  C   UNL     1     -11.074  11.575  65.997  1.00  0.00    -0.230 C  
HETATM   17  N   UNL     1      -9.351   9.703  65.983  1.00  0.00    -0.190 NA 
HETATM   18  C   UNL     1     -10.472  10.358  65.260  1.00  0.00    -0.108 C  
HETATM   19  C   UNL     1      -8.832  12.000  66.983  1.00  0.00    -0.197 C  
HETATM   20  C   UNL     1      -8.321  10.740  66.242  1.00  0.00    -0.160 C  
BRANCH  17  21
HETATM   21  C   UNL     1      -9.786   9.072  67.239  1.00  0.00    -0.179 C  
BRANCH  21  22
HETATM   22  C   UNL     1      -8.666   8.977  68.285  1.00  0.00    -0.130 C  
BRANCH  22  23
HETATM   23  C   UNL     1      -9.095   9.411  69.689  1.00  0.00    -0.190 C  
BRANCH  23  24
HETATM   24  C   UNL     1     -10.593   9.209  69.908  1.00  0.00    -0.246 C  
BRANCH  24  25
HETATM   25  C   UNL     1     -10.884   8.351  71.090  1.00  0.00    -0.286 A  
HETATM   26  C   UNL     1     -11.424   8.768  72.291  1.00  0.00    -0.306 A  
HETATM   27  N   UNL     1     -11.507   7.683  73.118  1.00  0.00    -0.613 NA 
HETATM   28  H   UNL     1     -11.868   7.704  74.072  1.00  0.00     0.000 HD 
HETATM   29  C   UNL     1     -11.033   6.559  72.482  1.00  0.00    -0.248 A  
HETATM   30  C   UNL     1     -10.643   6.946  71.203  1.00  0.00    -0.246 A  
HETATM   31  C   UNL     1     -10.122   5.966  70.326  1.00  0.00    -0.260 A  
HETATM   32  C   UNL     1      -9.997   4.643  70.768  1.00  0.00    -0.284 A  
HETATM   33  C   UNL     1     -10.393   4.291  72.061  1.00  0.00    -0.169 A  
HETATM   34  C   UNL     1      -9.459   3.646  69.886  1.00  0.00    -0.192 C  
HETATM   35  N   UNL     1      -9.022   2.835  69.180  1.00  0.00    -0.100 NA 
HETATM   36  C   UNL     1     -10.920   5.243  72.943  1.00  0.00    -0.343 A  
ENDBRANCH  24  25
ENDBRANCH  23  24
ENDBRANCH  22  23
ENDBRANCH  21  22
ENDBRANCH  17  21
ENDBRANCH  10  15
ENDBRANCH   2   6
TORSDOF 7
ENDMDL
MODEL       59
REMARK 921   NORMALIZED FREE ENERGY PREDICTED BY IDOCK:   -6.16 KCAL/MOL
REMARK 922        TOTAL FREE ENERGY PREDICTED BY IDOCK:   -9.97 KCAL/MOL
REMARK 923 INTER-LIGAND FREE ENERGY PREDICTED BY IDOCK:   -9.32 KCAL/MOL
REMARK 924 INTRA-LIGAND FREE ENERGY PREDICTED BY IDOCK:   -0.64 KCAL/MOL
REMARK 927      BINDING AFFINITY PREDICTED BY RF-SCORE:    0.00 PKD
ROOT
HETATM    1  N   UNL     1      -9.586   1.634  70.977  1.00  0.00    -0.130 N  
HETATM    2  C   UNL     1      -9.784   2.347  72.125  1.00  0.00    -0.135 C  
HETATM    3  H1  UNL     1      -9.637   2.098  70.070  1.00  0.00     0.000 HD 
HETATM    4  H2  UNL     1      -9.388   0.635  71.026  1.00  0.00     0.000 HD 
HETATM    5  O   UNL     1      -9.723   1.789  73.216  1.00  0.00    -0.072 OA 
ENDROOT
BRANCH   2   6
HETATM    6  C   UNL     1     -10.036   3.755  71.937  1.00  0.00    -0.160 A  
HETATM    7  C   UNL     1     -10.023   4.522  70.788  1.00  0.00    -0.269 A  
HETATM    8  C   UNL     1     -10.385   5.836  71.168  1.00  0.00    -0.286 A  
HETATM    9  C   UNL     1     -10.578   7.056  70.496  1.00  0.00    -0.245 A  
HETATM   10  C   UNL     1     -10.939   8.220  71.203  1.00  0.00    -0.245 A  
HETATM   11  C   UNL     1     -11.093   8.108  72.598  1.00  0.00    -0.450 A  
HETATM   12  O   UNL     1     -10.361   4.541  73.015  1.00  0.00    -0.161 OA 
HETATM   13  C   UNL     1     -10.570   5.799  72.541  1.00  0.00    -0.221 A  
HETATM   14  C   UNL     1     -10.919   6.905  73.301  1.00  0.00    -0.270 A  
BRANCH  10  15
HETATM   15  N   UNL     1     -11.103   9.427  70.554  1.00  0.00    -0.255 NA 
HETATM   16  C   UNL     1     -10.246   9.842  69.433  1.00  0.00    -0.216 C  
HETATM   17  N   UNL     1     -12.039  11.478  68.671  1.00  0.00    -0.505 NA 
HETATM   18  C   UNL     1     -11.123  10.377  68.279  1.00  0.00    -0.281 C  
HETATM   19  C   UNL     1     -12.080  10.432  71.005  1.00  0.00    -0.385 C  
HETATM   20  C   UNL     1     -12.873  10.986  69.796  1.00  0.00     0.185 C  
BRANCH  17  21
HETATM   21  C   UNL     1     -11.316  12.702  69.052  1.00  0.00    -0.292 C  
BRANCH  21  22
HETATM   22  C   UNL     1     -11.316  13.771  67.949  1.00  0.00    -0.328 C  
BRANCH  22  23
HETATM   23  C   UNL     1     -10.766  13.274  66.609  1.00  0.00    -0.284 C  
BRANCH  23  24
HETATM   24  C   UNL     1      -9.659  14.185  66.082  1.00  0.00    -0.278 C  
BRANCH  24  25
HETATM   25  C   UNL     1     -10.174  15.514  65.648  1.00  0.00    -0.403 A  
HETATM   26  C   UNL     1     -11.089  15.748  64.641  1.00  0.00    -0.361 A  
HETATM   27  N   UNL     1     -11.274  17.099  64.542  1.00  0.00    -1.012 NA 
HETATM   28  H   UNL     1     -11.898  17.554  63.876  1.00  0.00     0.000 HD 
HETATM   29  C   UNL     1     -10.499  17.757  65.468  1.00  0.00    -0.017 A  
HETATM   30  C   UNL     1      -9.803  16.787  66.184  1.00  0.00    -0.330 A  
HETATM   31  C   UNL     1      -8.931  17.200  67.218  1.00  0.00    -0.228 A  
HETATM   32  C   UNL     1      -8.777  18.567  67.483  1.00  0.00    -0.272 A  
HETATM   33  C   UNL     1      -9.486  19.514  66.740  1.00  0.00    -0.436 A  
HETATM   34  C   UNL     1      -7.885  18.993  68.524  1.00  0.00    -0.340 C  
HETATM   35  N   UNL     1      -7.162  19.346  69.362  1.00  0.00    -0.294 NA 
HETATM   36  C   UNL     1     -10.363  19.127  65.720  1.00  0.00    -0.344 A  
ENDBRANCH  24  25
ENDBRANCH  23  24
ENDBRANCH  22  23
ENDBRANCH  21  22
ENDBRANCH  17  21
ENDBRANCH  10  15
ENDBRANCH   2   6
TORSDOF 7
ENDMDL
MODEL       60
REMARK 921   NORMALIZED FREE ENERGY PREDICTED BY IDOCK:   -6.16 KCAL/MOL
REMARK 922        TOTAL FREE ENERGY PREDICTED BY IDOCK:   -9.95 KCAL/MOL
REMARK 923 INTER-LIGAND FREE ENERGY PREDICTED BY IDOCK:   -8.90 KCAL/MOL
REMARK 924 INTRA-LIGAND FREE ENERGY PREDICTED BY IDOCK:   -1.05 KCAL/MOL
REMARK 927      BINDING AFFINITY PREDICTED BY RF-SCORE:    0.00 PKD
ROOT
HETATM    1  N   UNL     1      -6.423   7.707  62.698  1.00  0.00    -0.070 N  
HETATM    2  C   UNL     1      -7.729   7.439  62.995  1.00  0.00    -0.129 C  
HETATM    3  H1  UNL     1      -6.016   8.610  62.941  1.00  0.00     0.000 HD 
HETATM    4  H2  UNL     1      -5.853   7.001  62.232  1.00  0.00     0.000 HD 
HETATM    5  O   UNL     1      -8.219   6.353  62.703  1.00  0.00    -0.102 OA 
ENDROOT
BRANCH   2   6
HETATM    6  C   UNL     1      -8.434   8.501  63.671  1.00  0.00    -0.021 A  
HETATM    7  C   UNL     1      -8.658   8.711  65.019  1.00  0.00    -0.185 A  
HETATM    8  C   UNL     1      -9.367   9.930  65.132  1.00  0.00    -0.317 A  
HETATM    9  C   UNL     1      -9.867  10.704  66.195  1.00  0.00    -0.268 A  
HETATM   10  C   UNL     1     -10.561  11.905  65.948  1.00  0.00    -0.266 A  
HETATM   11  C   UNL     1     -10.733  12.289  64.605  1.00  0.00    -0.347 A  
HETATM   12  O   UNL     1      -8.998   9.520  62.944  1.00  0.00    -0.242 OA 
HETATM   13  C   UNL     1      -9.562  10.380  63.836  1.00  0.00    -0.312 A  
HETATM   14  C   UNL     1     -10.239  11.548  63.520  1.00  0.00    -0.462 A  
BRANCH  10  15
HETATM   15  N   UNL     1     -11.078  12.655  66.985  1.00  0.00    -0.269 NA 
HETATM   16  C   UNL     1     -10.622  12.499  68.375  1.00  0.00    -0.242 C  
HETATM   17  N   UNL     1     -11.497  14.825  68.921  1.00  0.00    -0.282 NA 
HETATM   18  C   UNL     1     -10.346  13.888  68.991  1.00  0.00    -0.096 C  
HETATM   19  C   UNL     1     -12.198  13.592  66.791  1.00  0.00    -0.369 C  
HETATM   20  C   UNL     1     -11.895  14.938  67.496  1.00  0.00    -0.232 C  
BRANCH  17  21
HETATM   21  C   UNL     1     -12.632  14.382  69.748  1.00  0.00    -0.115 C  
BRANCH  21  22
HETATM   22  C   UNL     1     -12.270  14.217  71.230  1.00  0.00    -0.426 C  
BRANCH  22  23
HETATM   23  C   UNL     1     -12.800  12.924  71.854  1.00  0.00    -0.315 C  
BRANCH  23  24
HETATM   24  C   UNL     1     -12.696  11.747  70.886  1.00  0.00    -0.328 C  
BRANCH  24  25
HETATM   25  C   UNL     1     -12.702  10.432  71.586  1.00  0.00    -0.560 A  
HETATM   26  C   UNL     1     -13.752   9.890  72.300  1.00  0.00    -0.165 A  
HETATM   27  N   UNL     1     -13.344   8.686  72.805  1.00  0.00    -0.674 NA 
HETATM   28  H   UNL     1     -13.921   8.069  73.376  1.00  0.00     0.000 HD 
HETATM   29  C   UNL     1     -12.046   8.427  72.434  1.00  0.00    -0.378 A  
HETATM   30  C   UNL     1     -11.618   9.502  71.660  1.00  0.00    -0.451 A  
HETATM   31  C   UNL     1     -10.304   9.483  71.136  1.00  0.00    -0.330 A  
HETATM   32  C   UNL     1      -9.466   8.397  71.421  1.00  0.00    -0.251 A  
HETATM   33  C   UNL     1      -9.926   7.338  72.207  1.00  0.00    -0.199 A  
HETATM   34  C   UNL     1      -8.128   8.377  70.901  1.00  0.00    -0.110 C  
HETATM   35  N   UNL     1      -7.043   8.355  70.487  1.00  0.00    -0.037 NA 
HETATM   36  C   UNL     1     -11.226   7.332  72.727  1.00  0.00    -0.348 A  
ENDBRANCH  24  25
ENDBRANCH  23  24
ENDBRANCH  22  23
ENDBRANCH  21  22
ENDBRANCH  17  21
ENDBRANCH  10  15
ENDBRANCH   2   6
TORSDOF 7
ENDMDL
MODEL       61
REMARK 921   NORMALIZED FREE ENERGY PREDICTED BY IDOCK:   -6.13 KCAL/MOL
REMARK 922        TOTAL FREE ENERGY PREDICTED BY IDOCK:   -9.91 KCAL/MOL
REMARK 923 INTER-LIGAND FREE ENERGY PREDICTED BY IDOCK:   -8.03 KCAL/MOL
REMARK 924 INTRA-LIGAND FREE ENERGY PREDICTED BY IDOCK:   -1.88 KCAL/MOL
REMARK 927      BINDING AFFINITY PREDICTED BY RF-SCORE:    0.00 PKD
ROOT
HETATM    1  N   UNL     1     -10.995  15.637  64.558  1.00  0.00    -0.689 N  
HETATM    2  C   UNL     1     -11.860  14.586  64.447  1.00  0.00    -0.403 C  
HETATM    3  H1  UNL     1     -10.275  15.635  65.280  1.00  0.00     0.000 HD 
HETATM    4  H2  UNL     1     -11.069  16.426  63.917  1.00  0.00     0.000 HD 
HETATM    5  O   UNL     1     -12.727  14.589  63.579  1.00  0.00    -0.707 OA 
ENDROOT
BRANCH   2   6
HETATM    6  C   UNL     1     -11.650  13.516  65.392  1.00  0.00    -0.316 A  
HETATM    7  C   UNL     1     -12.062  13.385  66.704  1.00  0.00    -0.429 A  
HETATM    8  C   UNL     1     -11.620  12.117  67.149  1.00  0.00    -0.405 A  
HETATM    9  C   UNL     1     -11.729  11.380  68.342  1.00  0.00    -0.373 A  
HETATM   10  C   UNL     1     -11.141  10.104  68.457  1.00  0.00    -0.214 A  
HETATM   11  C   UNL     1     -10.447   9.608  67.338  1.00  0.00    -0.319 A  
HETATM   12  O   UNL     1     -10.949  12.398  65.014  1.00  0.00    -0.282 OA 
HETATM   13  C   UNL     1     -10.934  11.556  66.083  1.00  0.00    -0.266 A  
HETATM   14  C   UNL     1     -10.328  10.310  66.128  1.00  0.00    -0.253 A  
BRANCH  10  15
HETATM   15  N   UNL     1     -11.220   9.387  69.634  1.00  0.00    -0.139 NA 
HETATM   16  C   UNL     1     -11.702   9.982  70.890  1.00  0.00    -0.374 C  
HETATM   17  N   UNL     1     -12.224   7.660  71.788  1.00  0.00    -0.300 NA 
HETATM   18  C   UNL     1     -12.728   9.037  71.552  1.00  0.00    -0.339 C  
HETATM   19  C   UNL     1     -10.727   8.003  69.741  1.00  0.00    -0.231 C  
HETATM   20  C   UNL     1     -11.765   7.124  70.482  1.00  0.00    -0.272 C  
BRANCH  17  21
HETATM   21  C   UNL     1     -11.138   7.621  72.780  1.00  0.00    -0.383 C  
BRANCH  21  22
HETATM   22  C   UNL     1     -10.448   6.252  72.866  1.00  0.00    -0.240 C  
BRANCH  22  23
HETATM   23  C   UNL     1      -8.920   6.329  72.842  1.00  0.00    -0.124 C  
BRANCH  23  24
HETATM   24  C   UNL     1      -8.431   7.767  72.683  1.00  0.00    -0.182 C  
BRANCH  24  25
HETATM   25  C   UNL     1      -7.244   7.869  71.789  1.00  0.00    -0.071 A  
HETATM   26  C   UNL     1      -6.141   7.039  71.796  1.00  0.00    -0.037 A  
HETATM   27  N   UNL     1      -5.269   7.486  70.842  1.00  0.00    -0.026 NA 
HETATM   28  H   UNL     1      -4.367   7.059  70.631  1.00  0.00     0.000 HD 
HETATM   29  C   UNL     1      -5.780   8.594  70.207  1.00  0.00    -0.024 A  
HETATM   30  C   UNL     1      -7.025   8.853  70.774  1.00  0.00    -0.074 A  
HETATM   31  C   UNL     1      -7.778   9.948  70.290  1.00  0.00    -0.160 A  
HETATM   32  C   UNL     1      -7.250  10.749  69.269  1.00  0.00    -0.122 A  
HETATM   33  C   UNL     1      -5.994  10.463  68.727  1.00  0.00    -0.040 A  
HETATM   34  C   UNL     1      -8.005  11.868  68.780  1.00  0.00    -0.040 C  
HETATM   35  N   UNL     1      -8.608  12.777  68.382  1.00  0.00    -0.159 NA 
HETATM   36  C   UNL     1      -5.236   9.378  69.184  1.00  0.00    -0.036 A  
ENDBRANCH  24  25
ENDBRANCH  23  24
ENDBRANCH  22  23
ENDBRANCH  21  22
ENDBRANCH  17  21
ENDBRANCH  10  15
ENDBRANCH   2   6
TORSDOF 7
ENDMDL
MODEL       62
REMARK 921   NORMALIZED FREE ENERGY PREDICTED BY IDOCK:   -6.11 KCAL/MOL
REMARK 922        TOTAL FREE ENERGY PREDICTED BY IDOCK:   -9.89 KCAL/MOL
REMARK 923 INTER-LIGAND FREE ENERGY PREDICTED BY IDOCK:   -9.02 KCAL/MOL
REMARK 924 INTRA-LIGAND FREE ENERGY PREDICTED BY IDOCK:   -0.87 KCAL/MOL
REMARK 927      BINDING AFFINITY PREDICTED BY RF-SCORE:    0.00 PKD
ROOT
HETATM    1  N   UNL     1      -8.855   3.708  74.083  1.00  0.00    -0.088 N  
HETATM    2  C   UNL     1      -9.932   3.685  73.243  1.00  0.00    -0.129 C  
HETATM    3  H1  UNL     1      -8.280   4.548  74.157  1.00  0.00     0.000 HD 
HETATM    4  H2  UNL     1      -8.625   2.884  74.637  1.00  0.00     0.000 HD 
HETATM    5  O   UNL     1     -10.624   2.675  73.154  1.00  0.00    -0.146 OA 
ENDROOT
BRANCH   2   6
HETATM    6  C   UNL     1     -10.177   4.912  72.525  1.00  0.00    -0.195 A  
HETATM    7  C   UNL     1      -9.858   5.271  71.230  1.00  0.00    -0.232 A  
HETATM    8  C   UNL     1     -10.372   6.574  71.026  1.00  0.00    -0.240 A  
HETATM    9  C   UNL     1     -10.409   7.480  69.951  1.00  0.00    -0.224 A  
HETATM   10  C   UNL     1     -11.011   8.745  70.095  1.00  0.00    -0.223 A  
HETATM   11  C   UNL     1     -11.565   9.059  71.350  1.00  0.00    -0.396 A  
HETATM   12  O   UNL     1     -10.839   5.945  73.142  1.00  0.00    -0.244 OA 
HETATM   13  C   UNL     1     -10.951   6.948  72.228  1.00  0.00    -0.242 A  
HETATM   14  C   UNL     1     -11.556   8.177  72.442  1.00  0.00    -0.463 A  
BRANCH  10  15
HETATM   15  N   UNL     1     -11.027   9.649  69.052  1.00  0.00    -0.178 NA 
HETATM   16  C   UNL     1     -11.705  10.951  69.147  1.00  0.00    -0.326 C  
HETATM   17  N   UNL     1     -10.270  11.837  67.243  1.00  0.00    -0.202 NA 
HETATM   18  C   UNL     1     -10.771  12.063  68.623  1.00  0.00    -0.236 C  
HETATM   19  C   UNL     1     -10.457   9.332  67.732  1.00  0.00    -0.255 C  
HETATM   20  C   UNL     1      -9.595  10.515  67.225  1.00  0.00    -0.163 C  
BRANCH  17  21
HETATM   21  C   UNL     1     -11.345  11.889  66.239  1.00  0.00    -0.334 C  
BRANCH  21  22
HETATM   22  C   UNL     1     -10.962  12.690  64.986  1.00  0.00    -0.323 C  
BRANCH  22  23
HETATM   23  C   UNL     1     -11.296  14.180  65.082  1.00  0.00    -0.336 C  
BRANCH  23  24
HETATM   24  C   UNL     1     -10.070  15.009  65.464  1.00  0.00    -0.400 C  
BRANCH  24  25
HETATM   25  C   UNL     1     -10.302  15.841  66.677  1.00  0.00    -0.292 A  
HETATM   26  C   UNL     1     -11.175  15.560  67.708  1.00  0.00    -0.302 A  
HETATM   27  N   UNL     1     -11.109  16.584  68.612  1.00  0.00    -0.347 NA 
HETATM   28  H   UNL     1     -11.652  16.636  69.473  1.00  0.00     0.000 HD 
HETATM   29  C   UNL     1     -10.205  17.533  68.194  1.00  0.00    -0.359 A  
HETATM   30  C   UNL     1      -9.675  17.090  66.985  1.00  0.00    -0.264 A  
HETATM   31  C   UNL     1      -8.702  17.885  66.337  1.00  0.00    -0.249 A  
HETATM   32  C   UNL     1      -8.309  19.099  66.915  1.00  0.00    -0.300 A  
HETATM   33  C   UNL     1      -8.867  19.517  68.126  1.00  0.00    -0.378 A  
HETATM   34  C   UNL     1      -7.330  19.917  66.257  1.00  0.00    -0.288 C  
HETATM   35  N   UNL     1      -6.540  20.585  65.729  1.00  0.00    -0.235 NA 
HETATM   36  C   UNL     1      -9.825  18.740  68.790  1.00  0.00    -0.434 A  
ENDBRANCH  24  25
ENDBRANCH  23  24
ENDBRANCH  22  23
ENDBRANCH  21  22
ENDBRANCH  17  21
ENDBRANCH  10  15
ENDBRANCH   2   6
TORSDOF 7
ENDMDL
MODEL       63
REMARK 921   NORMALIZED FREE ENERGY PREDICTED BY IDOCK:   -6.09 KCAL/MOL
REMARK 922        TOTAL FREE ENERGY PREDICTED BY IDOCK:   -9.86 KCAL/MOL
REMARK 923 INTER-LIGAND FREE ENERGY PREDICTED BY IDOCK:   -8.31 KCAL/MOL
REMARK 924 INTRA-LIGAND FREE ENERGY PREDICTED BY IDOCK:   -1.55 KCAL/MOL
REMARK 927      BINDING AFFINITY PREDICTED BY RF-SCORE:    0.00 PKD
ROOT
HETATM    1  N   UNL     1     -11.281   4.746  65.472  1.00  0.00    -0.968 N  
HETATM    2  C   UNL     1     -10.082   4.951  66.094  1.00  0.00    -0.254 C  
HETATM    3  H1  UNL     1     -11.895   5.535  65.269  1.00  0.00     0.000 HD 
HETATM    4  H2  UNL     1     -11.562   3.802  65.210  1.00  0.00     0.000 HD 
HETATM    5  O   UNL     1      -9.343   4.003  66.338  1.00  0.00    -0.153 OA 
ENDROOT
BRANCH   2   6
HETATM    6  C   UNL     1      -9.777   6.328  66.400  1.00  0.00    -0.099 A  
HETATM    7  C   UNL     1      -8.576   7.010  66.360  1.00  0.00    -0.136 A  
HETATM    8  C   UNL     1      -8.854   8.351  66.715  1.00  0.00    -0.156 A  
HETATM    9  C   UNL     1      -8.099   9.532  66.839  1.00  0.00    -0.109 A  
HETATM   10  C   UNL     1      -8.708  10.738  67.238  1.00  0.00    -0.130 A  
HETATM   11  C   UNL     1     -10.089  10.708  67.507  1.00  0.00    -0.217 A  
HETATM   12  O   UNL     1     -10.780   7.180  66.792  1.00  0.00    -0.307 OA 
HETATM   13  C   UNL     1     -10.213   8.402  66.982  1.00  0.00    -0.307 A  
HETATM   14  C   UNL     1     -10.876   9.552  67.383  1.00  0.00    -0.215 A  
BRANCH  10  15
HETATM   15  N   UNL     1      -7.968  11.894  67.388  1.00  0.00    -0.153 NA 
HETATM   16  C   UNL     1      -8.590  13.196  67.672  1.00  0.00    -0.193 C  
HETATM   17  N   UNL     1      -6.375  14.052  68.586  1.00  0.00    -0.083 NA 
HETATM   18  C   UNL     1      -7.833  13.893  68.824  1.00  0.00    -0.079 C  
HETATM   19  C   UNL     1      -6.512  11.925  67.170  1.00  0.00    -0.146 C  
HETATM   20  C   UNL     1      -5.818  12.703  68.316  1.00  0.00    -0.069 C  
BRANCH  17  21
HETATM   21  C   UNL     1      -6.084  14.971  67.474  1.00  0.00     0.004 C  
BRANCH  21  22
HETATM   22  C   UNL     1      -6.757  16.342  67.633  1.00  0.00    -0.169 C  
BRANCH  22  23
HETATM   23  C   UNL     1      -7.335  16.899  66.330  1.00  0.00    -0.302 C  
BRANCH  23  24
HETATM   24  C   UNL     1      -8.584  17.742  66.583  1.00  0.00    -0.280 C  
BRANCH  24  25
HETATM   25  C   UNL     1      -9.587  17.033  67.424  1.00  0.00    -0.246 A  
HETATM   26  C   UNL     1      -9.821  17.241  68.769  1.00  0.00    -0.306 A  
HETATM   27  N   UNL     1     -10.800  16.374  69.168  1.00  0.00    -0.310 NA 
HETATM   28  H   UNL     1     -11.169  16.309  70.116  1.00  0.00     0.000 HD 
HETATM   29  C   UNL     1     -11.216  15.602  68.109  1.00  0.00    -0.345 A  
HETATM   30  C   UNL     1     -10.479  15.999  66.997  1.00  0.00    -0.307 A  
HETATM   31  C   UNL     1     -10.721  15.362  65.758  1.00  0.00    -0.360 A  
HETATM   32  C   UNL     1     -11.679  14.343  65.683  1.00  0.00    -0.356 A  
HETATM   33  C   UNL     1     -12.396  13.965  66.821  1.00  0.00    -0.370 A  
HETATM   34  C   UNL     1     -11.921  13.685  64.430  1.00  0.00    -0.437 C  
HETATM   35  N   UNL     1     -12.121  13.146  63.421  1.00  0.00    -0.629 NA 
HETATM   36  C   UNL     1     -12.180  14.589  68.055  1.00  0.00    -0.127 A  
ENDBRANCH  24  25
ENDBRANCH  23  24
ENDBRANCH  22  23
ENDBRANCH  21  22
ENDBRANCH  17  21
ENDBRANCH  10  15
ENDBRANCH   2   6
TORSDOF 7
ENDMDL
MODEL       64
REMARK 921   NORMALIZED FREE ENERGY PREDICTED BY IDOCK:   -6.09 KCAL/MOL
REMARK 922        TOTAL FREE ENERGY PREDICTED BY IDOCK:   -9.86 KCAL/MOL
REMARK 923 INTER-LIGAND FREE ENERGY PREDICTED BY IDOCK:   -9.14 KCAL/MOL
REMARK 924 INTRA-LIGAND FREE ENERGY PREDICTED BY IDOCK:   -0.72 KCAL/MOL
REMARK 927      BINDING AFFINITY PREDICTED BY RF-SCORE:    0.00 PKD
ROOT
HETATM    1  N   UNL     1     -10.463  20.176  65.489  1.00  0.00    -0.345 N  
HETATM    2  C   UNL     1      -9.735  19.401  66.346  1.00  0.00    -0.386 C  
HETATM    3  H1  UNL     1     -11.015  19.743  64.749  1.00  0.00     0.000 HD 
HETATM    4  H2  UNL     1     -10.454  21.190  65.590  1.00  0.00     0.000 HD 
HETATM    5  O   UNL     1      -9.071  19.922  67.237  1.00  0.00    -0.311 OA 
ENDROOT
BRANCH   2   6
HETATM    6  C   UNL     1      -9.838  17.979  66.126  1.00  0.00    -0.249 A  
HETATM    7  C   UNL     1      -9.151  16.930  66.706  1.00  0.00    -0.266 A  
HETATM    8  C   UNL     1      -9.679  15.738  66.155  1.00  0.00    -0.351 A  
HETATM    9  C   UNL     1      -9.445  14.363  66.332  1.00  0.00    -0.309 A  
HETATM   10  C   UNL     1     -10.165  13.407  65.589  1.00  0.00    -0.292 A  
HETATM   11  C   UNL     1     -11.117  13.886  64.669  1.00  0.00    -0.389 A  
HETATM   12  O   UNL     1     -10.748  17.491  65.220  1.00  0.00    -0.656 OA 
HETATM   13  C   UNL     1     -10.644  16.134  65.243  1.00  0.00    -0.369 A  
HETATM   14  C   UNL     1     -11.386  15.250  64.475  1.00  0.00    -0.307 A  
BRANCH  10  15
HETATM   15  N   UNL     1      -9.921  12.057  65.737  1.00  0.00    -0.237 NA 
HETATM   16  C   UNL     1     -10.480  11.049  64.823  1.00  0.00    -0.316 C  
HETATM   17  N   UNL     1      -8.668   9.407  65.527  1.00  0.00    -0.153 NA 
HETATM   18  C   UNL     1      -9.371  10.063  64.394  1.00  0.00    -0.290 C  
HETATM   19  C   UNL     1      -9.169  11.518  66.883  1.00  0.00    -0.176 C  
HETATM   20  C   UNL     1      -8.127  10.481  66.397  1.00  0.00    -0.135 C  
BRANCH  17  21
HETATM   21  C   UNL     1      -9.550   8.509  66.290  1.00  0.00    -0.236 C  
BRANCH  21  22
HETATM   22  C   UNL     1      -9.042   7.061  66.334  1.00  0.00    -0.189 C  
BRANCH  22  23
HETATM   23  C   UNL     1     -10.122   6.040  66.702  1.00  0.00    -0.226 C  
BRANCH  23  24
HETATM   24  C   UNL     1      -9.788   5.309  68.001  1.00  0.00    -0.193 C  
BRANCH  24  25
HETATM   25  C   UNL     1     -10.600   5.793  69.151  1.00  0.00    -0.365 A  
HETATM   26  C   UNL     1     -11.637   6.703  69.096  1.00  0.00    -0.001 A  
HETATM   27  N   UNL     1     -12.100   6.897  70.368  1.00  0.00    -0.608 NA 
HETATM   28  H   UNL     1     -12.865   7.522  70.620  1.00  0.00     0.000 HD 
HETATM   29  C   UNL     1     -11.387   6.129  71.258  1.00  0.00    -0.272 A  
HETATM   30  C   UNL     1     -10.444   5.417  70.523  1.00  0.00    -0.335 A  
HETATM   31  C   UNL     1      -9.576   4.533  71.205  1.00  0.00    -0.245 A  
HETATM   32  C   UNL     1      -9.676   4.407  72.596  1.00  0.00    -0.197 A  
HETATM   33  C   UNL     1     -10.630   5.142  73.304  1.00  0.00    -0.288 A  
HETATM   34  C   UNL     1      -8.791   3.519  73.296  1.00  0.00    -0.088 C  
HETATM   35  N   UNL     1      -8.076   2.805  73.869  1.00  0.00    -0.066 NA 
HETATM   36  C   UNL     1     -11.506   6.015  72.648  1.00  0.00    -0.297 A  
ENDBRANCH  24  25
ENDBRANCH  23  24
ENDBRANCH  22  23
ENDBRANCH  21  22
ENDBRANCH  17  21
ENDBRANCH  10  15
ENDBRANCH   2   6
TORSDOF 7
ENDMDL
MODEL       65
REMARK 921   NORMALIZED FREE ENERGY PREDICTED BY IDOCK:   -6.03 KCAL/MOL
REMARK 922        TOTAL FREE ENERGY PREDICTED BY IDOCK:   -9.77 KCAL/MOL
REMARK 923 INTER-LIGAND FREE ENERGY PREDICTED BY IDOCK:   -8.79 KCAL/MOL
REMARK 924 INTRA-LIGAND FREE ENERGY PREDICTED BY IDOCK:   -0.98 KCAL/MOL
REMARK 927      BINDING AFFINITY PREDICTED BY RF-SCORE:    0.00 PKD
ROOT
HETATM    1  N   UNL     1     -10.396   2.284  63.831  1.00  0.00    -0.324 N  
HETATM    2  C   UNL     1      -9.530   2.530  64.857  1.00  0.00    -0.076 C  
HETATM    3  H1  UNL     1     -10.970   3.037  63.451  1.00  0.00     0.000 HD 
HETATM    4  H2  UNL     1     -10.469   1.344  63.442  1.00  0.00     0.000 HD 
HETATM    5  O   UNL     1      -8.839   1.624  65.313  1.00  0.00    -0.111 OA 
ENDROOT
BRANCH   2   6
HETATM    6  C   UNL     1      -9.493   3.898  65.314  1.00  0.00    -0.170 A  
HETATM    7  C   UNL     1      -8.553   4.889  65.103  1.00  0.00    -0.144 A  
HETATM    8  C   UNL     1      -9.035   6.056  65.742  1.00  0.00    -0.116 A  
HETATM    9  C   UNL     1      -8.584   7.380  65.882  1.00  0.00    -0.165 A  
HETATM   10  C   UNL     1      -9.329   8.321  66.619  1.00  0.00    -0.192 A  
HETATM   11  C   UNL     1     -10.530   7.880  67.206  1.00  0.00    -0.390 A  
HETATM   12  O   UNL     1     -10.521   4.392  66.079  1.00  0.00    -0.242 OA 
HETATM   13  C   UNL     1     -10.236   5.698  66.335  1.00  0.00    -0.171 A  
HETATM   14  C   UNL     1     -11.017   6.569  67.078  1.00  0.00    -0.466 A  
BRANCH  10  15
HETATM   15  N   UNL     1      -8.879   9.616  66.784  1.00  0.00    -0.134 NA 
HETATM   16  C   UNL     1      -9.156  10.399  67.998  1.00  0.00    -0.136 C  
HETATM   17  N   UNL     1      -7.183  11.916  67.468  1.00  0.00    -0.115 NA 
HETATM   18  C   UNL     1      -7.857  11.073  68.490  1.00  0.00    -0.129 C  
HETATM   19  C   UNL     1      -8.179  10.344  65.712  1.00  0.00    -0.156 C  
HETATM   20  C   UNL     1      -6.930  11.060  66.282  1.00  0.00    -0.095 C  
BRANCH  17  21
HETATM   21  C   UNL     1      -7.980  13.097  67.101  1.00  0.00    -0.073 C  
BRANCH  21  22
HETATM   22  C   UNL     1      -8.113  14.114  68.244  1.00  0.00    -0.146 C  
BRANCH  22  23
HETATM   23  C   UNL     1      -9.364  14.991  68.147  1.00  0.00    -0.187 C  
BRANCH  23  24
HETATM   24  C   UNL     1     -10.642  14.154  68.172  1.00  0.00    -0.249 C  
BRANCH  24  25
HETATM   25  C   UNL     1     -11.601  14.611  69.216  1.00  0.00    -0.335 A  
HETATM   26  C   UNL     1     -12.009  15.911  69.439  1.00  0.00    -0.256 A  
HETATM   27  N   UNL     1     -12.870  15.908  70.501  1.00  0.00    -0.664 NA 
HETATM   28  H   UNL     1     -13.324  16.737  70.885  1.00  0.00     0.000 HD 
HETATM   29  C   UNL     1     -13.037  14.630  70.979  1.00  0.00    -0.367 A  
HETATM   30  C   UNL     1     -12.259  13.791  70.186  1.00  0.00    -0.425 A  
HETATM   31  C   UNL     1     -12.257  12.403  70.460  1.00  0.00    -0.382 A  
HETATM   32  C   UNL     1     -13.021  11.913  71.527  1.00  0.00    -0.427 A  
HETATM   33  C   UNL     1     -13.785  12.784  72.307  1.00  0.00    -0.495 A  
HETATM   34  C   UNL     1     -13.015  10.507  71.818  1.00  0.00    -0.476 C  
HETATM   35  N   UNL     1     -13.013   9.371  72.062  1.00  0.00    -0.397 NA 
HETATM   36  C   UNL     1     -13.810  14.159  72.046  1.00  0.00    -0.577 A  
ENDBRANCH  24  25
ENDBRANCH  23  24
ENDBRANCH  22  23
ENDBRANCH  21  22
ENDBRANCH  17  21
ENDBRANCH  10  15
ENDBRANCH   2   6
TORSDOF 7
ENDMDL
MODEL       66
REMARK 921   NORMALIZED FREE ENERGY PREDICTED BY IDOCK:   -6.02 KCAL/MOL
REMARK 922        TOTAL FREE ENERGY PREDICTED BY IDOCK:   -9.76 KCAL/MOL
REMARK 923 INTER-LIGAND FREE ENERGY PREDICTED BY IDOCK:   -8.64 KCAL/MOL
REMARK 924 INTRA-LIGAND FREE ENERGY PREDICTED BY IDOCK:   -1.12 KCAL/MOL
REMARK 927      BINDING AFFINITY PREDICTED BY RF-SCORE:    0.00 PKD
ROOT
HETATM    1  N   UNL     1     -11.381   6.756  68.169  1.00  0.00    -0.558 N  
HETATM    2  C   UNL     1     -10.375   7.240  67.382  1.00  0.00    -0.260 C  
HETATM    3  H1  UNL     1     -12.010   7.398  68.650  1.00  0.00     0.000 HD 
HETATM    4  H2  UNL     1     -11.503   5.749  68.274  1.00  0.00     0.000 HD 
HETATM    5  O   UNL     1      -9.618   6.468  66.803  1.00  0.00    -0.151 OA 
ENDROOT
BRANCH   2   6
HETATM    6  C   UNL     1     -10.307   8.678  67.288  1.00  0.00    -0.296 A  
HETATM    7  C   UNL     1     -10.430   9.647  68.265  1.00  0.00    -0.259 A  
HETATM    8  C   UNL     1     -10.236  10.897  67.631  1.00  0.00    -0.214 A  
HETATM    9  C   UNL     1     -10.208  12.239  68.050  1.00  0.00    -0.206 A  
HETATM   10  C   UNL     1      -9.993  13.279  67.124  1.00  0.00    -0.238 A  
HETATM   11  C   UNL     1      -9.812  12.918  65.776  1.00  0.00    -0.216 A  
HETATM   12  O   UNL     1     -10.075   9.274  66.073  1.00  0.00    -0.297 OA 
HETATM   13  C   UNL     1     -10.034  10.617  66.289  1.00  0.00    -0.222 A  
HETATM   14  C   UNL     1      -9.822  11.589  65.323  1.00  0.00    -0.286 A  
BRANCH  10  15
HETATM   15  N   UNL     1      -9.992  14.600  67.523  1.00  0.00    -0.223 NA 
HETATM   16  C   UNL     1      -9.460  15.680  66.677  1.00  0.00    -0.259 C  
HETATM   17  N   UNL     1     -10.832  17.378  67.984  1.00  0.00    -0.351 NA 
HETATM   18  C   UNL     1     -10.462  16.855  66.643  1.00  0.00    -0.257 C  
HETATM   19  C   UNL     1     -10.426  15.012  68.869  1.00  0.00    -0.241 C  
HETATM   20  C   UNL     1     -11.364  16.240  68.775  1.00  0.00    -0.329 C  
BRANCH  17  21
HETATM   21  C   UNL     1      -9.696  18.009  68.674  1.00  0.00    -0.350 C  
BRANCH  21  22
HETATM   22  C   UNL     1      -9.293  19.359  68.063  1.00  0.00    -0.402 C  
BRANCH  22  23
HETATM   23  C   UNL     1      -7.975  19.315  67.286  1.00  0.00    -0.285 C  
BRANCH  23  24
HETATM   24  C   UNL     1      -6.886  20.133  67.978  1.00  0.00    -0.327 C  
BRANCH  24  25
HETATM   25  C   UNL     1      -6.330  19.443  69.175  1.00  0.00    -0.321 A  
HETATM   26  C   UNL     1      -5.947  20.039  70.360  1.00  0.00    -0.343 A  
HETATM   27  N   UNL     1      -5.468  19.064  71.190  1.00  0.00    -0.246 NA 
HETATM   28  H   UNL     1      -5.114  19.224  72.133  1.00  0.00     0.000 HD 
HETATM   29  C   UNL     1      -5.530  17.837  70.572  1.00  0.00    -0.245 A  
HETATM   30  C   UNL     1      -6.076  18.041  69.308  1.00  0.00    -0.239 A  
HETATM   31  C   UNL     1      -6.261  16.926  68.458  1.00  0.00    -0.146 A  
HETATM   32  C   UNL     1      -5.878  15.653  68.901  1.00  0.00    -0.103 A  
HETATM   33  C   UNL     1      -5.327  15.485  70.174  1.00  0.00    -0.129 A  
HETATM   34  C   UNL     1      -6.053  14.518  68.039  1.00  0.00    -0.153 C  
HETATM   35  N   UNL     1      -6.188  13.595  67.347  1.00  0.00    -0.321 NA 
HETATM   36  C   UNL     1      -5.145  16.574  71.035  1.00  0.00    -0.161 A  
ENDBRANCH  24  25
ENDBRANCH  23  24
ENDBRANCH  22  23
ENDBRANCH  21  22
ENDBRANCH  17  21
ENDBRANCH  10  15
ENDBRANCH   2   6
TORSDOF 7
ENDMDL
MODEL       67
REMARK 921   NORMALIZED FREE ENERGY PREDICTED BY IDOCK:   -6.01 KCAL/MOL
REMARK 922        TOTAL FREE ENERGY PREDICTED BY IDOCK:   -9.75 KCAL/MOL
REMARK 923 INTER-LIGAND FREE ENERGY PREDICTED BY IDOCK:   -8.51 KCAL/MOL
REMARK 924 INTRA-LIGAND FREE ENERGY PREDICTED BY IDOCK:   -1.24 KCAL/MOL
REMARK 927      BINDING AFFINITY PREDICTED BY RF-SCORE:    0.00 PKD
ROOT
HETATM    1  N   UNL     1      -8.109   4.629  63.923  1.00  0.00    -0.096 N  
HETATM    2  C   UNL     1      -7.875   5.026  65.208  1.00  0.00    -0.089 C  
HETATM    3  H1  UNL     1      -8.608   5.242  63.279  1.00  0.00     0.000 HD 
HETATM    4  H2  UNL     1      -7.782   3.716  63.606  1.00  0.00     0.000 HD 
HETATM    5  O   UNL     1      -7.274   4.289  65.983  1.00  0.00    -0.069 OA 
ENDROOT
BRANCH   2   6
HETATM    6  C   UNL     1      -8.361   6.343  65.541  1.00  0.00    -0.147 A  
HETATM    7  C   UNL     1      -8.062   7.575  64.990  1.00  0.00    -0.127 A  
HETATM    8  C   UNL     1      -8.857   8.531  65.666  1.00  0.00    -0.214 A  
HETATM    9  C   UNL     1      -9.045   9.922  65.575  1.00  0.00    -0.232 A  
HETATM   10  C   UNL     1      -9.937  10.586  66.439  1.00  0.00    -0.218 A  
HETATM   11  C   UNL     1     -10.622   9.805  67.389  1.00  0.00    -0.330 A  
HETATM   12  O   UNL     1      -9.284   6.498  66.546  1.00  0.00    -0.150 OA 
HETATM   13  C   UNL     1      -9.578   7.825  66.616  1.00  0.00    -0.220 A  
HETATM   14  C   UNL     1     -10.468   8.414  67.501  1.00  0.00    -0.328 A  
BRANCH  10  15
HETATM   15  N   UNL     1     -10.106  11.955  66.374  1.00  0.00    -0.209 NA 
HETATM   16  C   UNL     1      -9.412  12.879  67.283  1.00  0.00    -0.216 C  
HETATM   17  N   UNL     1      -9.772  14.776  65.626  1.00  0.00    -0.322 NA 
HETATM   18  C   UNL     1      -8.797  14.041  66.472  1.00  0.00    -0.020 C  
HETATM   19  C   UNL     1     -11.076  12.581  65.460  1.00  0.00    -0.301 C  
HETATM   20  C   UNL     1     -10.425  13.785  64.735  1.00  0.00    -0.428 C  
BRANCH  17  21
HETATM   21  C   UNL     1     -10.773  15.502  66.424  1.00  0.00    -0.303 C  
BRANCH  21  22
HETATM   22  C   UNL     1     -10.160  16.590  67.316  1.00  0.00    -0.273 C  
BRANCH  22  23
HETATM   23  C   UNL     1     -10.767  16.653  68.719  1.00  0.00    -0.342 C  
BRANCH  23  24
HETATM   24  C   UNL     1     -10.584  15.336  69.472  1.00  0.00    -0.272 C  
BRANCH  24  25
HETATM   25  C   UNL     1     -11.670  15.091  70.460  1.00  0.00    -0.344 A  
HETATM   26  C   UNL     1     -12.381  16.052  71.151  1.00  0.00    -0.271 A  
HETATM   27  N   UNL     1     -13.266  15.414  71.976  1.00  0.00    -0.395 NA 
HETATM   28  H   UNL     1     -13.918  15.882  72.604  1.00  0.00     0.000 HD 
HETATM   29  C   UNL     1     -13.150  14.050  71.838  1.00  0.00    -0.386 A  
HETATM   30  C   UNL     1     -12.162  13.816  70.886  1.00  0.00    -0.427 A  
HETATM   31  C   UNL     1     -11.848  12.480  70.545  1.00  0.00    -0.145 A  
HETATM   32  C   UNL     1     -12.525  11.431  71.182  1.00  0.00    -0.465 A  
HETATM   33  C   UNL     1     -13.507  11.702  72.137  1.00  0.00    -0.238 A  
HETATM   34  C   UNL     1     -12.204  10.072  70.848  1.00  0.00    -0.346 C  
HETATM   35  N   UNL     1     -11.947   8.970  70.586  1.00  0.00    -0.170 NA 
HETATM   36  C   UNL     1     -13.840  13.017  72.482  1.00  0.00    -0.420 A  
ENDBRANCH  24  25
ENDBRANCH  23  24
ENDBRANCH  22  23
ENDBRANCH  21  22
ENDBRANCH  17  21
ENDBRANCH  10  15
ENDBRANCH   2   6
TORSDOF 7
ENDMDL
MODEL       68
REMARK 921   NORMALIZED FREE ENERGY PREDICTED BY IDOCK:   -6.01 KCAL/MOL
REMARK 922        TOTAL FREE ENERGY PREDICTED BY IDOCK:   -9.74 KCAL/MOL
REMARK 923 INTER-LIGAND FREE ENERGY PREDICTED BY IDOCK:   -8.77 KCAL/MOL
REMARK 924 INTRA-LIGAND FREE ENERGY PREDICTED BY IDOCK:   -0.97 KCAL/MOL
REMARK 927      BINDING AFFINITY PREDICTED BY RF-SCORE:    0.00 PKD
ROOT
HETATM    1  N   UNL     1     -10.851   5.851  71.820  1.00  0.00    -0.252 N  
HETATM    2  C   UNL     1     -10.964   7.150  72.224  1.00  0.00    -0.243 C  
HETATM    3  H1  UNL     1     -10.738   5.629  70.831  1.00  0.00     0.000 HD 
HETATM    4  H2  UNL     1     -10.879   5.100  72.509  1.00  0.00     0.000 HD 
HETATM    5  O   UNL     1     -11.101   7.417  73.414  1.00  0.00    -0.340 OA 
ENDROOT
BRANCH   2   6
HETATM    6  C   UNL     1     -10.889   8.130  71.168  1.00  0.00    -0.232 A  
HETATM    7  C   UNL     1     -10.988   9.507  71.215  1.00  0.00    -0.440 A  
HETATM    8  C   UNL     1     -10.797   9.978  69.894  1.00  0.00    -0.328 A  
HETATM    9  C   UNL     1     -10.752  11.241  69.277  1.00  0.00    -0.221 A  
HETATM   10  C   UNL     1     -10.547  11.358  67.888  1.00  0.00    -0.189 A  
HETATM   11  C   UNL     1     -10.392  10.167  67.154  1.00  0.00    -0.295 A  
HETATM   12  O   UNL     1     -10.674   7.725  69.873  1.00  0.00    -0.243 OA 
HETATM   13  C   UNL     1     -10.621   8.850  69.108  1.00  0.00    -0.195 A  
HETATM   14  C   UNL     1     -10.419   8.891  67.737  1.00  0.00    -0.300 A  
BRANCH  10  15
HETATM   15  N   UNL     1     -10.530  12.593  67.272  1.00  0.00    -0.227 NA 
HETATM   16  C   UNL     1      -9.813  12.835  66.010  1.00  0.00    -0.255 C  
HETATM   17  N   UNL     1     -11.267  14.878  65.578  1.00  0.00    -0.342 NA 
HETATM   18  C   UNL     1     -10.728  13.605  65.032  1.00  0.00    -0.367 C  
HETATM   19  C   UNL     1     -11.140  13.784  67.888  1.00  0.00    -0.264 C  
HETATM   20  C   UNL     1     -11.980  14.555  66.839  1.00  0.00    -0.346 C  
BRANCH  17  21
HETATM   21  C   UNL     1     -10.215  15.879  65.812  1.00  0.00    -0.365 C  
BRANCH  21  22
HETATM   22  C   UNL     1     -10.752  17.317  65.865  1.00  0.00    -0.126 C  
BRANCH  22  23
HETATM   23  C   UNL     1      -9.999  18.221  66.845  1.00  0.00    -0.356 C  
BRANCH  23  24
HETATM   24  C   UNL     1      -8.601  18.564  66.334  1.00  0.00    -0.272 C  
BRANCH  24  25
HETATM   25  C   UNL     1      -7.717  19.094  67.409  1.00  0.00    -0.261 A  
HETATM   26  C   UNL     1      -7.370  20.416  67.606  1.00  0.00    -0.302 A  
HETATM   27  N   UNL     1      -6.525  20.477  68.679  1.00  0.00    -0.293 NA 
HETATM   28  H   UNL     1      -6.111  21.333  69.046  1.00  0.00     0.000 HD 
HETATM   29  C   UNL     1      -6.311  19.219  69.192  1.00  0.00    -0.283 A  
HETATM   30  C   UNL     1      -7.055  18.330  68.420  1.00  0.00    -0.264 A  
HETATM   31  C   UNL     1      -7.020  16.954  68.745  1.00  0.00    -0.204 A  
HETATM   32  C   UNL     1      -6.231  16.520  69.819  1.00  0.00    -0.205 A  
HETATM   33  C   UNL     1      -5.493  17.439  70.568  1.00  0.00    -0.224 A  
HETATM   34  C   UNL     1      -6.184  15.123  70.147  1.00  0.00    -0.140 C  
HETATM   35  N   UNL     1      -6.137  13.994  70.417  1.00  0.00    -0.166 NA 
HETATM   36  C   UNL     1      -5.521  18.807  70.270  1.00  0.00    -0.232 A  
ENDBRANCH  24  25
ENDBRANCH  23  24
ENDBRANCH  22  23
ENDBRANCH  21  22
ENDBRANCH  17  21
ENDBRANCH  10  15
ENDBRANCH   2   6
TORSDOF 7
ENDMDL
MODEL       69
REMARK 921   NORMALIZED FREE ENERGY PREDICTED BY IDOCK:   -5.99 KCAL/MOL
REMARK 922        TOTAL FREE ENERGY PREDICTED BY IDOCK:   -9.72 KCAL/MOL
REMARK 923 INTER-LIGAND FREE ENERGY PREDICTED BY IDOCK:   -8.24 KCAL/MOL
REMARK 924 INTRA-LIGAND FREE ENERGY PREDICTED BY IDOCK:   -1.48 KCAL/MOL
REMARK 927      BINDING AFFINITY PREDICTED BY RF-SCORE:    0.00 PKD
ROOT
HETATM    1  N   UNL     1     -11.019  15.166  64.467  1.00  0.00    -0.658 N  
HETATM    2  C   UNL     1     -11.778  14.034  64.392  1.00  0.00    -0.397 C  
HETATM    3  H1  UNL     1     -10.342  15.281  65.221  1.00  0.00     0.000 HD 
HETATM    4  H2  UNL     1     -11.128  15.899  63.766  1.00  0.00     0.000 HD 
HETATM    5  O   UNL     1     -12.592  13.895  63.484  1.00  0.00    -0.842 OA 
ENDROOT
BRANCH   2   6
HETATM    6  C   UNL     1     -11.525  13.056  65.423  1.00  0.00    -0.312 A  
HETATM    7  C   UNL     1     -12.062  12.930  66.690  1.00  0.00    -0.360 A  
HETATM    8  C   UNL     1     -11.495  11.767  67.262  1.00  0.00    -0.373 A  
HETATM    9  C   UNL     1     -11.632  11.082  68.483  1.00  0.00    -0.380 A  
HETATM   10  C   UNL     1     -10.884   9.918  68.744  1.00  0.00    -0.208 A  
HETATM   11  C   UNL     1     -10.001   9.476  67.740  1.00  0.00    -0.216 A  
HETATM   12  O   UNL     1     -10.631  12.039  65.196  1.00  0.00    -0.268 OA 
HETATM   13  C   UNL     1     -10.618  11.264  66.314  1.00  0.00    -0.263 A  
HETATM   14  C   UNL     1      -9.848  10.127  66.506  1.00  0.00    -0.268 A  
BRANCH  10  15
HETATM   15  N   UNL     1     -10.992   9.256  69.951  1.00  0.00    -0.230 NA 
HETATM   16  C   UNL     1     -11.250   9.960  71.216  1.00  0.00    -0.286 C  
HETATM   17  N   UNL     1     -12.108   7.797  72.243  1.00  0.00    -0.306 NA 
HETATM   18  C   UNL     1     -12.372   9.238  71.994  1.00  0.00    -0.363 C  
HETATM   19  C   UNL     1     -10.751   7.808  70.074  1.00  0.00    -0.244 C  
HETATM   20  C   UNL     1     -11.865   7.154  70.928  1.00  0.00    -0.339 C  
BRANCH  17  21
HETATM   21  C   UNL     1     -10.968   7.583  73.149  1.00  0.00    -0.367 C  
BRANCH  21  22
HETATM   22  C   UNL     1     -10.784   6.113  73.551  1.00  0.00    -0.263 C  
BRANCH  22  23
HETATM   23  C   UNL     1      -9.461   5.830  74.266  1.00  0.00    -0.151 C  
BRANCH  23  24
HETATM   24  C   UNL     1      -8.459   5.137  73.345  1.00  0.00    -0.110 C  
BRANCH  24  25
HETATM   25  C   UNL     1      -7.922   6.052  72.299  1.00  0.00    -0.102 A  
HETATM   26  C   UNL     1      -7.325   7.278  72.511  1.00  0.00    -0.075 A  
HETATM   27  N   UNL     1      -6.998   7.808  71.294  1.00  0.00    -0.049 NA 
HETATM   28  H   UNL     1      -6.545   8.710  71.154  1.00  0.00     0.000 HD 
HETATM   29  C   UNL     1      -7.369   6.950  70.285  1.00  0.00    -0.084 A  
HETATM   30  C   UNL     1      -7.944   5.834  70.885  1.00  0.00    -0.111 A  
HETATM   31  C   UNL     1      -8.407   4.781  70.061  1.00  0.00    -0.072 A  
HETATM   32  C   UNL     1      -8.291   4.895  68.670  1.00  0.00    -0.083 A  
HETATM   33  C   UNL     1      -7.714   6.033  68.100  1.00  0.00    -0.102 A  
HETATM   34  C   UNL     1      -8.769   3.835  67.828  1.00  0.00    -0.105 C  
HETATM   35  N   UNL     1      -9.157   2.983  67.140  1.00  0.00    -0.164 NA 
HETATM   36  C   UNL     1      -7.240   7.082  68.898  1.00  0.00    -0.091 A  
ENDBRANCH  24  25
ENDBRANCH  23  24
ENDBRANCH  22  23
ENDBRANCH  21  22
ENDBRANCH  17  21
ENDBRANCH  10  15
ENDBRANCH   2   6
TORSDOF 7
ENDMDL
MODEL       70
REMARK 921   NORMALIZED FREE ENERGY PREDICTED BY IDOCK:   -5.97 KCAL/MOL
REMARK 922        TOTAL FREE ENERGY PREDICTED BY IDOCK:   -9.69 KCAL/MOL
REMARK 923 INTER-LIGAND FREE ENERGY PREDICTED BY IDOCK:   -8.35 KCAL/MOL
REMARK 924 INTRA-LIGAND FREE ENERGY PREDICTED BY IDOCK:   -1.34 KCAL/MOL
REMARK 927      BINDING AFFINITY PREDICTED BY RF-SCORE:    0.00 PKD
ROOT
HETATM    1  N   UNL     1     -12.093  16.335  71.767  1.00  0.00    -0.637 N  
HETATM    2  C   UNL     1     -12.910  15.569  70.986  1.00  0.00    -0.482 C  
HETATM    3  H1  UNL     1     -11.088  16.355  71.592  1.00  0.00     0.000 HD 
HETATM    4  H2  UNL     1     -12.488  16.888  72.526  1.00  0.00     0.000 HD 
HETATM    5  O   UNL     1     -14.119  15.544  71.195  1.00  0.00    -0.537 OA 
ENDROOT
BRANCH   2   6
HETATM    6  C   UNL     1     -12.247  14.845  69.928  1.00  0.00    -0.309 A  
HETATM    7  C   UNL     1     -11.815  13.534  69.874  1.00  0.00    -0.386 A  
HETATM    8  C   UNL     1     -11.270  13.333  68.584  1.00  0.00    -0.311 A  
HETATM    9  C   UNL     1     -10.699  12.249  67.894  1.00  0.00    -0.243 A  
HETATM   10  C   UNL     1     -10.231  12.399  66.574  1.00  0.00    -0.227 A  
HETATM   11  C   UNL     1     -10.358  13.671  65.983  1.00  0.00    -0.305 A  
HETATM   12  O   UNL     1     -11.968  15.473  68.740  1.00  0.00    -0.336 OA 
HETATM   13  C   UNL     1     -11.376  14.552  67.932  1.00  0.00    -0.310 A  
HETATM   14  C   UNL     1     -10.933  14.772  66.637  1.00  0.00    -0.326 A  
BRANCH  10  15
HETATM   15  N   UNL     1      -9.644  11.347  65.901  1.00  0.00    -0.220 NA 
HETATM   16  C   UNL     1     -10.257  10.727  64.717  1.00  0.00    -0.334 C  
HETATM   17  N   UNL     1      -7.988   9.812  64.022  1.00  0.00    -0.138 NA 
HETATM   18  C   UNL     1      -9.197  10.568  63.606  1.00  0.00    -0.270 C  
HETATM   19  C   UNL     1      -8.412  10.699  66.384  1.00  0.00    -0.152 C  
HETATM   20  C   UNL     1      -7.422  10.496  65.211  1.00  0.00    -0.065 C  
BRANCH  17  21
HETATM   21  C   UNL     1      -8.282   8.401  64.321  1.00  0.00    -0.127 C  
BRANCH  21  22
HETATM   22  C   UNL     1      -7.026   7.577  64.636  1.00  0.00    -0.052 C  
BRANCH  22  23
HETATM   23  C   UNL     1      -6.949   7.100  66.088  1.00  0.00    -0.065 C  
BRANCH  23  24
HETATM   24  C   UNL     1      -8.074   6.121  66.421  1.00  0.00    -0.111 C  
BRANCH  24  25
HETATM   25  C   UNL     1      -9.180   6.764  67.184  1.00  0.00    -0.145 A  
HETATM   26  C   UNL     1     -10.532   6.584  66.973  1.00  0.00    -0.295 A  
HETATM   27  N   UNL     1     -11.208   7.370  67.865  1.00  0.00    -0.423 NA 
HETATM   28  H   UNL     1     -12.224   7.435  67.931  1.00  0.00     0.000 HD 
HETATM   29  C   UNL     1     -10.324   8.062  68.659  1.00  0.00    -0.200 A  
HETATM   30  C   UNL     1      -9.041   7.695  68.261  1.00  0.00    -0.136 A  
HETATM   31  C   UNL     1      -7.933   8.262  68.932  1.00  0.00    -0.113 A  
HETATM   32  C   UNL     1      -8.151   9.185  69.963  1.00  0.00    -0.130 A  
HETATM   33  C   UNL     1      -9.452   9.535  70.333  1.00  0.00    -0.317 A  
HETATM   34  C   UNL     1      -7.030   9.771  70.642  1.00  0.00    -0.094 C  
HETATM   35  N   UNL     1      -6.128  10.253  71.192  1.00  0.00    -0.319 NA 
HETATM   36  C   UNL     1     -10.564   8.979  69.689  1.00  0.00    -0.230 A  
ENDBRANCH  24  25
ENDBRANCH  23  24
ENDBRANCH  22  23
ENDBRANCH  21  22
ENDBRANCH  17  21
ENDBRANCH  10  15
ENDBRANCH   2   6
TORSDOF 7
ENDMDL
MODEL       71
REMARK 921   NORMALIZED FREE ENERGY PREDICTED BY IDOCK:   -5.95 KCAL/MOL
REMARK 922        TOTAL FREE ENERGY PREDICTED BY IDOCK:   -9.67 KCAL/MOL
REMARK 923 INTER-LIGAND FREE ENERGY PREDICTED BY IDOCK:   -8.96 KCAL/MOL
REMARK 924 INTRA-LIGAND FREE ENERGY PREDICTED BY IDOCK:   -0.70 KCAL/MOL
REMARK 927      BINDING AFFINITY PREDICTED BY RF-SCORE:    0.00 PKD
ROOT
HETATM    1  N   UNL     1      -8.209   1.535  68.416  1.00  0.00    -0.055 N  
HETATM    2  C   UNL     1      -8.881   2.483  67.699  1.00  0.00    -0.136 C  
HETATM    3  H1  UNL     1      -8.071   1.653  69.420  1.00  0.00     0.000 HD 
HETATM    4  H2  UNL     1      -7.844   0.706  67.947  1.00  0.00     0.000 HD 
HETATM    5  O   UNL     1      -9.047   2.341  66.491  1.00  0.00    -0.127 OA 
ENDROOT
BRANCH   2   6
HETATM    6  C   UNL     1      -9.370   3.601  68.467  1.00  0.00    -0.164 A  
HETATM    7  C   UNL     1      -9.927   4.797  68.055  1.00  0.00    -0.154 A  
HETATM    8  C   UNL     1     -10.273   5.514  69.225  1.00  0.00    -0.315 A  
HETATM    9  C   UNL     1     -10.882   6.752  69.498  1.00  0.00    -0.315 A  
HETATM   10  C   UNL     1     -11.073   7.184  70.825  1.00  0.00    -0.269 A  
HETATM   11  C   UNL     1     -10.631   6.331  71.854  1.00  0.00    -0.258 A  
HETATM   12  O   UNL     1      -9.330   3.558  69.839  1.00  0.00    -0.146 OA 
HETATM   13  C   UNL     1      -9.877   4.720  70.290  1.00  0.00    -0.242 A  
HETATM   14  C   UNL     1     -10.030   5.084  71.619  1.00  0.00    -0.249 A  
BRANCH  10  15
HETATM   15  N   UNL     1     -11.645   8.410  71.100  1.00  0.00    -0.276 NA 
HETATM   16  C   UNL     1     -11.116   9.667  70.551  1.00  0.00    -0.308 C  
HETATM   17  N   UNL     1     -13.368  10.784  70.944  1.00  0.00    -0.065 NA 
HETATM   18  C   UNL     1     -12.274  10.512  69.976  1.00  0.00    -0.250 C  
HETATM   19  C   UNL     1     -12.762   8.558  72.049  1.00  0.00    -0.376 C  
HETATM   20  C   UNL     1     -13.854   9.475  71.447  1.00  0.00    -0.160 C  
BRANCH  17  21
HETATM   21  C   UNL     1     -12.932  11.644  72.056  1.00  0.00    -0.260 C  
BRANCH  21  22
HETATM   22  C   UNL     1     -13.306  13.120  71.860  1.00  0.00    -0.546 C  
BRANCH  22  23
HETATM   23  C   UNL     1     -12.133  14.000  71.422  1.00  0.00    -0.252 C  
BRANCH  23  24
HETATM   24  C   UNL     1     -12.552  15.001  70.346  1.00  0.00    -0.399 C  
BRANCH  24  25
HETATM   25  C   UNL     1     -11.914  14.721  69.030  1.00  0.00    -0.308 A  
HETATM   26  C   UNL     1     -11.884  13.505  68.377  1.00  0.00    -0.373 A  
HETATM   27  N   UNL     1     -11.182  13.665  67.215  1.00  0.00    -0.300 NA 
HETATM   28  H   UNL     1     -11.003  12.925  66.536  1.00  0.00     0.000 HD 
HETATM   29  C   UNL     1     -10.751  14.965  67.091  1.00  0.00    -0.296 A  
HETATM   30  C   UNL     1     -11.203  15.656  68.212  1.00  0.00    -0.353 A  
HETATM   31  C   UNL     1     -10.902  17.032  68.331  1.00  0.00    -0.333 A  
HETATM   32  C   UNL     1     -10.147  17.660  67.331  1.00  0.00    -0.331 A  
HETATM   33  C   UNL     1      -9.703  16.935  66.222  1.00  0.00    -0.301 A  
HETATM   34  C   UNL     1      -9.829  19.055  67.450  1.00  0.00    -0.324 C  
HETATM   35  N   UNL     1      -9.564  20.182  67.542  1.00  0.00    -0.392 NA 
HETATM   36  C   UNL     1      -9.999  15.573  66.080  1.00  0.00    -0.332 A  
ENDBRANCH  24  25
ENDBRANCH  23  24
ENDBRANCH  22  23
ENDBRANCH  21  22
ENDBRANCH  17  21
ENDBRANCH  10  15
ENDBRANCH   2   6
TORSDOF 7
ENDMDL
MODEL       72
REMARK 921   NORMALIZED FREE ENERGY PREDICTED BY IDOCK:   -5.91 KCAL/MOL
REMARK 922        TOTAL FREE ENERGY PREDICTED BY IDOCK:   -9.61 KCAL/MOL
REMARK 923 INTER-LIGAND FREE ENERGY PREDICTED BY IDOCK:   -9.09 KCAL/MOL
REMARK 924 INTRA-LIGAND FREE ENERGY PREDICTED BY IDOCK:   -0.52 KCAL/MOL
REMARK 927      BINDING AFFINITY PREDICTED BY RF-SCORE:    0.00 PKD
ROOT
HETATM    1  N   UNL     1      -7.806   4.910  74.057  1.00  0.00    -0.100 N  
HETATM    2  C   UNL     1      -9.100   4.789  73.639  1.00  0.00    -0.109 C  
HETATM    3  H1  UNL     1      -7.290   5.774  73.886  1.00  0.00     0.000 HD 
HETATM    4  H2  UNL     1      -7.353   4.135  74.541  1.00  0.00     0.000 HD 
HETATM    5  O   UNL     1      -9.720   3.750  73.844  1.00  0.00    -0.105 OA 
ENDROOT
BRANCH   2   6
HETATM    6  C   UNL     1      -9.646   5.953  72.985  1.00  0.00    -0.154 A  
HETATM    7  C   UNL     1      -9.171   6.682  71.911  1.00  0.00    -0.147 A  
HETATM    8  C   UNL     1     -10.122   7.698  71.653  1.00  0.00    -0.212 A  
HETATM    9  C   UNL     1     -10.251   8.733  70.709  1.00  0.00    -0.262 A  
HETATM   10  C   UNL     1     -11.357   9.605  70.742  1.00  0.00    -0.340 A  
HETATM   11  C   UNL     1     -12.315   9.398  71.753  1.00  0.00    -0.471 A  
HETATM   12  O   UNL     1     -10.832   6.489  73.420  1.00  0.00    -0.268 OA 
HETATM   13  C   UNL     1     -11.113   7.546  72.610  1.00  0.00    -0.347 A  
HETATM   14  C   UNL     1     -12.224   8.369  72.704  1.00  0.00    -0.302 A  
BRANCH  10  15
HETATM   15  N   UNL     1     -11.477  10.639  69.836  1.00  0.00    -0.291 NA 
HETATM   16  C   UNL     1     -12.272  11.845  70.116  1.00  0.00    -0.241 C  
HETATM   17  N   UNL     1     -10.961  13.118  68.346  1.00  0.00    -0.251 NA 
HETATM   18  C   UNL     1     -11.456  13.103  69.747  1.00  0.00    -0.145 C  
HETATM   19  C   UNL     1     -10.904  10.564  68.482  1.00  0.00    -0.234 C  
HETATM   20  C   UNL     1     -10.165  11.882  68.141  1.00  0.00    -0.199 C  
BRANCH  17  21
HETATM   21  C   UNL     1     -12.054  13.206  67.365  1.00  0.00    -0.263 C  
BRANCH  21  22
HETATM   22  C   UNL     1     -11.898  12.220  66.198  1.00  0.00    -0.398 C  
BRANCH  22  23
HETATM   23  C   UNL     1     -11.654  12.898  64.847  1.00  0.00    -0.365 C  
BRANCH  23  24
HETATM   24  C   UNL     1     -10.335  13.668  64.833  1.00  0.00    -0.408 C  
BRANCH  24  25
HETATM   25  C   UNL     1     -10.534  15.138  64.956  1.00  0.00    -0.418 A  
HETATM   26  C   UNL     1     -11.371  15.919  64.184  1.00  0.00    -0.010 A  
HETATM   27  N   UNL     1     -11.243  17.215  64.598  1.00  0.00    -0.959 NA 
HETATM   28  H   UNL     1     -11.747  18.007  64.198  1.00  0.00     0.000 HD 
HETATM   29  C   UNL     1     -10.338  17.301  65.630  1.00  0.00    -0.171 A  
HETATM   30  C   UNL     1      -9.881  16.011  65.883  1.00  0.00    -0.380 A  
HETATM   31  C   UNL     1      -8.937  15.815  66.918  1.00  0.00    -0.266 A  
HETATM   32  C   UNL     1      -8.475  16.918  67.646  1.00  0.00    -0.206 A  
HETATM   33  C   UNL     1      -8.950  18.201  67.361  1.00  0.00    -0.256 A  
HETATM   34  C   UNL     1      -7.509  16.727  68.691  1.00  0.00    -0.219 C  
HETATM   35  N   UNL     1      -6.724  16.581  69.534  1.00  0.00    -0.223 NA 
HETATM   36  C   UNL     1      -9.892  18.416  66.348  1.00  0.00    -0.369 A  
ENDBRANCH  24  25
ENDBRANCH  23  24
ENDBRANCH  22  23
ENDBRANCH  21  22
ENDBRANCH  17  21
ENDBRANCH  10  15
ENDBRANCH   2   6
TORSDOF 7
ENDMDL
MODEL       73
REMARK 921   NORMALIZED FREE ENERGY PREDICTED BY IDOCK:   -5.89 KCAL/MOL
REMARK 922        TOTAL FREE ENERGY PREDICTED BY IDOCK:   -9.57 KCAL/MOL
REMARK 923 INTER-LIGAND FREE ENERGY PREDICTED BY IDOCK:   -7.68 KCAL/MOL
REMARK 924 INTRA-LIGAND FREE ENERGY PREDICTED BY IDOCK:   -1.89 KCAL/MOL
REMARK 927      BINDING AFFINITY PREDICTED BY RF-SCORE:    0.00 PKD
ROOT
HETATM    1  N   UNL     1     -12.409  15.031  68.444  1.00  0.00    -0.544 N  
HETATM    2  C   UNL     1     -12.315  14.140  69.474  1.00  0.00    -0.231 C  
HETATM    3  H1  UNL     1     -12.092  14.772  67.510  1.00  0.00     0.000 HD 
HETATM    4  H2  UNL     1     -12.799  15.959  68.609  1.00  0.00     0.000 HD 
HETATM    5  O   UNL     1     -12.697  14.452  70.598  1.00  0.00    -0.338 OA 
ENDROOT
BRANCH   2   6
HETATM    6  C   UNL     1     -11.769  12.851  69.123  1.00  0.00    -0.324 A  
HETATM    7  C   UNL     1     -11.545  11.731  69.899  1.00  0.00    -0.351 A  
HETATM    8  C   UNL     1     -11.035  10.730  69.039  1.00  0.00    -0.289 A  
HETATM    9  C   UNL     1     -10.636   9.389  69.187  1.00  0.00    -0.234 A  
HETATM   10  C   UNL     1     -10.147   8.657  68.088  1.00  0.00    -0.197 A  
HETATM   11  C   UNL     1     -10.073   9.321  66.849  1.00  0.00    -0.324 A  
HETATM   12  O   UNL     1     -11.393  12.599  67.826  1.00  0.00    -0.259 OA 
HETATM   13  C   UNL     1     -10.948  11.313  67.785  1.00  0.00    -0.252 A  
HETATM   14  C   UNL     1     -10.473  10.654  66.661  1.00  0.00    -0.296 A  
BRANCH  10  15
HETATM   15  N   UNL     1      -9.728   7.350  68.231  1.00  0.00    -0.150 NA 
HETATM   16  C   UNL     1     -10.644   6.266  68.616  1.00  0.00    -0.264 C  
HETATM   17  N   UNL     1      -9.037   4.558  67.630  1.00  0.00    -0.116 NA 
HETATM   18  C   UNL     1     -10.437   5.053  67.683  1.00  0.00    -0.005 C  
HETATM   19  C   UNL     1      -8.311   6.964  68.113  1.00  0.00    -0.118 C  
HETATM   20  C   UNL     1      -8.176   5.699  67.230  1.00  0.00    -0.101 C  
BRANCH  17  21
HETATM   21  C   UNL     1      -8.592   3.992  68.913  1.00  0.00    -0.084 C  
BRANCH  21  22
HETATM   22  C   UNL     1      -9.108   2.566  69.155  1.00  0.00    -0.188 C  
BRANCH  22  23
HETATM   23  C   UNL     1      -9.497   2.289  70.609  1.00  0.00    -0.189 C  
BRANCH  23  24
HETATM   24  C   UNL     1      -8.771   3.224  71.575  1.00  0.00    -0.118 C  
BRANCH  24  25
HETATM   25  C   UNL     1      -9.696   4.183  72.240  1.00  0.00    -0.214 A  
HETATM   26  C   UNL     1     -10.849   3.864  72.930  1.00  0.00    -0.079 A  
HETATM   27  N   UNL     1     -11.420   5.028  73.362  1.00  0.00    -0.482 NA 
HETATM   28  H   UNL     1     -12.286   5.088  73.898  1.00  0.00     0.000 HD 
HETATM   29  C   UNL     1     -10.663   6.107  72.971  1.00  0.00    -0.252 A  
HETATM   30  C   UNL     1      -9.567   5.608  72.272  1.00  0.00    -0.170 A  
HETATM   31  C   UNL     1      -8.613   6.518  71.762  1.00  0.00    -0.124 A  
HETATM   32  C   UNL     1      -8.800   7.893  71.957  1.00  0.00    -0.187 A  
HETATM   33  C   UNL     1      -9.914   8.360  72.659  1.00  0.00    -0.329 A  
HETATM   34  C   UNL     1      -7.840   8.823  71.433  1.00  0.00    -0.128 C  
HETATM   35  N   UNL     1      -7.070   9.582  71.009  1.00  0.00    -0.298 NA 
HETATM   36  C   UNL     1     -10.866   7.476  73.181  1.00  0.00    -0.448 A  
ENDBRANCH  24  25
ENDBRANCH  23  24
ENDBRANCH  22  23
ENDBRANCH  21  22
ENDBRANCH  17  21
ENDBRANCH  10  15
ENDBRANCH   2   6
TORSDOF 7
ENDMDL
MODEL       74
REMARK 921   NORMALIZED FREE ENERGY PREDICTED BY IDOCK:   -5.85 KCAL/MOL
REMARK 922        TOTAL FREE ENERGY PREDICTED BY IDOCK:   -9.52 KCAL/MOL
REMARK 923 INTER-LIGAND FREE ENERGY PREDICTED BY IDOCK:   -8.38 KCAL/MOL
REMARK 924 INTRA-LIGAND FREE ENERGY PREDICTED BY IDOCK:   -1.14 KCAL/MOL
REMARK 927      BINDING AFFINITY PREDICTED BY RF-SCORE:    0.00 PKD
ROOT
HETATM    1  N   UNL     1     -13.539  14.953  73.442  1.00  0.00    -0.176 N  
HETATM    2  C   UNL     1     -13.678  14.864  72.086  1.00  0.00    -0.444 C  
HETATM    3  H1  UNL     1     -13.055  14.218  73.957  1.00  0.00     0.000 HD 
HETATM    4  H2  UNL     1     -13.921  15.757  73.940  1.00  0.00     0.000 HD 
HETATM    5  O   UNL     1     -14.260  15.748  71.466  1.00  0.00    -0.467 OA 
ENDROOT
BRANCH   2   6
HETATM    6  C   UNL     1     -13.081  13.697  71.484  1.00  0.00    -0.350 A  
HETATM    7  C   UNL     1     -12.293  13.574  70.356  1.00  0.00    -0.397 A  
HETATM    8  C   UNL     1     -11.944  12.208  70.245  1.00  0.00    -0.389 A  
HETATM    9  C   UNL     1     -11.163  11.441  69.361  1.00  0.00    -0.333 A  
HETATM   10  C   UNL     1     -11.029  10.050  69.538  1.00  0.00    -0.253 A  
HETATM   11  C   UNL     1     -11.706   9.468  70.627  1.00  0.00    -0.330 A  
HETATM   12  O   UNL     1     -13.260  12.463  72.060  1.00  0.00    -0.481 OA 
HETATM   13  C   UNL     1     -12.569  11.567  71.303  1.00  0.00    -0.347 A  
HETATM   14  C   UNL     1     -12.485  10.203  71.535  1.00  0.00    -0.526 A  
BRANCH  10  15
HETATM   15  N   UNL     1     -10.287   9.288  68.659  1.00  0.00    -0.200 NA 
HETATM   16  C   UNL     1      -8.891   9.605  68.324  1.00  0.00    -0.120 C  
HETATM   17  N   UNL     1      -8.525   7.202  67.573  1.00  0.00    -0.122 NA 
HETATM   18  C   UNL     1      -8.031   8.325  68.410  1.00  0.00    -0.119 C  
HETATM   19  C   UNL     1     -10.873   8.162  67.912  1.00  0.00     0.032 C  
HETATM   20  C   UNL     1      -9.930   6.934  67.970  1.00  0.00    -0.154 C  
BRANCH  17  21
HETATM   21  C   UNL     1      -8.436   7.493  66.133  1.00  0.00    -0.144 C  
BRANCH  21  22
HETATM   22  C   UNL     1      -7.004   7.793  65.667  1.00  0.00    -0.053 C  
BRANCH  22  23
HETATM   23  C   UNL     1      -6.637   9.278  65.719  1.00  0.00    -0.069 C  
BRANCH  23  24
HETATM   24  C   UNL     1      -6.591   9.898  64.324  1.00  0.00    -0.126 C  
BRANCH  24  25
HETATM   25  C   UNL     1      -7.950  10.145  63.767  1.00  0.00    -0.153 A  
HETATM   26  C   UNL     1      -8.504   9.535  62.659  1.00  0.00    -0.187 A  
HETATM   27  N   UNL     1      -9.753  10.057  62.468  1.00  0.00    -0.617 NA 
HETATM   28  H   UNL     1     -10.388   9.787  61.717  1.00  0.00     0.000 HD 
HETATM   29  C   UNL     1     -10.030  10.999  63.431  1.00  0.00    -0.380 A  
HETATM   30  C   UNL     1      -8.920  11.070  64.267  1.00  0.00    -0.049 A  
HETATM   31  C   UNL     1      -8.948  11.967  65.360  1.00  0.00     0.230 A  
HETATM   32  C   UNL     1     -10.079  12.768  65.564  1.00  0.00    -0.278 A  
HETATM   33  C   UNL     1     -11.173  12.676  64.701  1.00  0.00    -0.348 A  
HETATM   34  C   UNL     1     -10.109  13.688  66.666  1.00  0.00    -0.277 C  
HETATM   35  N   UNL     1     -10.140  14.437  67.553  1.00  0.00    -0.231 NA 
HETATM   36  C   UNL     1     -11.171  11.787  63.619  1.00  0.00    -0.519 A  
ENDBRANCH  24  25
ENDBRANCH  23  24
ENDBRANCH  22  23
ENDBRANCH  21  22
ENDBRANCH  17  21
ENDBRANCH  10  15
ENDBRANCH   2   6
TORSDOF 7
ENDMDL
MODEL       75
REMARK 921   NORMALIZED FREE ENERGY PREDICTED BY IDOCK:   -5.85 KCAL/MOL
REMARK 922        TOTAL FREE ENERGY PREDICTED BY IDOCK:   -9.51 KCAL/MOL
REMARK 923 INTER-LIGAND FREE ENERGY PREDICTED BY IDOCK:   -8.24 KCAL/MOL
REMARK 924 INTRA-LIGAND FREE ENERGY PREDICTED BY IDOCK:   -1.28 KCAL/MOL
REMARK 927      BINDING AFFINITY PREDICTED BY RF-SCORE:    0.00 PKD
ROOT
HETATM    1  N   UNL     1     -14.269  15.265  70.928  1.00  0.00    -0.820 N  
HETATM    2  C   UNL     1     -12.913  15.424  70.954  1.00  0.00    -0.478 C  
HETATM    3  H1  UNL     1     -14.695  14.596  70.287  1.00  0.00     0.000 HD 
HETATM    4  H2  UNL     1     -14.857  15.818  71.550  1.00  0.00     0.000 HD 
HETATM    5  O   UNL     1     -12.400  16.229  71.725  1.00  0.00    -0.404 OA 
ENDROOT
BRANCH   2   6
HETATM    6  C   UNL     1     -12.178  14.575  70.047  1.00  0.00    -0.342 A  
HETATM    7  C   UNL     1     -11.669  13.303  70.224  1.00  0.00    -0.217 A  
HETATM    8  C   UNL     1     -11.077  12.923  68.996  1.00  0.00    -0.284 A  
HETATM    9  C   UNL     1     -10.423  11.777  68.511  1.00  0.00    -0.233 A  
HETATM   10  C   UNL     1      -9.928  11.732  67.194  1.00  0.00    -0.203 A  
HETATM   11  C   UNL     1     -10.111  12.876  66.394  1.00  0.00    -0.272 A  
HETATM   12  O   UNL     1     -11.903  15.011  68.775  1.00  0.00    -0.324 OA 
HETATM   13  C   UNL     1     -11.235  14.006  68.146  1.00  0.00    -0.275 A  
HETATM   14  C   UNL     1     -10.768  14.033  66.840  1.00  0.00    -0.285 A  
BRANCH  10  15
HETATM   15  N   UNL     1      -9.261  10.620  66.720  1.00  0.00    -0.155 NA 
HETATM   16  C   UNL     1      -9.927   9.583  65.918  1.00  0.00    -0.272 C  
HETATM   17  N   UNL     1      -7.671   8.838  65.009  1.00  0.00    -0.100 NA 
HETATM   18  C   UNL     1      -9.062   9.244  64.684  1.00  0.00    -0.121 C  
HETATM   19  C   UNL     1      -7.859  10.339  67.073  1.00  0.00    -0.107 C  
HETATM   20  C   UNL     1      -7.063   9.930  65.809  1.00  0.00    -0.110 C  
BRANCH  17  21
HETATM   21  C   UNL     1      -7.615   7.561  65.740  1.00  0.00    -0.093 C  
BRANCH  21  22
HETATM   22  C   UNL     1      -8.011   6.355  64.877  1.00  0.00    -0.124 C  
BRANCH  22  23
HETATM   23  C   UNL     1      -8.500   5.151  65.686  1.00  0.00    -0.134 C  
BRANCH  23  24
HETATM   24  C   UNL     1      -9.812   5.453  66.408  1.00  0.00    -0.196 C  
BRANCH  24  25
HETATM   25  C   UNL     1      -9.829   4.929  67.801  1.00  0.00    -0.196 A  
HETATM   26  C   UNL     1      -9.421   3.674  68.209  1.00  0.00    -0.152 A  
HETATM   27  N   UNL     1      -9.621   3.581  69.558  1.00  0.00    -0.163 NA 
HETATM   28  H   UNL     1      -9.408   2.759  70.123  1.00  0.00     0.000 HD 
HETATM   29  C   UNL     1     -10.152   4.752  70.045  1.00  0.00    -0.238 A  
HETATM   30  C   UNL     1     -10.286   5.622  68.967  1.00  0.00    -0.291 A  
HETATM   31  C   UNL     1     -10.806   6.917  69.197  1.00  0.00    -0.262 A  
HETATM   32  C   UNL     1     -11.186   7.284  70.495  1.00  0.00    -0.305 A  
HETATM   33  C   UNL     1     -11.044   6.384  71.553  1.00  0.00    -0.322 A  
HETATM   34  C   UNL     1     -11.724   8.594  70.734  1.00  0.00    -0.210 C  
HETATM   35  N   UNL     1     -12.164   9.650  70.934  1.00  0.00    -0.299 NA 
HETATM   36  C   UNL     1     -10.522   5.101  71.349  1.00  0.00    -0.249 A  
ENDBRANCH  24  25
ENDBRANCH  23  24
ENDBRANCH  22  23
ENDBRANCH  21  22
ENDBRANCH  17  21
ENDBRANCH  10  15
ENDBRANCH   2   6
TORSDOF 7
ENDMDL
MODEL       76
REMARK 921   NORMALIZED FREE ENERGY PREDICTED BY IDOCK:   -5.84 KCAL/MOL
REMARK 922        TOTAL FREE ENERGY PREDICTED BY IDOCK:   -9.51 KCAL/MOL
REMARK 923 INTER-LIGAND FREE ENERGY PREDICTED BY IDOCK:   -8.79 KCAL/MOL
REMARK 924 INTRA-LIGAND FREE ENERGY PREDICTED BY IDOCK:   -0.72 KCAL/MOL
REMARK 927      BINDING AFFINITY PREDICTED BY RF-SCORE:    0.00 PKD
ROOT
HETATM    1  N   UNL     1     -10.383  20.648  65.301  1.00  0.00    -0.019 N  
HETATM    2  C   UNL     1     -10.148  20.074  66.517  1.00  0.00    -0.482 C  
HETATM    3  H1  UNL     1     -10.616  20.068  64.496  1.00  0.00     0.000 HD 
HETATM    4  H2  UNL     1     -10.325  21.661  65.198  1.00  0.00     0.000 HD 
HETATM    5  O   UNL     1      -9.868  20.772  67.487  1.00  0.00    -0.439 OA 
ENDROOT
BRANCH   2   6
HETATM    6  C   UNL     1     -10.278  18.637  66.552  1.00  0.00    -0.412 A  
HETATM    7  C   UNL     1     -10.190  17.755  67.612  1.00  0.00    -0.359 A  
HETATM    8  C   UNL     1     -10.442  16.463  67.093  1.00  0.00    -0.297 A  
HETATM    9  C   UNL     1     -10.525  15.166  67.630  1.00  0.00    -0.253 A  
HETATM   10  C   UNL     1     -10.791  14.058  66.802  1.00  0.00    -0.294 A  
HETATM   11  C   UNL     1     -10.966  14.305  65.428  1.00  0.00    -0.335 A  
HETATM   12  O   UNL     1     -10.544  17.946  65.396  1.00  0.00    -0.656 OA 
HETATM   13  C   UNL     1     -10.641  16.631  65.732  1.00  0.00    -0.268 A  
HETATM   14  C   UNL     1     -10.902  15.587  64.858  1.00  0.00    -0.447 A  
BRANCH  10  15
HETATM   15  N   UNL     1     -10.846  12.779  67.318  1.00  0.00    -0.247 NA 
HETATM   16  C   UNL     1     -11.407  11.648  66.565  1.00  0.00    -0.263 C  
HETATM   17  N   UNL     1     -10.115  10.026  68.038  1.00  0.00    -0.160 NA 
HETATM   18  C   UNL     1     -10.450  10.439  66.651  1.00  0.00    -0.215 C  
HETATM   19  C   UNL     1     -10.443  12.475  68.702  1.00  0.00    -0.200 C  
HETATM   20  C   UNL     1      -9.550  11.210  68.732  1.00  0.00    -0.172 C  
BRANCH  17  21
HETATM   21  C   UNL     1     -11.282   9.501  68.765  1.00  0.00     0.098 C  
BRANCH  21  22
HETATM   22  C   UNL     1     -10.901   8.583  69.936  1.00  0.00    -0.205 C  
BRANCH  22  23
HETATM   23  C   UNL     1     -11.112   9.219  71.312  1.00  0.00    -0.427 C  
BRANCH  23  24
HETATM   24  C   UNL     1     -11.544   8.185  72.351  1.00  0.00    -0.463 C  
BRANCH  24  25
HETATM   25  C   UNL     1     -10.385   7.562  73.048  1.00  0.00    -0.376 A  
HETATM   26  C   UNL     1      -9.235   8.204  73.460  1.00  0.00    -0.186 A  
HETATM   27  N   UNL     1      -8.412   7.275  74.033  1.00  0.00    -0.162 NA 
HETATM   28  H   UNL     1      -7.492   7.474  74.424  1.00  0.00     0.000 HD 
HETATM   29  C   UNL     1      -9.002   6.033  74.006  1.00  0.00    -0.127 A  
HETATM   30  C   UNL     1     -10.247   6.182  73.401  1.00  0.00    -0.228 A  
HETATM   31  C   UNL     1     -11.073   5.044  73.256  1.00  0.00    -0.406 A  
HETATM   32  C   UNL     1     -10.615   3.799  73.706  1.00  0.00    -0.288 A  
HETATM   33  C   UNL     1      -9.358   3.684  74.303  1.00  0.00    -0.110 A  
HETATM   34  C   UNL     1     -11.445   2.638  73.552  1.00  0.00    -0.133 C  
HETATM   35  N   UNL     1     -12.109   1.693  73.427  1.00  0.00    -0.152 NA 
HETATM   36  C   UNL     1      -8.527   4.800  74.467  1.00  0.00    -0.103 A  
ENDBRANCH  24  25
ENDBRANCH  23  24
ENDBRANCH  22  23
ENDBRANCH  21  22
ENDBRANCH  17  21
ENDBRANCH  10  15
ENDBRANCH   2   6
TORSDOF 7
ENDMDL
MODEL       77
REMARK 921   NORMALIZED FREE ENERGY PREDICTED BY IDOCK:   -5.83 KCAL/MOL
REMARK 922        TOTAL FREE ENERGY PREDICTED BY IDOCK:   -9.50 KCAL/MOL
REMARK 923 INTER-LIGAND FREE ENERGY PREDICTED BY IDOCK:   -9.30 KCAL/MOL
REMARK 924 INTRA-LIGAND FREE ENERGY PREDICTED BY IDOCK:   -0.20 KCAL/MOL
REMARK 927      BINDING AFFINITY PREDICTED BY RF-SCORE:    0.00 PKD
ROOT
HETATM    1  N   UNL     1     -12.410  16.379  74.346  1.00  0.00    -0.711 N  
HETATM    2  C   UNL     1     -13.222  16.125  73.278  1.00  0.00    -0.464 C  
HETATM    3  H1  UNL     1     -11.423  16.122  74.312  1.00  0.00     0.000 HD 
HETATM    4  H2  UNL     1     -12.791  16.826  75.180  1.00  0.00     0.000 HD 
HETATM    5  O   UNL     1     -14.410  16.434  73.318  1.00  0.00    -0.104 OA 
ENDROOT
BRANCH   2   6
HETATM    6  C   UNL     1     -12.574  15.510  72.146  1.00  0.00    -0.398 A  
HETATM    7  C   UNL     1     -12.923  14.393  71.411  1.00  0.00    -0.405 A  
HETATM    8  C   UNL     1     -11.961  14.261  70.382  1.00  0.00    -0.402 A  
HETATM    9  C   UNL     1     -11.756  13.375  69.309  1.00  0.00    -0.383 A  
HETATM   10  C   UNL     1     -10.651  13.527  68.449  1.00  0.00    -0.248 A  
HETATM   11  C   UNL     1      -9.769  14.593  68.711  1.00  0.00    -0.217 A  
HETATM   12  O   UNL     1     -11.423  16.059  71.635  1.00  0.00    -0.417 OA 
HETATM   13  C   UNL     1     -11.058  15.296  70.569  1.00  0.00    -0.306 A  
HETATM   14  C   UNL     1      -9.947  15.502  69.765  1.00  0.00    -0.281 A  
BRANCH  10  15
HETATM   15  N   UNL     1     -10.429  12.646  67.411  1.00  0.00    -0.223 NA 
HETATM   16  C   UNL     1     -11.497  12.224  66.491  1.00  0.00    -0.381 C  
HETATM   17  N   UNL     1      -9.749  11.563  64.765  1.00  0.00    -0.237 NA 
HETATM   18  C   UNL     1     -10.997  12.323  65.033  1.00  0.00    -0.302 C  
HETATM   19  C   UNL     1      -9.129  11.981  67.212  1.00  0.00    -0.178 C  
HETATM   20  C   UNL     1      -8.720  12.045  65.720  1.00  0.00     0.289 C  
BRANCH  17  21
HETATM   21  C   UNL     1      -9.938  10.109  64.890  1.00  0.00    -0.288 C  
BRANCH  21  22
HETATM   22  C   UNL     1      -8.752   9.401  65.560  1.00  0.00    -0.190 C  
BRANCH  22  23
HETATM   23  C   UNL     1      -9.164   8.385  66.628  1.00  0.00    -0.226 C  
BRANCH  23  24
HETATM   24  C   UNL     1      -9.458   9.061  67.966  1.00  0.00    -0.157 C  
BRANCH  24  25
HETATM   25  C   UNL     1      -9.996   8.110  68.978  1.00  0.00    -0.191 A  
HETATM   26  C   UNL     1      -9.739   6.755  69.046  1.00  0.00    -0.145 A  
HETATM   27  N   UNL     1     -10.442   6.243  70.100  1.00  0.00    -0.206 NA 
HETATM   28  H   UNL     1     -10.439   5.263  70.381  1.00  0.00     0.000 HD 
HETATM   29  C   UNL     1     -11.157   7.237  70.728  1.00  0.00    -0.266 A  
HETATM   30  C   UNL     1     -10.889   8.423  70.051  1.00  0.00    -0.225 A  
HETATM   31  C   UNL     1     -11.498   9.617  70.504  1.00  0.00    -0.352 A  
HETATM   32  C   UNL     1     -12.362   9.573  71.606  1.00  0.00    -0.480 A  
HETATM   33  C   UNL     1     -12.613   8.363  72.258  1.00  0.00    -0.401 A  
HETATM   34  C   UNL     1     -12.991  10.779  72.065  1.00  0.00    -0.339 C  
HETATM   35  N   UNL     1     -13.507  11.750  72.439  1.00  0.00    -0.128 NA 
HETATM   36  C   UNL     1     -12.013   7.172  71.832  1.00  0.00    -0.343 A  
ENDBRANCH  24  25
ENDBRANCH  23  24
ENDBRANCH  22  23
ENDBRANCH  21  22
ENDBRANCH  17  21
ENDBRANCH  10  15
ENDBRANCH   2   6
TORSDOF 7
ENDMDL
MODEL       78
REMARK 921   NORMALIZED FREE ENERGY PREDICTED BY IDOCK:   -5.83 KCAL/MOL
REMARK 922        TOTAL FREE ENERGY PREDICTED BY IDOCK:   -9.50 KCAL/MOL
REMARK 923 INTER-LIGAND FREE ENERGY PREDICTED BY IDOCK:   -8.80 KCAL/MOL
REMARK 924 INTRA-LIGAND FREE ENERGY PREDICTED BY IDOCK:   -0.70 KCAL/MOL
REMARK 927      BINDING AFFINITY PREDICTED BY RF-SCORE:    0.00 PKD
ROOT
HETATM    1  N   UNL     1      -9.193   4.181  68.759  1.00  0.00    -0.134 N  
HETATM    2  C   UNL     1      -9.917   4.974  69.602  1.00  0.00    -0.241 C  
HETATM    3  H1  UNL     1      -8.850   4.552  67.873  1.00  0.00     0.000 HD 
HETATM    4  H2  UNL     1      -8.994   3.214  69.016  1.00  0.00     0.000 HD 
HETATM    5  O   UNL     1     -10.329   4.528  70.668  1.00  0.00    -0.150 OA 
ENDROOT
BRANCH   2   6
HETATM    6  C   UNL     1     -10.120   6.329  69.148  1.00  0.00    -0.168 A  
HETATM    7  C   UNL     1     -10.053   6.867  67.877  1.00  0.00    -0.195 A  
HETATM    8  C   UNL     1     -10.383   8.238  67.993  1.00  0.00    -0.268 A  
HETATM    9  C   UNL     1     -10.520   9.315  67.100  1.00  0.00    -0.319 A  
HETATM   10  C   UNL     1     -10.863  10.599  67.565  1.00  0.00    -0.296 A  
HETATM   11  C   UNL     1     -11.057  10.755  68.951  1.00  0.00    -0.307 A  
HETATM   12  O   UNL     1     -10.449   7.310  70.049  1.00  0.00    -0.212 OA 
HETATM   13  C   UNL     1     -10.605   8.463  69.342  1.00  0.00    -0.197 A  
HETATM   14  C   UNL     1     -10.941   9.700  69.871  1.00  0.00    -0.281 A  
BRANCH  10  15
HETATM   15  N   UNL     1     -10.972  11.667  66.698  1.00  0.00    -0.287 NA 
HETATM   16  C   UNL     1      -9.798  12.396  66.193  1.00  0.00    -0.252 C  
HETATM   17  N   UNL     1     -11.174  13.249  64.230  1.00  0.00    -0.377 NA 
HETATM   18  C   UNL     1      -9.920  12.582  64.664  1.00  0.00    -0.151 C  
HETATM   19  C   UNL     1     -12.277  12.221  66.298  1.00  0.00     0.141 C  
HETATM   20  C   UNL     1     -12.309  12.457  64.767  1.00  0.00    -0.423 C  
BRANCH  17  21
HETATM   21  C   UNL     1     -11.252  14.647  64.681  1.00  0.00    -0.346 C  
BRANCH  21  22
HETATM   22  C   UNL     1      -9.889  15.228  65.084  1.00  0.00    -0.164 C  
BRANCH  22  23
HETATM   23  C   UNL     1      -9.830  15.715  66.534  1.00  0.00    -0.278 C  
BRANCH  23  24
HETATM   24  C   UNL     1     -11.049  15.256  67.333  1.00  0.00    -0.326 C  
BRANCH  24  25
HETATM   25  C   UNL     1     -11.099  15.862  68.692  1.00  0.00    -0.337 A  
HETATM   26  C   UNL     1     -10.671  17.127  69.040  1.00  0.00    -0.219 A  
HETATM   27  N   UNL     1     -10.867  17.286  70.384  1.00  0.00     0.043 NA 
HETATM   28  H   UNL     1     -10.636  18.128  70.910  1.00  0.00     0.000 HD 
HETATM   29  C   UNL     1     -11.418  16.148  70.925  1.00  0.00    -0.386 A  
HETATM   30  C   UNL     1     -11.585  15.238  69.885  1.00  0.00    -0.335 A  
HETATM   31  C   UNL     1     -12.150  13.974  70.171  1.00  0.00    -0.419 A  
HETATM   32  C   UNL     1     -12.511  13.664  71.488  1.00  0.00    -0.330 A  
HETATM   33  C   UNL     1     -12.324  14.599  72.509  1.00  0.00    -0.342 A  
HETATM   34  C   UNL     1     -13.075  12.378  71.787  1.00  0.00    -0.342 C  
HETATM   35  N   UNL     1     -13.529  11.339  72.037  1.00  0.00    -0.314 NA 
HETATM   36  C   UNL     1     -11.776  15.860  72.247  1.00  0.00    -0.586 A  
ENDBRANCH  24  25
ENDBRANCH  23  24
ENDBRANCH  22  23
ENDBRANCH  21  22
ENDBRANCH  17  21
ENDBRANCH  10  15
ENDBRANCH   2   6
TORSDOF 7
ENDMDL
MODEL       79
REMARK 921   NORMALIZED FREE ENERGY PREDICTED BY IDOCK:   -5.82 KCAL/MOL
REMARK 922        TOTAL FREE ENERGY PREDICTED BY IDOCK:   -9.47 KCAL/MOL
REMARK 923 INTER-LIGAND FREE ENERGY PREDICTED BY IDOCK:   -8.51 KCAL/MOL
REMARK 924 INTRA-LIGAND FREE ENERGY PREDICTED BY IDOCK:   -0.97 KCAL/MOL
REMARK 927      BINDING AFFINITY PREDICTED BY RF-SCORE:    0.00 PKD
ROOT
HETATM    1  N   UNL     1      -8.876  20.192  65.917  1.00  0.00    -0.538 N  
HETATM    2  C   UNL     1      -9.960  19.566  66.463  1.00  0.00    -0.420 C  
HETATM    3  H1  UNL     1      -8.169  19.652  65.419  1.00  0.00     0.000 HD 
HETATM    4  H2  UNL     1      -8.774  21.203  66.008  1.00  0.00     0.000 HD 
HETATM    5  O   UNL     1     -10.811  20.216  67.063  1.00  0.00    -0.254 OA 
ENDROOT
BRANCH   2   6
HETATM    6  C   UNL     1     -10.014  18.140  66.256  1.00  0.00    -0.342 A  
HETATM    7  C   UNL     1      -9.398  17.111  66.942  1.00  0.00    -0.260 A  
HETATM    8  C   UNL     1      -9.831  15.902  66.346  1.00  0.00    -0.302 A  
HETATM    9  C   UNL     1      -9.605  14.534  66.576  1.00  0.00    -0.311 A  
HETATM   10  C   UNL     1     -10.205  13.556  65.760  1.00  0.00    -0.297 A  
HETATM   11  C   UNL     1     -11.032  14.005  64.713  1.00  0.00    -0.410 A  
HETATM   12  O   UNL     1     -10.786  17.624  65.244  1.00  0.00    -0.600 OA 
HETATM   13  C   UNL     1     -10.669  16.269  65.305  1.00  0.00    -0.332 A  
HETATM   14  C   UNL     1     -11.289  15.362  64.460  1.00  0.00    -0.321 A  
BRANCH  10  15
HETATM   15  N   UNL     1      -9.966  12.212  65.963  1.00  0.00    -0.232 NA 
HETATM   16  C   UNL     1     -10.851  11.164  65.433  1.00  0.00    -0.142 C  
HETATM   17  N   UNL     1      -8.959   9.473  65.621  1.00  0.00    -0.169 NA 
HETATM   18  C   UNL     1     -10.006  10.066  64.750  1.00  0.00    -0.178 C  
HETATM   19  C   UNL     1      -8.864  11.733  66.816  1.00  0.00    -0.191 C  
HETATM   20  C   UNL     1      -8.104  10.583  66.110  1.00  0.00    -0.145 C  
BRANCH  17  21
HETATM   21  C   UNL     1      -9.528   8.716  66.747  1.00  0.00    -0.191 C  
BRANCH  21  22
HETATM   22  C   UNL     1      -9.324   7.199  66.618  1.00  0.00    -0.207 C  
BRANCH  22  23
HETATM   23  C   UNL     1      -8.066   6.684  67.322  1.00  0.00    -0.121 C  
BRANCH  23  24
HETATM   24  C   UNL     1      -7.816   7.417  68.638  1.00  0.00    -0.122 C  
BRANCH  24  25
HETATM   25  C   UNL     1      -8.019   6.540  69.825  1.00  0.00    -0.120 A  
HETATM   26  C   UNL     1      -7.092   5.674  70.371  1.00  0.00    -0.066 A  
HETATM   27  N   UNL     1      -7.678   5.038  71.429  1.00  0.00    -0.097 NA 
HETATM   28  H   UNL     1      -7.220   4.341  72.016  1.00  0.00     0.000 HD 
HETATM   29  C   UNL     1      -8.973   5.472  71.591  1.00  0.00    -0.136 A  
HETATM   30  C   UNL     1      -9.214   6.423  70.603  1.00  0.00    -0.162 A  
HETATM   31  C   UNL     1     -10.484   7.043  70.550  1.00  0.00    -0.227 A  
HETATM   32  C   UNL     1     -11.468   6.675  71.477  1.00  0.00    -0.343 A  
HETATM   33  C   UNL     1     -11.194   5.713  72.452  1.00  0.00    -0.336 A  
HETATM   34  C   UNL     1     -12.762   7.293  71.422  1.00  0.00    -0.389 C  
HETATM   35  N   UNL     1     -13.813   7.786  71.382  1.00  0.00    -0.334 NA 
HETATM   36  C   UNL     1      -9.940   5.094  72.529  1.00  0.00    -0.214 A  
ENDBRANCH  24  25
ENDBRANCH  23  24
ENDBRANCH  22  23
ENDBRANCH  21  22
ENDBRANCH  17  21
ENDBRANCH  10  15
ENDBRANCH   2   6
TORSDOF 7
ENDMDL
MODEL       80
REMARK 921   NORMALIZED FREE ENERGY PREDICTED BY IDOCK:   -5.81 KCAL/MOL
REMARK 922        TOTAL FREE ENERGY PREDICTED BY IDOCK:   -9.47 KCAL/MOL
REMARK 923 INTER-LIGAND FREE ENERGY PREDICTED BY IDOCK:   -8.62 KCAL/MOL
REMARK 924 INTRA-LIGAND FREE ENERGY PREDICTED BY IDOCK:   -0.84 KCAL/MOL
REMARK 927      BINDING AFFINITY PREDICTED BY RF-SCORE:    0.00 PKD
ROOT
HETATM    1  N   UNL     1      -8.992   1.978  73.364  1.00  0.00    -0.066 N  
HETATM    2  C   UNL     1     -10.066   2.821  73.329  1.00  0.00    -0.120 C  
HETATM    3  H1  UNL     1      -8.287   2.014  72.628  1.00  0.00     0.000 HD 
HETATM    4  H2  UNL     1      -8.894   1.311  74.129  1.00  0.00     0.000 HD 
HETATM    5  O   UNL     1     -10.914   2.778  74.215  1.00  0.00    -0.152 OA 
ENDROOT
BRANCH   2   6
HETATM    6  C   UNL     1     -10.092   3.736  72.214  1.00  0.00    -0.157 A  
HETATM    7  C   UNL     1     -10.415   5.078  72.164  1.00  0.00    -0.274 A  
HETATM    8  C   UNL     1     -10.229   5.496  70.825  1.00  0.00    -0.302 A  
HETATM    9  C   UNL     1     -10.356   6.710  70.127  1.00  0.00    -0.236 A  
HETATM   10  C   UNL     1     -10.094   6.778  68.744  1.00  0.00    -0.160 A  
HETATM   11  C   UNL     1      -9.707   5.588  68.099  1.00  0.00    -0.164 A  
HETATM   12  O   UNL     1      -9.741   3.297  70.961  1.00  0.00    -0.165 OA 
HETATM   13  C   UNL     1      -9.829   4.368  70.125  1.00  0.00    -0.217 A  
HETATM   14  C   UNL     1      -9.559   4.361  68.765  1.00  0.00    -0.224 A  
BRANCH  10  15
HETATM   15  N   UNL     1     -10.243   7.961  68.048  1.00  0.00    -0.200 NA 
HETATM   16  C   UNL     1     -10.720   9.197  68.685  1.00  0.00    -0.118 C  
HETATM   17  N   UNL     1      -9.670  10.565  66.815  1.00  0.00    -0.174 NA 
HETATM   18  C   UNL     1      -9.807  10.376  68.282  1.00  0.00    -0.154 C  
HETATM   19  C   UNL     1     -10.037   8.043  66.592  1.00  0.00    -0.259 C  
HETATM   20  C   UNL     1      -9.180   9.285  66.244  1.00  0.00    -0.186 C  
BRANCH  17  21
HETATM   21  C   UNL     1     -10.934  10.972  66.181  1.00  0.00    -0.089 C  
BRANCH  21  22
HETATM   22  C   UNL     1     -10.749  11.499  64.751  1.00  0.00    -0.366 C  
BRANCH  22  23
HETATM   23  C   UNL     1     -11.669  12.672  64.402  1.00  0.00    -0.431 C  
BRANCH  23  24
HETATM   24  C   UNL     1     -12.181  13.379  65.656  1.00  0.00    -0.510 C  
BRANCH  24  25
HETATM   25  C   UNL     1     -11.502  14.683  65.891  1.00  0.00    -0.338 A  
HETATM   26  C   UNL     1     -10.932  15.494  64.930  1.00  0.00    -0.436 A  
HETATM   27  N   UNL     1     -10.392  16.582  65.559  1.00  0.00    -0.572 NA 
HETATM   28  H   UNL     1      -9.905  17.344  65.088  1.00  0.00     0.000 HD 
HETATM   29  C   UNL     1     -10.599  16.502  66.916  1.00  0.00    -0.238 A  
HETATM   30  C   UNL     1     -11.302  15.324  67.155  1.00  0.00    -0.247 A  
HETATM   31  C   UNL     1     -11.656  15.001  68.485  1.00  0.00    -0.348 A  
HETATM   32  C   UNL     1     -11.280  15.861  69.525  1.00  0.00    -0.325 A  
HETATM   33  C   UNL     1     -10.569  17.032  69.250  1.00  0.00    -0.276 A  
HETATM   34  C   UNL     1     -11.627  15.534  70.879  1.00  0.00    -0.375 C  
HETATM   35  N   UNL     1     -11.901  15.274  71.978  1.00  0.00    -0.399 NA 
HETATM   36  C   UNL     1     -10.217  17.376  67.939  1.00  0.00    -0.348 A  
ENDBRANCH  24  25
ENDBRANCH  23  24
ENDBRANCH  22  23
ENDBRANCH  21  22
ENDBRANCH  17  21
ENDBRANCH  10  15
ENDBRANCH   2   6
TORSDOF 7
ENDMDL
MODEL       81
REMARK 921   NORMALIZED FREE ENERGY PREDICTED BY IDOCK:   -5.77 KCAL/MOL
REMARK 922        TOTAL FREE ENERGY PREDICTED BY IDOCK:   -9.40 KCAL/MOL
REMARK 923 INTER-LIGAND FREE ENERGY PREDICTED BY IDOCK:   -8.09 KCAL/MOL
REMARK 924 INTRA-LIGAND FREE ENERGY PREDICTED BY IDOCK:   -1.31 KCAL/MOL
REMARK 927      BINDING AFFINITY PREDICTED BY RF-SCORE:    0.00 PKD
ROOT
HETATM    1  N   UNL     1      -9.576   7.786  69.275  1.00  0.00    -0.159 N  
HETATM    2  C   UNL     1      -8.565   8.118  68.419  1.00  0.00    -0.130 C  
HETATM    3  H1  UNL     1     -10.012   8.502  69.856  1.00  0.00     0.000 HD 
HETATM    4  H2  UNL     1      -9.896   6.819  69.333  1.00  0.00     0.000 HD 
HETATM    5  O   UNL     1      -8.040   7.256  67.720  1.00  0.00    -0.113 OA 
ENDROOT
BRANCH   2   6
HETATM    6  C   UNL     1      -8.208   9.516  68.403  1.00  0.00    -0.113 A  
HETATM    7  C   UNL     1      -8.917  10.616  67.962  1.00  0.00    -0.140 A  
HETATM    8  C   UNL     1      -8.115  11.753  68.222  1.00  0.00    -0.154 A  
HETATM    9  C   UNL     1      -8.255  13.140  68.042  1.00  0.00    -0.158 A  
HETATM   10  C   UNL     1      -7.222  14.023  68.413  1.00  0.00    -0.108 A  
HETATM   11  C   UNL     1      -6.055  13.460  68.963  1.00  0.00    -0.087 A  
HETATM   12  O   UNL     1      -6.992   9.917  68.898  1.00  0.00    -0.060 OA 
HETATM   13  C   UNL     1      -6.942  11.272  68.783  1.00  0.00    -0.091 A  
HETATM   14  C   UNL     1      -5.884  12.082  69.167  1.00  0.00    -0.068 A  
BRANCH  10  15
HETATM   15  N   UNL     1      -7.342  15.384  68.215  1.00  0.00    -0.109 NA 
HETATM   16  C   UNL     1      -7.160  16.359  69.301  1.00  0.00    -0.222 C  
HETATM   17  N   UNL     1      -6.696  18.181  67.587  1.00  0.00    -0.193 NA 
HETATM   18  C   UNL     1      -6.236  17.501  68.825  1.00  0.00    -0.188 C  
HETATM   19  C   UNL     1      -7.765  15.953  66.923  1.00  0.00    -0.233 C  
HETATM   20  C   UNL     1      -6.849  17.141  66.539  1.00  0.00    -0.260 C  
BRANCH  17  21
HETATM   21  C   UNL     1      -7.956  18.915  67.784  1.00  0.00    -0.251 C  
BRANCH  21  22
HETATM   22  C   UNL     1      -8.749  19.112  66.485  1.00  0.00    -0.348 C  
BRANCH  22  23
HETATM   23  C   UNL     1     -10.184  18.582  66.551  1.00  0.00    -0.440 C  
BRANCH  23  24
HETATM   24  C   UNL     1     -10.541  18.098  67.955  1.00  0.00    -0.389 C  
BRANCH  24  25
HETATM   25  C   UNL     1     -10.929  16.661  67.979  1.00  0.00    -0.311 A  
HETATM   26  C   UNL     1     -11.003  15.814  66.891  1.00  0.00    -0.207 A  
HETATM   27  N   UNL     1     -11.421  14.590  67.333  1.00  0.00    -0.352 NA 
HETATM   28  H   UNL     1     -11.564  13.774  66.739  1.00  0.00     0.000 HD 
HETATM   29  C   UNL     1     -11.621  14.615  68.694  1.00  0.00    -0.314 A  
HETATM   30  C   UNL     1     -11.312  15.901  69.129  1.00  0.00    -0.366 A  
HETATM   31  C   UNL     1     -11.425  16.197  70.508  1.00  0.00    -0.363 A  
HETATM   32  C   UNL     1     -11.858  15.201  71.392  1.00  0.00    -0.418 A  
HETATM   33  C   UNL     1     -12.166  13.923  70.920  1.00  0.00    -0.436 A  
HETATM   34  C   UNL     1     -11.984  15.499  72.791  1.00  0.00    -0.466 C  
HETATM   35  N   UNL     1     -12.093  15.733  73.924  1.00  0.00    -0.473 NA 
HETATM   36  C   UNL     1     -12.051  13.605  69.561  1.00  0.00    -0.368 A  
ENDBRANCH  24  25
ENDBRANCH  23  24
ENDBRANCH  22  23
ENDBRANCH  21  22
ENDBRANCH  17  21
ENDBRANCH  10  15
ENDBRANCH   2   6
TORSDOF 7
ENDMDL
MODEL       82
REMARK 921   NORMALIZED FREE ENERGY PREDICTED BY IDOCK:   -5.76 KCAL/MOL
REMARK 922        TOTAL FREE ENERGY PREDICTED BY IDOCK:   -9.39 KCAL/MOL
REMARK 923 INTER-LIGAND FREE ENERGY PREDICTED BY IDOCK:   -7.56 KCAL/MOL
REMARK 924 INTRA-LIGAND FREE ENERGY PREDICTED BY IDOCK:   -1.83 KCAL/MOL
REMARK 927      BINDING AFFINITY PREDICTED BY RF-SCORE:    0.00 PKD
ROOT
HETATM    1  N   UNL     1     -10.511   5.127  71.408  1.00  0.00    -0.207 N  
HETATM    2  C   UNL     1     -11.327   6.222  71.374  1.00  0.00    -0.296 C  
HETATM    3  H1  UNL     1      -9.621   5.134  70.910  1.00  0.00     0.000 HD 
HETATM    4  H2  UNL     1     -10.793   4.299  71.933  1.00  0.00     0.000 HD 
HETATM    5  O   UNL     1     -12.398   6.213  71.973  1.00  0.00    -0.290 OA 
ENDROOT
BRANCH   2   6
HETATM    6  C   UNL     1     -10.819   7.342  70.620  1.00  0.00    -0.242 A  
HETATM    7  C   UNL     1     -10.116   8.456  71.034  1.00  0.00    -0.242 A  
HETATM    8  C   UNL     1      -9.828   9.215  69.875  1.00  0.00    -0.206 A  
HETATM    9  C   UNL     1      -9.141  10.412  69.606  1.00  0.00    -0.074 A  
HETATM   10  C   UNL     1      -9.048  10.911  68.292  1.00  0.00    -0.158 A  
HETATM   11  C   UNL     1      -9.670  10.167  67.272  1.00  0.00    -0.203 A  
HETATM   12  O   UNL     1     -11.004   7.391  69.260  1.00  0.00    -0.180 OA 
HETATM   13  C   UNL     1     -10.402   8.529  68.817  1.00  0.00    -0.213 A  
HETATM   14  C   UNL     1     -10.354   8.963  67.502  1.00  0.00    -0.328 A  
BRANCH  10  15
HETATM   15  N   UNL     1      -8.398  12.099  68.025  1.00  0.00    -0.159 NA 
HETATM   16  C   UNL     1      -8.656  13.329  68.790  1.00  0.00     0.136 C  
HETATM   17  N   UNL     1      -6.406  14.259  68.051  1.00  0.00    -0.138 NA 
HETATM   18  C   UNL     1      -7.316  13.981  69.193  1.00  0.00    -0.037 C  
HETATM   19  C   UNL     1      -7.478  12.249  66.885  1.00  0.00     0.017 C  
HETATM   20  C   UNL     1      -6.187  12.978  67.334  1.00  0.00    -0.074 C  
BRANCH  17  21
HETATM   21  C   UNL     1      -6.944  15.282  67.140  1.00  0.00    -0.002 C  
BRANCH  21  22
HETATM   22  C   UNL     1      -6.809  16.710  67.690  1.00  0.00    -0.162 C  
BRANCH  22  23
HETATM   23  C   UNL     1      -8.145  17.441  67.842  1.00  0.00    -0.220 C  
BRANCH  23  24
HETATM   24  C   UNL     1      -9.106  17.102  66.703  1.00  0.00    -0.280 C  
BRANCH  24  25
HETATM   25  C   UNL     1     -10.230  16.233  67.149  1.00  0.00    -0.276 A  
HETATM   26  C   UNL     1     -11.072  16.467  68.218  1.00  0.00    -0.337 A  
HETATM   27  N   UNL     1     -11.949  15.422  68.304  1.00  0.00    -0.501 NA 
HETATM   28  H   UNL     1     -12.683  15.334  69.006  1.00  0.00     0.000 HD 
HETATM   29  C   UNL     1     -11.700  14.505  67.309  1.00  0.00    -0.406 A  
HETATM   30  C   UNL     1     -10.631  14.991  66.561  1.00  0.00    -0.305 A  
HETATM   31  C   UNL     1     -10.174  14.236  65.457  1.00  0.00    -0.379 A  
HETATM   32  C   UNL     1     -10.794  13.016  65.154  1.00  0.00    -0.320 A  
HETATM   33  C   UNL     1     -11.860  12.555  65.930  1.00  0.00    -0.489 A  
HETATM   34  C   UNL     1     -10.328  12.239  64.040  1.00  0.00    -0.397 C  
HETATM   35  N   UNL     1      -9.954  11.603  63.143  1.00  0.00    -0.400 NA 
HETATM   36  C   UNL     1     -12.335  13.292  67.021  1.00  0.00    -0.190 A  
ENDBRANCH  24  25
ENDBRANCH  23  24
ENDBRANCH  22  23
ENDBRANCH  21  22
ENDBRANCH  17  21
ENDBRANCH  10  15
ENDBRANCH   2   6
TORSDOF 7
ENDMDL
MODEL       83
REMARK 921   NORMALIZED FREE ENERGY PREDICTED BY IDOCK:   -5.76 KCAL/MOL
REMARK 922        TOTAL FREE ENERGY PREDICTED BY IDOCK:   -9.39 KCAL/MOL
REMARK 923 INTER-LIGAND FREE ENERGY PREDICTED BY IDOCK:   -8.04 KCAL/MOL
REMARK 924 INTRA-LIGAND FREE ENERGY PREDICTED BY IDOCK:   -1.35 KCAL/MOL
REMARK 927      BINDING AFFINITY PREDICTED BY RF-SCORE:    0.00 PKD
ROOT
HETATM    1  N   UNL     1     -10.444   2.259  72.632  1.00  0.00    -0.153 N  
HETATM    2  C   UNL     1     -10.472   3.553  73.067  1.00  0.00    -0.166 C  
HETATM    3  H1  UNL     1     -10.335   2.053  71.639  1.00  0.00     0.000 HD 
HETATM    4  H2  UNL     1     -10.532   1.496  73.303  1.00  0.00     0.000 HD 
HETATM    5  O   UNL     1     -10.603   3.801  74.262  1.00  0.00    -0.198 OA 
ENDROOT
BRANCH   2   6
HETATM    6  C   UNL     1     -10.317   4.550  72.036  1.00  0.00    -0.146 A  
HETATM    7  C   UNL     1      -9.841   4.437  70.744  1.00  0.00    -0.273 A  
HETATM    8  C   UNL     1      -9.949   5.717  70.152  1.00  0.00    -0.258 A  
HETATM    9  C   UNL     1      -9.669   6.264  68.886  1.00  0.00    -0.144 A  
HETATM   10  C   UNL     1      -9.892   7.630  68.625  1.00  0.00    -0.171 A  
HETATM   11  C   UNL     1     -10.399   8.415  69.677  1.00  0.00    -0.218 A  
HETATM   12  O   UNL     1     -10.689   5.849  72.279  1.00  0.00    -0.214 OA 
HETATM   13  C   UNL     1     -10.462   6.550  71.134  1.00  0.00    -0.220 A  
HETATM   14  C   UNL     1     -10.701   7.903  70.949  1.00  0.00    -0.234 A  
BRANCH  10  15
HETATM   15  N   UNL     1      -9.593   8.178  67.394  1.00  0.00    -0.153 NA 
HETATM   16  C   UNL     1      -9.634   9.627  67.146  1.00  0.00    -0.166 C  
HETATM   17  N   UNL     1      -8.102   9.324  65.137  1.00  0.00    -0.118 NA 
HETATM   18  C   UNL     1      -8.353  10.063  66.401  1.00  0.00    -0.126 C  
HETATM   19  C   UNL     1      -9.315   7.344  66.212  1.00  0.00    -0.111 C  
HETATM   20  C   UNL     1      -8.067   7.877  65.466  1.00  0.00    -0.130 C  
BRANCH  17  21
HETATM   21  C   UNL     1      -9.121   9.603  64.112  1.00  0.00    -0.209 C  
BRANCH  21  22
HETATM   22  C   UNL     1      -9.308  11.103  63.840  1.00  0.00    -0.197 C  
BRANCH  22  23
HETATM   23  C   UNL     1     -10.754  11.497  63.528  1.00  0.00    -0.483 C  
BRANCH  23  24
HETATM   24  C   UNL     1     -11.628  11.471  64.781  1.00  0.00    -0.086 C  
BRANCH  24  25
HETATM   25  C   UNL     1     -11.644  12.781  65.490  1.00  0.00    -0.400 A  
HETATM   26  C   UNL     1     -11.544  14.029  64.907  1.00  0.00    -0.367 A  
HETATM   27  N   UNL     1     -11.574  14.965  65.902  1.00  0.00    -0.284 NA 
HETATM   28  H   UNL     1     -11.516  15.973  65.756  1.00  0.00     0.000 HD 
HETATM   29  C   UNL     1     -11.695  14.356  67.129  1.00  0.00    -0.400 A  
HETATM   30  C   UNL     1     -11.751  12.984  66.902  1.00  0.00    -0.441 A  
HETATM   31  C   UNL     1     -11.886  12.115  68.010  1.00  0.00    -0.351 A  
HETATM   32  C   UNL     1     -11.945  12.653  69.302  1.00  0.00    -0.301 A  
HETATM   33  C   UNL     1     -11.880  14.036  69.495  1.00  0.00    -0.378 A  
HETATM   34  C   UNL     1     -12.073  11.777  70.432  1.00  0.00    -0.352 C  
HETATM   35  N   UNL     1     -12.172  11.074  71.352  1.00  0.00    -0.252 NA 
HETATM   36  C   UNL     1     -11.756  14.914  68.411  1.00  0.00    -0.336 A  
ENDBRANCH  24  25
ENDBRANCH  23  24
ENDBRANCH  22  23
ENDBRANCH  21  22
ENDBRANCH  17  21
ENDBRANCH  10  15
ENDBRANCH   2   6
TORSDOF 7
ENDMDL
MODEL       84
REMARK 921   NORMALIZED FREE ENERGY PREDICTED BY IDOCK:   -5.74 KCAL/MOL
REMARK 922        TOTAL FREE ENERGY PREDICTED BY IDOCK:   -9.36 KCAL/MOL
REMARK 923 INTER-LIGAND FREE ENERGY PREDICTED BY IDOCK:   -8.13 KCAL/MOL
REMARK 924 INTRA-LIGAND FREE ENERGY PREDICTED BY IDOCK:   -1.24 KCAL/MOL
REMARK 927      BINDING AFFINITY PREDICTED BY RF-SCORE:    0.00 PKD
ROOT
HETATM    1  N   UNL     1     -11.405   4.909  65.541  1.00  0.00    -0.942 N  
HETATM    2  C   UNL     1     -10.271   5.043  66.289  1.00  0.00    -0.273 C  
HETATM    3  H1  UNL     1     -11.932   5.734  65.254  1.00  0.00     0.000 HD 
HETATM    4  H2  UNL     1     -11.726   3.980  65.267  1.00  0.00     0.000 HD 
HETATM    5  O   UNL     1      -9.636   4.051  66.633  1.00  0.00    -0.192 OA 
ENDROOT
BRANCH   2   6
HETATM    6  C   UNL     1      -9.899   6.402  66.599  1.00  0.00    -0.152 A  
HETATM    7  C   UNL     1      -8.680   7.044  66.494  1.00  0.00    -0.138 A  
HETATM    8  C   UNL     1      -8.886   8.386  66.891  1.00  0.00    -0.157 A  
HETATM    9  C   UNL     1      -8.084   9.538  66.987  1.00  0.00    -0.113 A  
HETATM   10  C   UNL     1      -8.623  10.755  67.446  1.00  0.00    -0.126 A  
HETATM   11  C   UNL     1      -9.985  10.767  67.802  1.00  0.00    -0.195 A  
HETATM   12  O   UNL     1     -10.844   7.280  67.070  1.00  0.00    -0.357 OA 
HETATM   13  C   UNL     1     -10.223   8.478  67.245  1.00  0.00    -0.276 A  
HETATM   14  C   UNL     1     -10.818   9.641  67.709  1.00  0.00    -0.278 A  
BRANCH  10  15
HETATM   15  N   UNL     1      -7.835  11.882  67.569  1.00  0.00    -0.142 NA 
HETATM   16  C   UNL     1      -8.271  13.072  68.316  1.00  0.00    -0.150 C  
HETATM   17  N   UNL     1      -5.847  13.803  68.565  1.00  0.00    -0.084 NA 
HETATM   18  C   UNL     1      -7.138  13.542  69.254  1.00  0.00     0.038 C  
HETATM   19  C   UNL     1      -6.544  12.015  66.872  1.00  0.00    -0.047 C  
HETATM   20  C   UNL     1      -5.469  12.563  67.843  1.00  0.00    -0.094 C  
BRANCH  17  21
HETATM   21  C   UNL     1      -5.925  14.944  67.639  1.00  0.00    -0.053 C  
BRANCH  21  22
HETATM   22  C   UNL     1      -6.644  16.160  68.241  1.00  0.00    -0.127 C  
BRANCH  22  23
HETATM   23  C   UNL     1      -6.924  17.274  67.229  1.00  0.00    -0.194 C  
BRANCH  23  24
HETATM   24  C   UNL     1      -8.388  17.709  67.259  1.00  0.00    -0.225 C  
BRANCH  24  25
HETATM   25  C   UNL     1      -9.325  16.560  67.120  1.00  0.00    -0.242 A  
HETATM   26  C   UNL     1      -9.519  15.794  65.987  1.00  0.00    -0.357 A  
HETATM   27  N   UNL     1     -10.478  14.861  66.265  1.00  0.00    -0.292 NA 
HETATM   28  H   UNL     1     -10.820  14.163  65.605  1.00  0.00     0.000 HD 
HETATM   29  C   UNL     1     -10.918  14.998  67.561  1.00  0.00    -0.307 A  
HETATM   30  C   UNL     1     -10.205  16.052  68.127  1.00  0.00    -0.243 A  
HETATM   31  C   UNL     1     -10.460  16.400  69.473  1.00  0.00    -0.301 A  
HETATM   32  C   UNL     1     -11.428  15.691  70.196  1.00  0.00    -0.358 A  
HETATM   33  C   UNL     1     -12.130  14.643  69.595  1.00  0.00    -0.355 A  
HETATM   34  C   UNL     1     -11.699  16.047  71.560  1.00  0.00    -0.484 C  
HETATM   35  N   UNL     1     -11.927  16.331  72.663  1.00  0.00    -0.545 NA 
HETATM   36  C   UNL     1     -11.886  14.275  68.266  1.00  0.00    -0.370 A  
ENDBRANCH  24  25
ENDBRANCH  23  24
ENDBRANCH  22  23
ENDBRANCH  21  22
ENDBRANCH  17  21
ENDBRANCH  10  15
ENDBRANCH   2   6
TORSDOF 7
ENDMDL
MODEL       85
REMARK 921   NORMALIZED FREE ENERGY PREDICTED BY IDOCK:   -5.74 KCAL/MOL
REMARK 922        TOTAL FREE ENERGY PREDICTED BY IDOCK:   -9.36 KCAL/MOL
REMARK 923 INTER-LIGAND FREE ENERGY PREDICTED BY IDOCK:   -8.60 KCAL/MOL
REMARK 924 INTRA-LIGAND FREE ENERGY PREDICTED BY IDOCK:   -0.76 KCAL/MOL
REMARK 927      BINDING AFFINITY PREDICTED BY RF-SCORE:    0.00 PKD
ROOT
HETATM    1  N   UNL     1      -9.103   2.453  73.604  1.00  0.00    -0.079 N  
HETATM    2  C   UNL     1     -10.371   2.906  73.380  1.00  0.00    -0.138 C  
HETATM    3  H1  UNL     1      -8.306   2.927  73.180  1.00  0.00     0.000 HD 
HETATM    4  H2  UNL     1      -8.952   1.637  74.198  1.00  0.00     0.000 HD 
HETATM    5  O   UNL     1     -11.330   2.336  73.891  1.00  0.00    -0.192 OA 
ENDROOT
BRANCH   2   6
HETATM    6  C   UNL     1     -10.465   4.078  72.544  1.00  0.00    -0.117 A  
HETATM    7  C   UNL     1      -9.921   4.337  71.300  1.00  0.00    -0.230 A  
HETATM    8  C   UNL     1     -10.366   5.624  70.917  1.00  0.00    -0.303 A  
HETATM    9  C   UNL     1     -10.200   6.448  69.789  1.00  0.00    -0.226 A  
HETATM   10  C   UNL     1     -10.794   7.724  69.734  1.00  0.00    -0.209 A  
HETATM   11  C   UNL     1     -11.550   8.134  70.848  1.00  0.00    -0.283 A  
HETATM   12  O   UNL     1     -11.204   5.158  72.960  1.00  0.00    -0.286 OA 
HETATM   13  C   UNL     1     -11.137   6.090  71.970  1.00  0.00    -0.274 A  
HETATM   14  C   UNL     1     -11.746   7.336  71.986  1.00  0.00    -0.329 A  
BRANCH  10  15
HETATM   15  N   UNL     1     -10.612   8.548  68.642  1.00  0.00    -0.166 NA 
HETATM   16  C   UNL     1     -10.741  10.010  68.727  1.00  0.00    -0.223 C  
HETATM   17  N   UNL     1      -9.347  10.256  66.614  1.00  0.00    -0.159 NA 
HETATM   18  C   UNL     1      -9.541  10.681  68.024  1.00  0.00    -0.157 C  
HETATM   19  C   UNL     1     -10.380   8.015  67.289  1.00  0.00    -0.301 C  
HETATM   20  C   UNL     1      -9.217   8.777  66.607  1.00  0.00    -0.177 C  
BRANCH  17  21
HETATM   21  C   UNL     1     -10.449  10.689  65.740  1.00  0.00    -0.164 C  
BRANCH  21  22
HETATM   22  C   UNL     1     -10.067  11.856  64.820  1.00  0.00    -0.295 C  
BRANCH  22  23
HETATM   23  C   UNL     1     -10.673  13.197  65.240  1.00  0.00    -0.318 C  
BRANCH  23  24
HETATM   24  C   UNL     1     -11.918  13.007  66.105  1.00  0.00    -0.488 C  
BRANCH  24  25
HETATM   25  C   UNL     1     -11.791  13.664  67.435  1.00  0.00    -0.429 A  
HETATM   26  C   UNL     1     -12.241  13.164  68.642  1.00  0.00    -0.043 A  
HETATM   27  N   UNL     1     -11.954  14.081  69.614  1.00  0.00    -0.319 NA 
HETATM   28  H   UNL     1     -12.177  13.971  70.603  1.00  0.00     0.000 HD 
HETATM   29  C   UNL     1     -11.322  15.174  69.069  1.00  0.00    -0.294 A  
HETATM   30  C   UNL     1     -11.197  14.938  67.703  1.00  0.00    -0.330 A  
HETATM   31  C   UNL     1     -10.565  15.914  66.898  1.00  0.00    -0.309 A  
HETATM   32  C   UNL     1     -10.097  17.095  67.489  1.00  0.00    -0.301 A  
HETATM   33  C   UNL     1     -10.244  17.302  68.863  1.00  0.00    -0.349 A  
HETATM   34  C   UNL     1      -9.464  18.094  66.676  1.00  0.00    -0.302 C  
HETATM   35  N   UNL     1      -8.954  18.909  66.024  1.00  0.00    -0.464 NA 
HETATM   36  C   UNL     1     -10.858  16.345  69.680  1.00  0.00    -0.346 A  
ENDBRANCH  24  25
ENDBRANCH  23  24
ENDBRANCH  22  23
ENDBRANCH  21  22
ENDBRANCH  17  21
ENDBRANCH  10  15
ENDBRANCH   2   6
TORSDOF 7
ENDMDL
MODEL       86
REMARK 921   NORMALIZED FREE ENERGY PREDICTED BY IDOCK:   -5.73 KCAL/MOL
REMARK 922        TOTAL FREE ENERGY PREDICTED BY IDOCK:   -9.35 KCAL/MOL
REMARK 923 INTER-LIGAND FREE ENERGY PREDICTED BY IDOCK:   -8.06 KCAL/MOL
REMARK 924 INTRA-LIGAND FREE ENERGY PREDICTED BY IDOCK:   -1.29 KCAL/MOL
REMARK 927      BINDING AFFINITY PREDICTED BY RF-SCORE:    0.00 PKD
ROOT
HETATM    1  N   UNL     1     -11.492  13.530  63.490  1.00  0.00    -0.584 N  
HETATM    2  C   UNL     1     -12.034  12.342  63.889  1.00  0.00    -0.486 C  
HETATM    3  H1  UNL     1     -10.542  13.780  63.766  1.00  0.00     0.000 HD 
HETATM    4  H2  UNL     1     -12.038  14.170  62.913  1.00  0.00     0.000 HD 
HETATM    5  O   UNL     1     -13.177  12.042  63.557  1.00  0.00    -0.724 OA 
ENDROOT
BRANCH   2   6
HETATM    6  C   UNL     1     -11.166  11.507  64.683  1.00  0.00    -0.206 A  
HETATM    7  C   UNL     1     -11.029  11.405  66.054  1.00  0.00    -0.286 A  
HETATM    8  C   UNL     1     -10.065  10.398  66.296  1.00  0.00    -0.292 A  
HETATM    9  C   UNL     1      -9.500   9.805  67.440  1.00  0.00    -0.178 A  
HETATM   10  C   UNL     1      -8.521   8.800  67.322  1.00  0.00    -0.111 A  
HETATM   11  C   UNL     1      -8.134   8.421  66.023  1.00  0.00    -0.104 A  
HETATM   12  O   UNL     1     -10.309  10.629  64.065  1.00  0.00    -0.339 OA 
HETATM   13  C   UNL     1      -9.645   9.963  65.049  1.00  0.00    -0.297 A  
HETATM   14  C   UNL     1      -8.684   8.982  64.859  1.00  0.00    -0.200 A  
BRANCH  10  15
HETATM   15  N   UNL     1      -7.943   8.233  68.440  1.00  0.00    -0.117 NA 
HETATM   16  C   UNL     1      -6.741   7.389  68.365  1.00  0.00    -0.054 C  
HETATM   17  N   UNL     1      -6.269   7.843  70.823  1.00  0.00    -0.034 NA 
HETATM   18  C   UNL     1      -5.725   7.833  69.441  1.00  0.00    -0.026 C  
HETATM   19  C   UNL     1      -8.550   8.346  69.778  1.00  0.00    -0.132 C  
HETATM   20  C   UNL     1      -7.469   8.716  70.824  1.00  0.00    -0.080 C  
BRANCH  17  21
HETATM   21  C   UNL     1      -6.604   6.494  71.306  1.00  0.00    -0.051 C  
BRANCH  21  22
HETATM   22  C   UNL     1      -7.981   6.418  71.979  1.00  0.00    -0.108 C  
BRANCH  22  23
HETATM   23  C   UNL     1      -8.450   4.989  72.266  1.00  0.00    -0.124 C  
BRANCH  23  24
HETATM   24  C   UNL     1      -9.974   4.882  72.250  1.00  0.00    -0.232 C  
BRANCH  24  25
HETATM   25  C   UNL     1     -10.584   5.628  71.115  1.00  0.00    -0.312 A  
HETATM   26  C   UNL     1     -11.515   6.643  71.208  1.00  0.00    -0.311 A  
HETATM   27  N   UNL     1     -11.837   7.042  69.941  1.00  0.00    -0.600 NA 
HETATM   28  H   UNL     1     -12.504   7.778  69.714  1.00  0.00     0.000 HD 
HETATM   29  C   UNL     1     -11.133   6.308  69.015  1.00  0.00    -0.378 A  
HETATM   30  C   UNL     1     -10.330   5.417  69.722  1.00  0.00    -0.375 A  
HETATM   31  C   UNL     1      -9.486   4.541  69.001  1.00  0.00    -0.229 A  
HETATM   32  C   UNL     1      -9.491   4.579  67.600  1.00  0.00    -0.196 A  
HETATM   33  C   UNL     1     -10.314   5.482  66.922  1.00  0.00    -0.315 A  
HETATM   34  C   UNL     1      -8.645   3.685  66.862  1.00  0.00    -0.110 C  
HETATM   35  N   UNL     1      -7.966   2.963  66.257  1.00  0.00    -0.081 NA 
HETATM   36  C   UNL     1     -11.149   6.365  67.617  1.00  0.00    -0.388 A  
ENDBRANCH  24  25
ENDBRANCH  23  24
ENDBRANCH  22  23
ENDBRANCH  21  22
ENDBRANCH  17  21
ENDBRANCH  10  15
ENDBRANCH   2   6
TORSDOF 7
ENDMDL
MODEL       87
REMARK 921   NORMALIZED FREE ENERGY PREDICTED BY IDOCK:   -5.72 KCAL/MOL
REMARK 922        TOTAL FREE ENERGY PREDICTED BY IDOCK:   -9.34 KCAL/MOL
REMARK 923 INTER-LIGAND FREE ENERGY PREDICTED BY IDOCK:   -9.18 KCAL/MOL
REMARK 924 INTRA-LIGAND FREE ENERGY PREDICTED BY IDOCK:   -0.17 KCAL/MOL
REMARK 927      BINDING AFFINITY PREDICTED BY RF-SCORE:    0.00 PKD
ROOT
HETATM    1  N   UNL     1     -10.264   5.291  74.564  1.00  0.00    -0.262 N  
HETATM    2  C   UNL     1     -10.810   5.201  73.316  1.00  0.00    -0.295 C  
HETATM    3  H1  UNL     1      -9.934   6.189  74.917  1.00  0.00     0.000 HD 
HETATM    4  H2  UNL     1     -10.186   4.457  75.146  1.00  0.00     0.000 HD 
HETATM    5  O   UNL     1     -11.207   4.120  72.892  1.00  0.00    -0.098 OA 
ENDROOT
BRANCH   2   6
HETATM    6  C   UNL     1     -10.889   6.445  72.590  1.00  0.00    -0.240 A  
HETATM    7  C   UNL     1     -10.112   6.930  71.555  1.00  0.00    -0.195 A  
HETATM    8  C   UNL     1     -10.655   8.183  71.186  1.00  0.00    -0.242 A  
HETATM    9  C   UNL     1     -10.359   9.157  70.215  1.00  0.00    -0.253 A  
HETATM   10  C   UNL     1     -11.121  10.338  70.123  1.00  0.00    -0.319 A  
HETATM   11  C   UNL     1     -12.179  10.500  71.038  1.00  0.00    -0.505 A  
HETATM   12  O   UNL     1     -11.871   7.355  72.897  1.00  0.00    -0.146 OA 
HETATM   13  C   UNL     1     -11.721   8.405  72.043  1.00  0.00    -0.352 A  
HETATM   14  C   UNL     1     -12.510   9.545  72.012  1.00  0.00    -0.427 A  
BRANCH  10  15
HETATM   15  N   UNL     1     -10.819  11.311  69.191  1.00  0.00    -0.221 NA 
HETATM   16  C   UNL     1      -9.575  11.294  68.408  1.00  0.00    -0.195 C  
HETATM   17  N   UNL     1     -10.653  12.797  66.662  1.00  0.00    -0.255 NA 
HETATM   18  C   UNL     1      -9.894  11.546  66.918  1.00  0.00    -0.197 C  
HETATM   19  C   UNL     1     -11.674  12.494  68.989  1.00  0.00    -0.318 C  
HETATM   20  C   UNL     1     -11.893  12.740  67.476  1.00  0.00    -0.343 C  
BRANCH  17  21
HETATM   21  C   UNL     1      -9.873  14.003  66.982  1.00  0.00    -0.260 C  
BRANCH  21  22
HETATM   22  C   UNL     1      -8.358  13.797  66.840  1.00  0.00    -0.029 C  
BRANCH  22  23
HETATM   23  C   UNL     1      -7.525  14.980  67.340  1.00  0.00    -0.234 C  
BRANCH  23  24
HETATM   24  C   UNL     1      -7.926  15.393  68.755  1.00  0.00    -0.158 C  
BRANCH  24  25
HETATM   25  C   UNL     1      -8.937  16.486  68.764  1.00  0.00    -0.250 A  
HETATM   26  C   UNL     1     -10.137  16.486  69.447  1.00  0.00    -0.230 A  
HETATM   27  N   UNL     1     -10.781  17.660  69.171  1.00  0.00    -0.321 NA 
HETATM   28  H   UNL     1     -11.693  17.924  69.543  1.00  0.00     0.000 HD 
HETATM   29  C   UNL     1     -10.026  18.432  68.321  1.00  0.00    -0.369 A  
HETATM   30  C   UNL     1      -8.856  17.725  68.054  1.00  0.00    -0.259 A  
HETATM   31  C   UNL     1      -7.889  18.308  67.203  1.00  0.00    -0.229 A  
HETATM   32  C   UNL     1      -8.136  19.566  66.639  1.00  0.00    -0.324 A  
HETATM   33  C   UNL     1      -9.323  20.245  66.924  1.00  0.00    -0.505 A  
HETATM   34  C   UNL     1      -7.162  20.158  65.766  1.00  0.00    -0.282 C  
HETATM   35  N   UNL     1      -6.381  20.642  65.056  1.00  0.00    -0.277 NA 
HETATM   36  C   UNL     1     -10.290  19.692  67.772  1.00  0.00    -0.586 A  
ENDBRANCH  24  25
ENDBRANCH  23  24
ENDBRANCH  22  23
ENDBRANCH  21  22
ENDBRANCH  17  21
ENDBRANCH  10  15
ENDBRANCH   2   6
TORSDOF 7
ENDMDL
MODEL       88
REMARK 921   NORMALIZED FREE ENERGY PREDICTED BY IDOCK:   -5.71 KCAL/MOL
REMARK 922        TOTAL FREE ENERGY PREDICTED BY IDOCK:   -9.33 KCAL/MOL
REMARK 923 INTER-LIGAND FREE ENERGY PREDICTED BY IDOCK:   -8.46 KCAL/MOL
REMARK 924 INTRA-LIGAND FREE ENERGY PREDICTED BY IDOCK:   -0.86 KCAL/MOL
REMARK 927      BINDING AFFINITY PREDICTED BY RF-SCORE:    0.00 PKD
ROOT
HETATM    1  N   UNL     1      -9.649   1.970  74.526  1.00  0.00    -0.077 N  
HETATM    2  C   UNL     1     -10.708   2.230  73.705  1.00  0.00    -0.164 C  
HETATM    3  H1  UNL     1      -8.809   2.546  74.478  1.00  0.00     0.000 HD 
HETATM    4  H2  UNL     1      -9.698   1.198  75.190  1.00  0.00     0.000 HD 
HETATM    5  O   UNL     1     -11.720   1.537  73.763  1.00  0.00    -0.180 OA 
ENDROOT
BRANCH   2   6
HETATM    6  C   UNL     1     -10.538   3.357  72.821  1.00  0.00    -0.083 A  
HETATM    7  C   UNL     1      -9.711   3.521  71.727  1.00  0.00    -0.235 A  
HETATM    8  C   UNL     1      -9.978   4.806  71.199  1.00  0.00    -0.273 A  
HETATM    9  C   UNL     1      -9.510   5.558  70.106  1.00  0.00    -0.210 A  
HETATM   10  C   UNL     1      -9.997   6.857  69.863  1.00  0.00    -0.176 A  
HETATM   11  C   UNL     1     -10.960   7.365  70.755  1.00  0.00    -0.272 A  
HETATM   12  O   UNL     1     -11.285   4.494  73.011  1.00  0.00    -0.232 OA 
HETATM   13  C   UNL     1     -10.939   5.367  72.026  1.00  0.00    -0.178 A  
HETATM   14  C   UNL     1     -11.458   6.640  71.849  1.00  0.00    -0.332 A  
BRANCH  10  15
HETATM   15  N   UNL     1      -9.522   7.611  68.809  1.00  0.00    -0.151 NA 
HETATM   16  C   UNL     1      -8.785   8.868  69.006  1.00  0.00    -0.136 C  
HETATM   17  N   UNL     1      -7.784   8.647  66.678  1.00  0.00    -0.095 NA 
HETATM   18  C   UNL     1      -7.519   8.875  68.122  1.00  0.00    -0.092 C  
HETATM   19  C   UNL     1      -9.810   7.265  67.406  1.00  0.00    -0.159 C  
HETATM   20  C   UNL     1      -8.520   7.364  66.556  1.00  0.00    -0.128 C  
BRANCH  17  21
HETATM   21  C   UNL     1      -8.548   9.748  66.067  1.00  0.00    -0.135 C  
BRANCH  21  22
HETATM   22  C   UNL     1      -8.270   9.914  64.566  1.00  0.00    -0.162 C  
BRANCH  22  23
HETATM   23  C   UNL     1      -9.411  10.588  63.800  1.00  0.00    -0.319 C  
BRANCH  23  24
HETATM   24  C   UNL     1     -10.561  10.976  64.726  1.00  0.00    -0.350 C  
BRANCH  24  25
HETATM   25  C   UNL     1     -11.106  12.328  64.421  1.00  0.00    -0.381 A  
HETATM   26  C   UNL     1     -12.119  12.620  63.529  1.00  0.00    -0.561 A  
HETATM   27  N   UNL     1     -12.301  13.975  63.522  1.00  0.00    -1.118 NA 
HETATM   28  H   UNL     1     -12.986  14.468  62.951  1.00  0.00     0.000 HD 
HETATM   29  C   UNL     1     -11.427  14.579  64.396  1.00  0.00    -0.272 A  
HETATM   30  C   UNL     1     -10.670  13.569  64.983  1.00  0.00    -0.366 A  
HETATM   31  C   UNL     1      -9.690  13.922  65.940  1.00  0.00    -0.237 A  
HETATM   32  C   UNL     1      -9.497  15.272  66.261  1.00  0.00    -0.341 A  
HETATM   33  C   UNL     1     -10.271  16.261  65.649  1.00  0.00    -0.368 A  
HETATM   34  C   UNL     1      -8.497  15.638  67.225  1.00  0.00    -0.191 C  
HETATM   35  N   UNL     1      -7.688  15.942  68.000  1.00  0.00    -0.130 NA 
HETATM   36  C   UNL     1     -11.253  15.933  64.705  1.00  0.00    -0.364 A  
ENDBRANCH  24  25
ENDBRANCH  23  24
ENDBRANCH  22  23
ENDBRANCH  21  22
ENDBRANCH  17  21
ENDBRANCH  10  15
ENDBRANCH   2   6
TORSDOF 7
ENDMDL
MODEL       89
REMARK 921   NORMALIZED FREE ENERGY PREDICTED BY IDOCK:   -5.71 KCAL/MOL
REMARK 922        TOTAL FREE ENERGY PREDICTED BY IDOCK:   -9.32 KCAL/MOL
REMARK 923 INTER-LIGAND FREE ENERGY PREDICTED BY IDOCK:   -8.08 KCAL/MOL
REMARK 924 INTRA-LIGAND FREE ENERGY PREDICTED BY IDOCK:   -1.23 KCAL/MOL
REMARK 927      BINDING AFFINITY PREDICTED BY RF-SCORE:    0.00 PKD
ROOT
HETATM    1  N   UNL     1      -6.590  20.487  68.052  1.00  0.00    -0.300 N  
HETATM    2  C   UNL     1      -7.760  19.932  67.621  1.00  0.00    -0.291 C  
HETATM    3  H1  UNL     1      -5.860  19.899  68.454  1.00  0.00     0.000 HD 
HETATM    4  H2  UNL     1      -6.445  21.494  67.972  1.00  0.00     0.000 HD 
HETATM    5  O   UNL     1      -8.639  20.639  67.137  1.00  0.00    -0.312 OA 
ENDROOT
BRANCH   2   6
HETATM    6  C   UNL     1      -7.848  18.499  67.763  1.00  0.00    -0.245 A  
HETATM    7  C   UNL     1      -8.405  17.548  66.929  1.00  0.00    -0.255 A  
HETATM    8  C   UNL     1      -8.174  16.288  67.530  1.00  0.00    -0.165 A  
HETATM    9  C   UNL     1      -8.454  14.952  67.195  1.00  0.00    -0.244 A  
HETATM   10  C   UNL     1      -8.080  13.899  68.053  1.00  0.00    -0.154 A  
HETATM   11  C   UNL     1      -7.423  14.243  69.250  1.00  0.00    -0.022 A  
HETATM   12  O   UNL     1      -7.307  17.886  68.866  1.00  0.00    -0.276 OA 
HETATM   13  C   UNL     1      -7.509  16.549  68.718  1.00  0.00    -0.216 A  
HETATM   14  C   UNL     1      -7.117  15.564  69.612  1.00  0.00    -0.170 A  
BRANCH  10  15
HETATM   15  N   UNL     1      -8.377  12.587  67.744  1.00  0.00    -0.158 NA 
HETATM   16  C   UNL     1      -9.619  12.200  67.058  1.00  0.00    -0.205 C  
HETATM   17  N   UNL     1      -8.531  10.021  66.322  1.00  0.00    -0.128 NA 
HETATM   18  C   UNL     1      -9.294  11.226  65.905  1.00  0.00    -0.219 C  
HETATM   19  C   UNL     1      -7.520  11.469  68.173  1.00  0.00    -0.101 C  
HETATM   20  C   UNL     1      -7.294  10.488  66.996  1.00  0.00    -0.099 C  
BRANCH  17  21
HETATM   21  C   UNL     1      -9.310   9.142  67.208  1.00  0.00    -0.135 C  
BRANCH  21  22
HETATM   22  C   UNL     1      -8.432   8.289  68.135  1.00  0.00    -0.132 C  
BRANCH  22  23
HETATM   23  C   UNL     1      -9.073   7.997  69.495  1.00  0.00    -0.152 C  
BRANCH  23  24
HETATM   24  C   UNL     1     -10.520   7.531  69.348  1.00  0.00    -0.222 C  
BRANCH  24  25
HETATM   25  C   UNL     1     -11.389   8.013  70.456  1.00  0.00    -0.229 A  
HETATM   26  C   UNL     1     -11.952   7.240  71.452  1.00  0.00    -0.320 A  
HETATM   27  N   UNL     1     -12.698   8.058  72.254  1.00  0.00    -0.512 NA 
HETATM   28  H   UNL     1     -13.227   7.749  73.069  1.00  0.00     0.000 HD 
HETATM   29  C   UNL     1     -12.633   9.356  71.805  1.00  0.00    -0.387 A  
HETATM   30  C   UNL     1     -11.811   9.362  70.682  1.00  0.00    -0.268 A  
HETATM   31  C   UNL     1     -11.566  10.590  70.024  1.00  0.00    -0.392 A  
HETATM   32  C   UNL     1     -12.166  11.760  70.506  1.00  0.00    -0.438 A  
HETATM   33  C   UNL     1     -12.992  11.717  71.632  1.00  0.00    -0.467 A  
HETATM   34  C   UNL     1     -11.930  13.008  69.837  1.00  0.00    -0.311 C  
HETATM   35  N   UNL     1     -11.747  14.021  69.298  1.00  0.00    -0.303 NA 
HETATM   36  C   UNL     1     -13.239  10.514  72.305  1.00  0.00    -0.253 A  
ENDBRANCH  24  25
ENDBRANCH  23  24
ENDBRANCH  22  23
ENDBRANCH  21  22
ENDBRANCH  17  21
ENDBRANCH  10  15
ENDBRANCH   2   6
TORSDOF 7
ENDMDL
MODEL       90
REMARK 921   NORMALIZED FREE ENERGY PREDICTED BY IDOCK:   -5.70 KCAL/MOL
REMARK 922        TOTAL FREE ENERGY PREDICTED BY IDOCK:   -9.31 KCAL/MOL
REMARK 923 INTER-LIGAND FREE ENERGY PREDICTED BY IDOCK:   -9.04 KCAL/MOL
REMARK 924 INTRA-LIGAND FREE ENERGY PREDICTED BY IDOCK:   -0.27 KCAL/MOL
REMARK 927      BINDING AFFINITY PREDICTED BY RF-SCORE:    0.00 PKD
ROOT
HETATM    1  N   UNL     1      -9.841  20.204  67.273  1.00  0.00    -0.414 N  
HETATM    2  C   UNL     1     -10.438  19.652  66.176  1.00  0.00    -0.524 C  
HETATM    3  H1  UNL     1      -9.485  19.607  68.019  1.00  0.00     0.000 HD 
HETATM    4  H2  UNL     1      -9.751  21.217  67.347  1.00  0.00     0.000 HD 
HETATM    5  O   UNL     1     -10.866  20.371  65.279  1.00  0.00    -0.108 OA 
ENDROOT
BRANCH   2   6
HETATM    6  C   UNL     1     -10.493  18.210  66.168  1.00  0.00    -0.364 A  
HETATM    7  C   UNL     1     -10.310  17.301  67.192  1.00  0.00    -0.321 A  
HETATM    8  C   UNL     1     -10.521  16.015  66.641  1.00  0.00    -0.304 A  
HETATM    9  C   UNL     1     -10.512  14.698  67.136  1.00  0.00    -0.268 A  
HETATM   10  C   UNL     1     -10.760  13.605  66.284  1.00  0.00    -0.285 A  
HETATM   11  C   UNL     1     -11.013  13.886  64.928  1.00  0.00    -0.391 A  
HETATM   12  O   UNL     1     -10.779  17.544  65.002  1.00  0.00    -0.673 OA 
HETATM   13  C   UNL     1     -10.792  16.215  65.297  1.00  0.00    -0.336 A  
HETATM   14  C   UNL     1     -11.041  15.187  64.400  1.00  0.00    -0.124 A  
BRANCH  10  15
HETATM   15  N   UNL     1     -10.726  12.309  66.758  1.00  0.00    -0.234 NA 
HETATM   16  C   UNL     1      -9.885  11.268  66.147  1.00  0.00    -0.225 C  
HETATM   17  N   UNL     1      -9.990   9.921  68.302  1.00  0.00    -0.147 NA 
HETATM   18  C   UNL     1      -9.119  10.505  67.250  1.00  0.00    -0.143 C  
HETATM   19  C   UNL     1     -11.608  11.849  67.843  1.00  0.00    -0.323 C  
HETATM   20  C   UNL     1     -10.799  11.025  68.875  1.00  0.00    -0.217 C  
BRANCH  17  21
HETATM   21  C   UNL     1     -10.858   8.851  67.784  1.00  0.00    -0.036 C  
BRANCH  21  22
HETATM   22  C   UNL     1     -10.073   7.661  67.215  1.00  0.00    -0.306 C  
BRANCH  22  23
HETATM   23  C   UNL     1     -10.846   6.340  67.248  1.00  0.00    -0.457 C  
BRANCH  23  24
HETATM   24  C   UNL     1      -9.973   5.164  66.813  1.00  0.00    -0.231 C  
BRANCH  24  25
HETATM   25  C   UNL     1      -9.679   4.229  67.934  1.00  0.00    -0.172 A  
HETATM   26  C   UNL     1      -9.169   2.950  67.821  1.00  0.00    -0.205 A  
HETATM   27  N   UNL     1      -9.072   2.420  69.078  1.00  0.00    -0.115 NA 
HETATM   28  H   UNL     1      -8.727   1.485  69.290  1.00  0.00     0.000 HD 
HETATM   29  C   UNL     1      -9.507   3.328  70.015  1.00  0.00    -0.161 A  
HETATM   30  C   UNL     1      -9.886   4.478  69.327  1.00  0.00    -0.241 A  
HETATM   31  C   UNL     1     -10.369   5.584  70.065  1.00  0.00    -0.358 A  
HETATM   32  C   UNL     1     -10.467   5.490  71.460  1.00  0.00    -0.298 A  
HETATM   33  C   UNL     1     -10.084   4.318  72.117  1.00  0.00    -0.255 A  
HETATM   34  C   UNL     1     -10.966   6.605  72.214  1.00  0.00    -0.246 C  
HETATM   35  N   UNL     1     -11.372   7.502  72.830  1.00  0.00    -0.332 NA 
HETATM   36  C   UNL     1      -9.594   3.215  71.407  1.00  0.00    -0.227 A  
ENDBRANCH  24  25
ENDBRANCH  23  24
ENDBRANCH  22  23
ENDBRANCH  21  22
ENDBRANCH  17  21
ENDBRANCH  10  15
ENDBRANCH   2   6
TORSDOF 7
ENDMDL
MODEL       91
REMARK 921   NORMALIZED FREE ENERGY PREDICTED BY IDOCK:   -5.69 KCAL/MOL
REMARK 922        TOTAL FREE ENERGY PREDICTED BY IDOCK:   -9.29 KCAL/MOL
REMARK 923 INTER-LIGAND FREE ENERGY PREDICTED BY IDOCK:   -8.49 KCAL/MOL
REMARK 924 INTRA-LIGAND FREE ENERGY PREDICTED BY IDOCK:   -0.80 KCAL/MOL
REMARK 927      BINDING AFFINITY PREDICTED BY RF-SCORE:    0.00 PKD
ROOT
HETATM    1  N   UNL     1     -11.645   4.731  73.107  1.00  0.00    -0.319 N  
HETATM    2  C   UNL     1     -10.767   5.753  73.328  1.00  0.00    -0.267 C  
HETATM    3  H1  UNL     1     -12.232   4.729  72.273  1.00  0.00     0.000 HD 
HETATM    4  H2  UNL     1     -11.715   3.967  73.779  1.00  0.00     0.000 HD 
HETATM    5  O   UNL     1     -10.061   5.756  74.331  1.00  0.00    -0.228 OA 
ENDROOT
BRANCH   2   6
HETATM    6  C   UNL     1     -10.737   6.768  72.302  1.00  0.00    -0.220 A  
HETATM    7  C   UNL     1     -10.897   8.137  72.392  1.00  0.00    -0.409 A  
HETATM    8  C   UNL     1     -10.729   8.657  71.087  1.00  0.00    -0.303 A  
HETATM    9  C   UNL     1     -10.742   9.939  70.509  1.00  0.00    -0.382 A  
HETATM   10  C   UNL     1     -10.544  10.109  69.125  1.00  0.00    -0.224 A  
HETATM   11  C   UNL     1     -10.337   8.949  68.354  1.00  0.00    -0.237 A  
HETATM   12  O   UNL     1     -10.506   6.414  70.996  1.00  0.00    -0.212 OA 
HETATM   13  C   UNL     1     -10.505   7.563  70.266  1.00  0.00    -0.222 A  
HETATM   14  C   UNL     1     -10.307   7.655  68.897  1.00  0.00    -0.222 A  
BRANCH  10  15
HETATM   15  N   UNL     1     -10.583  11.362  68.547  1.00  0.00    -0.189 NA 
HETATM   16  C   UNL     1      -9.796  11.705  67.354  1.00  0.00    -0.183 C  
HETATM   17  N   UNL     1     -11.377  13.637  66.867  1.00  0.00    -0.315 NA 
HETATM   18  C   UNL     1     -10.694  12.432  66.329  1.00  0.00    -0.256 C  
HETATM   19  C   UNL     1     -11.335  12.478  69.147  1.00  0.00    -0.274 C  
HETATM   20  C   UNL     1     -12.154  13.215  68.059  1.00  0.00    -0.197 C  
BRANCH  17  21
HETATM   21  C   UNL     1     -10.433  14.712  67.212  1.00  0.00    -0.266 C  
BRANCH  21  22
HETATM   22  C   UNL     1      -9.141  14.669  66.382  1.00  0.00    -0.242 C  
BRANCH  22  23
HETATM   23  C   UNL     1      -7.866  14.801  67.219  1.00  0.00    -0.223 C  
BRANCH  23  24
HETATM   24  C   UNL     1      -8.156  15.391  68.598  1.00  0.00    -0.156 C  
BRANCH  24  25
HETATM   25  C   UNL     1      -7.575  16.751  68.769  1.00  0.00    -0.240 A  
HETATM   26  C   UNL     1      -6.489  17.085  69.552  1.00  0.00    -0.219 A  
HETATM   27  N   UNL     1      -6.295  18.435  69.456  1.00  0.00    -0.255 NA 
HETATM   28  H   UNL     1      -5.560  18.954  69.935  1.00  0.00     0.000 HD 
HETATM   29  C   UNL     1      -7.234  18.995  68.621  1.00  0.00    -0.316 A  
HETATM   30  C   UNL     1      -8.047  17.960  68.166  1.00  0.00    -0.267 A  
HETATM   31  C   UNL     1      -9.101  18.265  67.273  1.00  0.00    -0.256 A  
HETATM   32  C   UNL     1      -9.309  19.594  66.883  1.00  0.00    -0.445 A  
HETATM   33  C   UNL     1      -8.478  20.609  67.364  1.00  0.00    -0.299 A  
HETATM   34  C   UNL     1     -10.383  19.912  65.985  1.00  0.00    -0.486 C  
HETATM   35  N   UNL     1     -11.253  20.177  65.263  1.00  0.00     0.015 NA 
HETATM   36  C   UNL     1      -7.423  20.328  68.240  1.00  0.00    -0.174 A  
ENDBRANCH  24  25
ENDBRANCH  23  24
ENDBRANCH  22  23
ENDBRANCH  21  22
ENDBRANCH  17  21
ENDBRANCH  10  15
ENDBRANCH   2   6
TORSDOF 7
ENDMDL
MODEL       92
REMARK 921   NORMALIZED FREE ENERGY PREDICTED BY IDOCK:   -5.68 KCAL/MOL
REMARK 922        TOTAL FREE ENERGY PREDICTED BY IDOCK:   -9.29 KCAL/MOL
REMARK 923 INTER-LIGAND FREE ENERGY PREDICTED BY IDOCK:   -8.24 KCAL/MOL
REMARK 924 INTRA-LIGAND FREE ENERGY PREDICTED BY IDOCK:   -1.04 KCAL/MOL
REMARK 927      BINDING AFFINITY PREDICTED BY RF-SCORE:    0.00 PKD
ROOT
HETATM    1  N   UNL     1     -12.395  14.605  63.809  1.00  0.00    -1.092 N  
HETATM    2  C   UNL     1     -12.274  13.260  64.011  1.00  0.00    -0.410 C  
HETATM    3  H1  UNL     1     -11.880  15.261  64.397  1.00  0.00     0.000 HD 
HETATM    4  H2  UNL     1     -13.002  14.955  63.068  1.00  0.00     0.000 HD 
HETATM    5  O   UNL     1     -12.893  12.471  63.304  1.00  0.00    -0.666 OA 
ENDROOT
BRANCH   2   6
HETATM    6  C   UNL     1     -11.373  12.878  65.072  1.00  0.00    -0.305 A  
HETATM    7  C   UNL     1     -11.258  11.687  65.763  1.00  0.00    -0.290 A  
HETATM    8  C   UNL     1     -10.180  11.841  66.667  1.00  0.00    -0.240 A  
HETATM    9  C   UNL     1      -9.543  11.020  67.616  1.00  0.00    -0.181 A  
HETATM   10  C   UNL     1      -8.467  11.507  68.383  1.00  0.00    -0.159 A  
HETATM   11  C   UNL     1      -8.063  12.837  68.162  1.00  0.00    -0.158 A  
HETATM   12  O   UNL     1     -10.435  13.771  65.527  1.00  0.00    -0.295 OA 
HETATM   13  C   UNL     1      -9.717  13.135  66.494  1.00  0.00    -0.268 A  
HETATM   14  C   UNL     1      -8.667  13.681  67.216  1.00  0.00    -0.223 A  
BRANCH  10  15
HETATM   15  N   UNL     1      -7.856  10.717  69.336  1.00  0.00    -0.144 NA 
HETATM   16  C   UNL     1      -8.587   9.696  70.101  1.00  0.00    -0.214 C  
HETATM   17  N   UNL     1      -6.395   8.510  70.612  1.00  0.00    -0.036 NA 
HETATM   18  C   UNL     1      -7.785   8.376  70.106  1.00  0.00    -0.083 C  
HETATM   19  C   UNL     1      -6.450  10.911  69.729  1.00  0.00    -0.128 C  
HETATM   20  C   UNL     1      -5.720   9.547  69.791  1.00  0.00    -0.032 C  
BRANCH  17  21
HETATM   21  C   UNL     1      -6.348   8.862  72.040  1.00  0.00    -0.045 C  
BRANCH  21  22
HETATM   22  C   UNL     1      -7.545   8.319  72.834  1.00  0.00    -0.161 C  
BRANCH  22  23
HETATM   23  C   UNL     1      -7.196   7.140  73.746  1.00  0.00    -0.094 C  
BRANCH  23  24
HETATM   24  C   UNL     1      -8.343   6.134  73.831  1.00  0.00    -0.116 C  
BRANCH  24  25
HETATM   25  C   UNL     1      -8.926   5.823  72.496  1.00  0.00    -0.133 A  
HETATM   26  C   UNL     1      -8.371   5.007  71.530  1.00  0.00    -0.119 A  
HETATM   27  N   UNL     1      -9.204   5.006  70.446  1.00  0.00    -0.141 NA 
HETATM   28  H   UNL     1      -9.037   4.487  69.585  1.00  0.00     0.000 HD 
HETATM   29  C   UNL     1     -10.298   5.805  70.683  1.00  0.00    -0.245 A  
HETATM   30  C   UNL     1     -10.156   6.325  71.966  1.00  0.00    -0.205 A  
HETATM   31  C   UNL     1     -11.163   7.183  72.468  1.00  0.00    -0.327 A  
HETATM   32  C   UNL     1     -12.263   7.498  71.660  1.00  0.00    -0.352 A  
HETATM   33  C   UNL     1     -12.370   6.963  70.374  1.00  0.00    -0.085 A  
HETATM   34  C   UNL     1     -13.283   8.376  72.159  1.00  0.00    -0.318 C  
HETATM   35  N   UNL     1     -14.111   9.088  72.555  1.00  0.00    -0.523 NA 
HETATM   36  C   UNL     1     -11.390   6.104  69.861  1.00  0.00    -0.454 A  
ENDBRANCH  24  25
ENDBRANCH  23  24
ENDBRANCH  22  23
ENDBRANCH  21  22
ENDBRANCH  17  21
ENDBRANCH  10  15
ENDBRANCH   2   6
TORSDOF 7
ENDMDL
MODEL       93
REMARK 921   NORMALIZED FREE ENERGY PREDICTED BY IDOCK:   -5.68 KCAL/MOL
REMARK 922        TOTAL FREE ENERGY PREDICTED BY IDOCK:   -9.28 KCAL/MOL
REMARK 923 INTER-LIGAND FREE ENERGY PREDICTED BY IDOCK:   -7.96 KCAL/MOL
REMARK 924 INTRA-LIGAND FREE ENERGY PREDICTED BY IDOCK:   -1.32 KCAL/MOL
REMARK 927      BINDING AFFINITY PREDICTED BY RF-SCORE:    0.00 PKD
ROOT
HETATM    1  N   UNL     1     -11.467   6.684  68.810  1.00  0.00    -0.591 N  
HETATM    2  C   UNL     1     -10.844   7.171  67.697  1.00  0.00    -0.209 C  
HETATM    3  H1  UNL     1     -11.529   7.253  69.654  1.00  0.00     0.000 HD 
HETATM    4  H2  UNL     1     -11.871   5.748  68.798  1.00  0.00     0.000 HD 
HETATM    5  O   UNL     1     -10.769   6.486  66.681  1.00  0.00    -0.252 OA 
ENDROOT
BRANCH   2   6
HETATM    6  C   UNL     1     -10.328   8.513  67.820  1.00  0.00    -0.237 A  
HETATM    7  C   UNL     1      -9.176   8.978  68.423  1.00  0.00    -0.137 A  
HETATM    8  C   UNL     1      -9.136  10.376  68.211  1.00  0.00    -0.145 A  
HETATM    9  C   UNL     1      -8.245  11.415  68.536  1.00  0.00    -0.153 A  
HETATM   10  C   UNL     1      -8.525  12.746  68.170  1.00  0.00    -0.177 A  
HETATM   11  C   UNL     1      -9.724  12.988  67.475  1.00  0.00    -0.206 A  
HETATM   12  O   UNL     1     -11.019   9.564  67.269  1.00  0.00    -0.203 OA 
HETATM   13  C   UNL     1     -10.291  10.689  67.512  1.00  0.00    -0.214 A  
HETATM   14  C   UNL     1     -10.632  11.976  67.124  1.00  0.00    -0.255 A  
BRANCH  10  15
HETATM   15  N   UNL     1      -7.668  13.773  68.510  1.00  0.00    -0.136 NA 
HETATM   16  C   UNL     1      -7.010  13.851  69.823  1.00  0.00     0.139 C  
HETATM   17  N   UNL     1      -5.232  15.382  68.840  1.00  0.00    -0.098 NA 
HETATM   18  C   UNL     1      -5.508  14.158  69.635  1.00  0.00    -0.094 C  
HETATM   19  C   UNL     1      -7.433  14.924  67.620  1.00  0.00    -0.185 C  
HETATM   20  C   UNL     1      -5.918  15.230  67.533  1.00  0.00    -0.013 C  
BRANCH  17  21
HETATM   21  C   UNL     1      -5.676  16.607  69.525  1.00  0.00    -0.176 C  
BRANCH  21  22
HETATM   22  C   UNL     1      -5.263  17.892  68.792  1.00  0.00    -0.161 C  
BRANCH  22  23
HETATM   23  C   UNL     1      -5.128  19.109  69.709  1.00  0.00    -0.197 C  
BRANCH  23  24
HETATM   24  C   UNL     1      -6.471  19.805  69.924  1.00  0.00    -0.362 C  
BRANCH  24  25
HETATM   25  C   UNL     1      -7.213  20.013  68.650  1.00  0.00    -0.270 A  
HETATM   26  C   UNL     1      -6.944  20.972  67.693  1.00  0.00    -0.279 A  
HETATM   27  N   UNL     1      -7.869  20.845  66.694  1.00  0.00    -0.537 NA 
HETATM   28  H   UNL     1      -7.907  21.428  65.859  1.00  0.00     0.000 HD 
HETATM   29  C   UNL     1      -8.740  19.819  66.976  1.00  0.00    -0.325 A  
HETATM   30  C   UNL     1      -8.348  19.271  68.195  1.00  0.00    -0.358 A  
HETATM   31  C   UNL     1      -9.081  18.180  68.717  1.00  0.00    -0.239 A  
HETATM   32  C   UNL     1     -10.185  17.690  68.008  1.00  0.00    -0.362 A  
HETATM   33  C   UNL     1     -10.554  18.268  66.791  1.00  0.00    -0.338 A  
HETATM   34  C   UNL     1     -10.939  16.589  68.537  1.00  0.00    -0.350 C  
HETATM   35  N   UNL     1     -11.556  15.701  68.961  1.00  0.00    -0.366 NA 
HETATM   36  C   UNL     1      -9.837  19.342  66.251  1.00  0.00    -0.477 A  
ENDBRANCH  24  25
ENDBRANCH  23  24
ENDBRANCH  22  23
ENDBRANCH  21  22
ENDBRANCH  17  21
ENDBRANCH  10  15
ENDBRANCH   2   6
TORSDOF 7
ENDMDL
MODEL       94
REMARK 921   NORMALIZED FREE ENERGY PREDICTED BY IDOCK:   -5.65 KCAL/MOL
REMARK 922        TOTAL FREE ENERGY PREDICTED BY IDOCK:   -9.23 KCAL/MOL
REMARK 923 INTER-LIGAND FREE ENERGY PREDICTED BY IDOCK:   -7.93 KCAL/MOL
REMARK 924 INTRA-LIGAND FREE ENERGY PREDICTED BY IDOCK:   -1.31 KCAL/MOL
REMARK 927      BINDING AFFINITY PREDICTED BY RF-SCORE:    0.00 PKD
ROOT
HETATM    1  N   UNL     1     -10.817  18.927  67.387  1.00  0.00    -0.441 N  
HETATM    2  C   UNL     1     -10.082  17.964  66.757  1.00  0.00    -0.349 C  
HETATM    3  H1  UNL     1     -11.556  18.664  68.039  1.00  0.00     0.000 HD 
HETATM    4  H2  UNL     1     -10.626  19.912  67.205  1.00  0.00     0.000 HD 
HETATM    5  O   UNL     1      -9.192  18.280  65.973  1.00  0.00    -0.508 OA 
ENDROOT
BRANCH   2   6
HETATM    6  C   UNL     1     -10.423  16.606  67.105  1.00  0.00    -0.300 A  
HETATM    7  C   UNL     1     -10.437  15.972  68.333  1.00  0.00    -0.263 A  
HETATM    8  C   UNL     1     -10.893  14.652  68.109  1.00  0.00    -0.256 A  
HETATM    9  C   UNL     1     -11.152  13.530  68.916  1.00  0.00    -0.305 A  
HETATM   10  C   UNL     1     -11.605  12.322  68.350  1.00  0.00    -0.326 A  
HETATM   11  C   UNL     1     -11.781  12.288  66.953  1.00  0.00    -0.404 A  
HETATM   12  O   UNL     1     -10.823  15.729  66.128  1.00  0.00    -0.309 OA 
HETATM   13  C   UNL     1     -11.105  14.548  66.743  1.00  0.00    -0.325 A  
HETATM   14  C   UNL     1     -11.543  13.391  66.118  1.00  0.00    -0.378 A  
BRANCH  10  15
HETATM   15  N   UNL     1     -11.835  11.209  69.133  1.00  0.00    -0.328 NA 
HETATM   16  C   UNL     1     -11.243   9.897  68.832  1.00  0.00    -0.079 C  
HETATM   17  N   UNL     1     -11.589   9.187  71.250  1.00  0.00    -0.304 NA 
HETATM   18  C   UNL     1     -10.635   9.293  70.117  1.00  0.00    -0.231 C  
HETATM   19  C   UNL     1     -12.775  11.230  70.267  1.00  0.00    -0.086 C  
HETATM   20  C   UNL     1     -12.137  10.544  71.500  1.00  0.00    -0.220 C  
BRANCH  17  21
HETATM   21  C   UNL     1     -12.672   8.226  70.985  1.00  0.00    -0.011 C  
BRANCH  21  22
HETATM   22  C   UNL     1     -12.211   6.763  71.055  1.00  0.00    -0.405 C  
BRANCH  22  23
HETATM   23  C   UNL     1     -11.422   6.426  72.323  1.00  0.00    -0.339 C  
BRANCH  23  24
HETATM   24  C   UNL     1     -10.266   5.471  72.030  1.00  0.00    -0.249 C  
BRANCH  24  25
HETATM   25  C   UNL     1      -9.164   6.128  71.274  1.00  0.00    -0.157 A  
HETATM   26  C   UNL     1      -8.194   6.960  71.797  1.00  0.00    -0.105 A  
HETATM   27  N   UNL     1      -7.390   7.372  70.771  1.00  0.00    -0.069 NA 
HETATM   28  H   UNL     1      -6.591   7.997  70.872  1.00  0.00     0.000 HD 
HETATM   29  C   UNL     1      -7.812   6.823  69.582  1.00  0.00    -0.115 A  
HETATM   30  C   UNL     1      -8.919   6.029  69.867  1.00  0.00    -0.144 A  
HETATM   31  C   UNL     1      -9.549   5.333  68.809  1.00  0.00    -0.187 A  
HETATM   32  C   UNL     1      -9.055   5.472  67.505  1.00  0.00    -0.107 A  
HETATM   33  C   UNL     1      -7.945   6.282  67.254  1.00  0.00    -0.109 A  
HETATM   34  C   UNL     1      -9.695   4.777  66.424  1.00  0.00    -0.195 C  
HETATM   35  N   UNL     1     -10.210   4.221  65.544  1.00  0.00    -0.228 NA 
HETATM   36  C   UNL     1      -7.301   6.972  68.288  1.00  0.00    -0.097 A  
ENDBRANCH  24  25
ENDBRANCH  23  24
ENDBRANCH  22  23
ENDBRANCH  21  22
ENDBRANCH  17  21
ENDBRANCH  10  15
ENDBRANCH   2   6
TORSDOF 7
ENDMDL
MODEL       95
REMARK 921   NORMALIZED FREE ENERGY PREDICTED BY IDOCK:   -5.64 KCAL/MOL
REMARK 922        TOTAL FREE ENERGY PREDICTED BY IDOCK:   -9.23 KCAL/MOL
REMARK 923 INTER-LIGAND FREE ENERGY PREDICTED BY IDOCK:   -8.26 KCAL/MOL
REMARK 924 INTRA-LIGAND FREE ENERGY PREDICTED BY IDOCK:   -0.97 KCAL/MOL
REMARK 927      BINDING AFFINITY PREDICTED BY RF-SCORE:    0.00 PKD
ROOT
HETATM    1  N   UNL     1     -11.175   5.073  65.800  1.00  0.00    -0.867 N  
HETATM    2  C   UNL     1     -10.128   4.938  66.666  1.00  0.00    -0.249 C  
HETATM    3  H1  UNL     1     -11.469   6.000  65.491  1.00  0.00     0.000 HD 
HETATM    4  H2  UNL     1     -11.664   4.245  65.460  1.00  0.00     0.000 HD 
HETATM    5  O   UNL     1      -9.773   3.823  67.037  1.00  0.00    -0.212 OA 
ENDROOT
BRANCH   2   6
HETATM    6  C   UNL     1      -9.496   6.173  67.063  1.00  0.00    -0.129 A  
HETATM    7  C   UNL     1      -9.891   7.483  66.871  1.00  0.00    -0.295 A  
HETATM    8  C   UNL     1      -8.925   8.300  67.504  1.00  0.00    -0.141 A  
HETATM    9  C   UNL     1      -8.751   9.683  67.695  1.00  0.00    -0.126 A  
HETATM   10  C   UNL     1      -7.630  10.180  68.387  1.00  0.00    -0.087 A  
HETATM   11  C   UNL     1      -6.699   9.241  68.871  1.00  0.00    -0.052 A  
HETATM   12  O   UNL     1      -8.314   6.144  67.761  1.00  0.00    -0.116 OA 
HETATM   13  C   UNL     1      -7.974   7.435  68.023  1.00  0.00    -0.119 A  
HETATM   14  C   UNL     1      -6.845   7.854  68.709  1.00  0.00    -0.062 A  
BRANCH  10  15
HETATM   15  N   UNL     1      -7.439  11.537  68.554  1.00  0.00    -0.108 NA 
HETATM   16  C   UNL     1      -6.643  12.091  69.659  1.00  0.00    -0.043 C  
HETATM   17  N   UNL     1      -6.318  14.245  68.344  1.00  0.00    -0.092 NA 
HETATM   18  C   UNL     1      -5.665  13.155  69.114  1.00  0.00    -0.076 C  
HETATM   19  C   UNL     1      -8.107  12.533  67.699  1.00  0.00    -0.171 C  
HETATM   20  C   UNL     1      -7.093  13.613  67.247  1.00  0.00     0.063 C  
BRANCH  17  21
HETATM   21  C   UNL     1      -7.189  15.082  69.185  1.00  0.00    -0.159 C  
BRANCH  21  22
HETATM   22  C   UNL     1      -7.898  16.194  68.399  1.00  0.00    -0.160 C  
BRANCH  22  23
HETATM   23  C   UNL     1      -9.421  16.185  68.555  1.00  0.00    -0.216 C  
BRANCH  23  24
HETATM   24  C   UNL     1     -10.087  17.213  67.642  1.00  0.00    -0.305 C  
BRANCH  24  25
HETATM   25  C   UNL     1     -10.588  16.609  66.376  1.00  0.00    -0.200 A  
HETATM   26  C   UNL     1     -10.713  17.247  65.158  1.00  0.00     0.064 A  
HETATM   27  N   UNL     1     -11.232  16.354  64.263  1.00  0.00    -1.298 NA 
HETATM   28  H   UNL     1     -11.431  16.560  63.284  1.00  0.00     0.000 HD 
HETATM   29  C   UNL     1     -11.449  15.139  64.870  1.00  0.00    -0.374 A  
HETATM   30  C   UNL     1     -11.045  15.265  66.196  1.00  0.00    -0.280 A  
HETATM   31  C   UNL     1     -11.155  14.143  67.051  1.00  0.00    -0.314 A  
HETATM   32  C   UNL     1     -11.678  12.945  66.548  1.00  0.00    -0.453 A  
HETATM   33  C   UNL     1     -12.079  12.855  65.213  1.00  0.00    -0.496 A  
HETATM   34  C   UNL     1     -11.801  11.805  67.413  1.00  0.00    -0.135 C  
HETATM   35  N   UNL     1     -11.907  10.880  68.107  1.00  0.00    -0.569 NA 
HETATM   36  C   UNL     1     -11.971  13.951  64.348  1.00  0.00    -0.480 A  
ENDBRANCH  24  25
ENDBRANCH  23  24
ENDBRANCH  22  23
ENDBRANCH  21  22
ENDBRANCH  17  21
ENDBRANCH  10  15
ENDBRANCH   2   6
TORSDOF 7
ENDMDL
MODEL       96
REMARK 921   NORMALIZED FREE ENERGY PREDICTED BY IDOCK:   -5.61 KCAL/MOL
REMARK 922        TOTAL FREE ENERGY PREDICTED BY IDOCK:   -9.19 KCAL/MOL
REMARK 923 INTER-LIGAND FREE ENERGY PREDICTED BY IDOCK:   -7.95 KCAL/MOL
REMARK 924 INTRA-LIGAND FREE ENERGY PREDICTED BY IDOCK:   -1.24 KCAL/MOL
REMARK 927      BINDING AFFINITY PREDICTED BY RF-SCORE:    0.00 PKD
ROOT
HETATM    1  N   UNL     1     -12.637  11.346  63.025  1.00  0.00    -0.851 N  
HETATM    2  C   UNL     1     -11.458  11.357  63.713  1.00  0.00    -0.154 C  
HETATM    3  H1  UNL     1     -13.281  12.134  63.098  1.00  0.00     0.000 HD 
HETATM    4  H2  UNL     1     -12.876  10.547  62.438  1.00  0.00     0.000 HD 
HETATM    5  O   UNL     1     -10.683  10.409  63.626  1.00  0.00     0.328 OA 
ENDROOT
BRANCH   2   6
HETATM    6  C   UNL     1     -11.215  12.544  64.496  1.00  0.00    -0.325 A  
HETATM    7  C   UNL     1     -10.422  13.645  64.231  1.00  0.00    -0.180 A  
HETATM    8  C   UNL     1     -10.584  14.538  65.317  1.00  0.00    -0.400 A  
HETATM    9  C   UNL     1     -10.091  15.813  65.648  1.00  0.00    -0.401 A  
HETATM   10  C   UNL     1     -10.457  16.436  66.857  1.00  0.00    -0.289 A  
HETATM   11  C   UNL     1     -11.327  15.732  67.710  1.00  0.00    -0.240 A  
HETATM   12  O   UNL     1     -11.837  12.703  65.709  1.00  0.00    -0.401 OA 
HETATM   13  C   UNL     1     -11.449  13.912  66.200  1.00  0.00    -0.345 A  
HETATM   14  C   UNL     1     -11.847  14.463  67.408  1.00  0.00    -0.430 A  
BRANCH  10  15
HETATM   15  N   UNL     1      -9.955  17.675  67.200  1.00  0.00    -0.304 NA 
HETATM   16  C   UNL     1      -9.814  18.767  66.226  1.00  0.00    -0.353 C  
HETATM   17  N   UNL     1      -9.785  20.459  68.126  1.00  0.00    -0.224 NA 
HETATM   18  C   UNL     1     -10.382  20.073  66.821  1.00  0.00    -0.436 C  
HETATM   19  C   UNL     1      -9.427  17.960  68.546  1.00  0.00    -0.313 C  
HETATM   20  C   UNL     1      -9.972  19.317  69.056  1.00  0.00    -0.379 C  
BRANCH  17  21
HETATM   21  C   UNL     1      -8.361  20.811  68.009  1.00  0.00     0.267 C  
BRANCH  21  22
HETATM   22  C   UNL     1      -7.483  20.132  69.070  1.00  0.00    -0.013 C  
BRANCH  22  23
HETATM   23  C   UNL     1      -5.981  20.305  68.830  1.00  0.00    -0.335 C  
BRANCH  23  24
HETATM   24  C   UNL     1      -5.229  18.984  68.986  1.00  0.00    -0.197 C  
BRANCH  24  25
HETATM   25  C   UNL     1      -5.810  17.897  68.150  1.00  0.00    -0.170 A  
HETATM   26  C   UNL     1      -6.285  18.021  66.859  1.00  0.00    -0.164 A  
HETATM   27  N   UNL     1      -6.756  16.801  66.462  1.00  0.00    -0.209 NA 
HETATM   28  H   UNL     1      -7.166  16.605  65.549  1.00  0.00     0.000 HD 
HETATM   29  C   UNL     1      -6.599  15.876  67.468  1.00  0.00    -0.182 A  
HETATM   30  C   UNL     1      -5.999  16.533  68.538  1.00  0.00    -0.127 A  
HETATM   31  C   UNL     1      -5.713  15.799  69.713  1.00  0.00    -0.136 A  
HETATM   32  C   UNL     1      -6.053  14.441  69.775  1.00  0.00    -0.131 A  
HETATM   33  C   UNL     1      -6.659  13.815  68.684  1.00  0.00    -0.096 A  
HETATM   34  C   UNL     1      -5.774  13.693  70.968  1.00  0.00    -0.201 C  
HETATM   35  N   UNL     1      -5.556  13.081  71.932  1.00  0.00    -0.375 NA 
HETATM   36  C   UNL     1      -6.942  14.521  67.508  1.00  0.00    -0.188 A  
ENDBRANCH  24  25
ENDBRANCH  23  24
ENDBRANCH  22  23
ENDBRANCH  21  22
ENDBRANCH  17  21
ENDBRANCH  10  15
ENDBRANCH   2   6
TORSDOF 7
ENDMDL
MODEL       97
REMARK 921   NORMALIZED FREE ENERGY PREDICTED BY IDOCK:   -5.61 KCAL/MOL
REMARK 922        TOTAL FREE ENERGY PREDICTED BY IDOCK:   -9.18 KCAL/MOL
REMARK 923 INTER-LIGAND FREE ENERGY PREDICTED BY IDOCK:   -8.25 KCAL/MOL
REMARK 924 INTRA-LIGAND FREE ENERGY PREDICTED BY IDOCK:   -0.93 KCAL/MOL
REMARK 927      BINDING AFFINITY PREDICTED BY RF-SCORE:    0.00 PKD
ROOT
HETATM    1  N   UNL     1     -11.203   4.348  73.623  1.00  0.00    -0.282 N  
HETATM    2  C   UNL     1     -10.062   4.118  72.909  1.00  0.00    -0.159 C  
HETATM    3  H1  UNL     1     -11.862   5.064  73.320  1.00  0.00     0.000 HD 
HETATM    4  H2  UNL     1     -11.396   3.801  74.462  1.00  0.00     0.000 HD 
HETATM    5  O   UNL     1      -9.268   3.255  73.274  1.00  0.00    -0.092 OA 
ENDROOT
BRANCH   2   6
HETATM    6  C   UNL     1      -9.901   4.934  71.730  1.00  0.00    -0.180 A  
HETATM    7  C   UNL     1     -10.707   5.929  71.213  1.00  0.00    -0.325 A  
HETATM    8  C   UNL     1     -10.053   6.432  70.063  1.00  0.00    -0.208 A  
HETATM    9  C   UNL     1     -10.318   7.440  69.119  1.00  0.00    -0.208 A  
HETATM   10  C   UNL     1      -9.430   7.680  68.052  1.00  0.00    -0.143 A  
HETATM   11  C   UNL     1      -8.279   6.874  67.973  1.00  0.00    -0.115 A  
HETATM   12  O   UNL     1      -8.791   4.778  70.937  1.00  0.00    -0.114 OA 
HETATM   13  C   UNL     1      -8.891   5.687  69.929  1.00  0.00    -0.129 A  
HETATM   14  C   UNL     1      -7.976   5.867  68.903  1.00  0.00    -0.102 A  
BRANCH  10  15
HETATM   15  N   UNL     1      -9.698   8.649  67.106  1.00  0.00    -0.174 NA 
HETATM   16  C   UNL     1     -10.654   9.742  67.345  1.00  0.00    -0.267 C  
HETATM   17  N   UNL     1      -9.542  11.112  65.512  1.00  0.00    -0.217 NA 
HETATM   18  C   UNL     1     -10.025  11.086  66.917  1.00  0.00    -0.196 C  
HETATM   19  C   UNL     1      -9.126   8.599  65.750  1.00  0.00    -0.187 C  
HETATM   20  C   UNL     1      -8.582   9.992  65.349  1.00  0.00    -0.151 C  
BRANCH  17  21
HETATM   21  C   UNL     1     -10.641  11.005  64.539  1.00  0.00    -0.313 C  
BRANCH  21  22
HETATM   22  C   UNL     1     -10.744  12.222  63.608  1.00  0.00    -0.513 C  
BRANCH  22  23
HETATM   23  C   UNL     1     -10.699  13.564  64.342  1.00  0.00    -0.402 C  
BRANCH  23  24
HETATM   24  C   UNL     1     -12.040  13.896  64.994  1.00  0.00    -0.422 C  
BRANCH  24  25
HETATM   25  C   UNL     1     -11.894  14.299  66.420  1.00  0.00    -0.427 A  
HETATM   26  C   UNL     1     -12.434  13.651  67.513  1.00  0.00     0.156 A  
HETATM   27  N   UNL     1     -12.090  14.352  68.635  1.00  0.00    -0.541 NA 
HETATM   28  H   UNL     1     -12.358  14.098  69.586  1.00  0.00     0.000 HD 
HETATM   29  C   UNL     1     -11.331  15.449  68.300  1.00  0.00    -0.348 A  
HETATM   30  C   UNL     1     -11.183  15.437  66.915  1.00  0.00    -0.214 A  
HETATM   31  C   UNL     1     -10.427  16.464  66.304  1.00  0.00    -0.298 A  
HETATM   32  C   UNL     1      -9.862  17.470  67.099  1.00  0.00    -0.297 A  
HETATM   33  C   UNL     1     -10.036  17.454  68.485  1.00  0.00    -0.331 A  
HETATM   34  C   UNL     1      -9.102  18.521  66.483  1.00  0.00    -0.295 C  
HETATM   35  N   UNL     1      -8.490  19.376  65.992  1.00  0.00    -0.443 NA 
HETATM   36  C   UNL     1     -10.772  16.441  69.112  1.00  0.00    -0.317 A  
ENDBRANCH  24  25
ENDBRANCH  23  24
ENDBRANCH  22  23
ENDBRANCH  21  22
ENDBRANCH  17  21
ENDBRANCH  10  15
ENDBRANCH   2   6
TORSDOF 7
ENDMDL
MODEL       98
REMARK 921   NORMALIZED FREE ENERGY PREDICTED BY IDOCK:   -5.61 KCAL/MOL
REMARK 922        TOTAL FREE ENERGY PREDICTED BY IDOCK:   -9.18 KCAL/MOL
REMARK 923 INTER-LIGAND FREE ENERGY PREDICTED BY IDOCK:   -7.94 KCAL/MOL
REMARK 924 INTRA-LIGAND FREE ENERGY PREDICTED BY IDOCK:   -1.24 KCAL/MOL
REMARK 927      BINDING AFFINITY PREDICTED BY RF-SCORE:    0.00 PKD
ROOT
HETATM    1  N   UNL     1     -10.542  19.392  66.756  1.00  0.00    -0.458 N  
HETATM    2  C   UNL     1     -10.177  18.827  67.945  1.00  0.00    -0.396 C  
HETATM    3  H1  UNL     1     -10.812  18.802  65.969  1.00  0.00     0.000 HD 
HETATM    4  H2  UNL     1     -10.546  20.407  66.656  1.00  0.00     0.000 HD 
HETATM    5  O   UNL     1      -9.853  19.537  68.892  1.00  0.00    -0.424 OA 
ENDROOT
BRANCH   2   6
HETATM    6  C   UNL     1     -10.230  17.386  67.981  1.00  0.00    -0.345 A  
HETATM    7  C   UNL     1      -9.404  16.444  67.397  1.00  0.00    -0.223 A  
HETATM    8  C   UNL     1      -9.886  15.174  67.793  1.00  0.00    -0.223 A  
HETATM    9  C   UNL     1      -9.495  13.841  67.573  1.00  0.00    -0.220 A  
HETATM   10  C   UNL     1     -10.229  12.774  68.126  1.00  0.00    -0.241 A  
HETATM   11  C   UNL     1     -11.360  13.098  68.899  1.00  0.00    -0.335 A  
HETATM   12  O   UNL     1     -11.216  16.755  68.698  1.00  0.00    -0.298 OA 
HETATM   13  C   UNL     1     -11.002  15.416  68.578  1.00  0.00    -0.278 A  
HETATM   14  C   UNL     1     -11.773  14.416  69.149  1.00  0.00    -0.354 A  
BRANCH  10  15
HETATM   15  N   UNL     1      -9.868  11.462  67.891  1.00  0.00    -0.175 NA 
HETATM   16  C   UNL     1      -8.684  10.847  68.510  1.00  0.00    -0.153 C  
HETATM   17  N   UNL     1      -9.675   8.539  68.108  1.00  0.00    -0.151 NA 
HETATM   18  C   UNL     1      -9.059   9.467  69.092  1.00  0.00    -0.148 C  
HETATM   19  C   UNL     1     -10.582  10.615  66.920  1.00  0.00    -0.254 C  
HETATM   20  C   UNL     1     -10.861   9.221  67.533  1.00  0.00    -0.112 C  
BRANCH  17  21
HETATM   21  C   UNL     1      -8.735   8.141  67.048  1.00  0.00    -0.131 C  
BRANCH  21  22
HETATM   22  C   UNL     1      -8.482   6.627  67.003  1.00  0.00    -0.113 C  
BRANCH  22  23
HETATM   23  C   UNL     1      -7.594   6.116  68.140  1.00  0.00    -0.098 C  
BRANCH  23  24
HETATM   24  C   UNL     1      -8.396   5.318  69.167  1.00  0.00    -0.091 C  
BRANCH  24  25
HETATM   25  C   UNL     1      -8.344   5.925  70.525  1.00  0.00    -0.123 A  
HETATM   26  C   UNL     1      -7.225   6.047  71.325  1.00  0.00    -0.079 A  
HETATM   27  N   UNL     1      -7.606   6.634  72.500  1.00  0.00    -0.096 NA 
HETATM   28  H   UNL     1      -6.979   6.843  73.276  1.00  0.00     0.000 HD 
HETATM   29  C   UNL     1      -8.955   6.902  72.486  1.00  0.00    -0.129 A  
HETATM   30  C   UNL     1      -9.445   6.476  71.255  1.00  0.00    -0.172 A  
HETATM   31  C   UNL     1     -10.821   6.646  70.974  1.00  0.00    -0.289 A  
HETATM   32  C   UNL     1     -11.654   7.221  71.942  1.00  0.00    -0.313 A  
HETATM   33  C   UNL     1     -11.130   7.632  73.170  1.00  0.00    -0.373 A  
HETATM   34  C   UNL     1     -13.053   7.388  71.668  1.00  0.00    -0.364 C  
HETATM   35  N   UNL     1     -14.187   7.522  71.455  1.00  0.00    -0.425 NA 
HETATM   36  C   UNL     1      -9.769   7.482  73.465  1.00  0.00    -0.358 A  
ENDBRANCH  24  25
ENDBRANCH  23  24
ENDBRANCH  22  23
ENDBRANCH  21  22
ENDBRANCH  17  21
ENDBRANCH  10  15
ENDBRANCH   2   6
TORSDOF 7
ENDMDL
MODEL       99
REMARK 921   NORMALIZED FREE ENERGY PREDICTED BY IDOCK:   -5.59 KCAL/MOL
REMARK 922        TOTAL FREE ENERGY PREDICTED BY IDOCK:   -9.16 KCAL/MOL
REMARK 923 INTER-LIGAND FREE ENERGY PREDICTED BY IDOCK:   -8.09 KCAL/MOL
REMARK 924 INTRA-LIGAND FREE ENERGY PREDICTED BY IDOCK:   -1.07 KCAL/MOL
REMARK 927      BINDING AFFINITY PREDICTED BY RF-SCORE:    0.00 PKD
ROOT
HETATM    1  N   UNL     1     -13.077  15.486  73.021  1.00  0.00    -0.473 N  
HETATM    2  C   UNL     1     -13.557  14.978  71.847  1.00  0.00    -0.420 C  
HETATM    3  H1  UNL     1     -12.463  14.924  73.610  1.00  0.00     0.000 HD 
HETATM    4  H2  UNL     1     -13.333  16.431  73.308  1.00  0.00     0.000 HD 
HETATM    5  O   UNL     1     -14.296  15.655  71.138  1.00  0.00    -0.485 OA 
ENDROOT
BRANCH   2   6
HETATM    6  C   UNL     1     -13.114  13.642  71.530  1.00  0.00    -0.350 A  
HETATM    7  C   UNL     1     -12.177  13.203  70.615  1.00  0.00    -0.402 A  
HETATM    8  C   UNL     1     -12.102  11.796  70.748  1.00  0.00    -0.352 A  
HETATM    9  C   UNL     1     -11.348  10.772  70.147  1.00  0.00    -0.390 A  
HETATM   10  C   UNL     1     -11.536   9.426  70.518  1.00  0.00    -0.235 A  
HETATM   11  C   UNL     1     -12.504   9.155  71.504  1.00  0.00    -0.418 A  
HETATM   12  O   UNL     1     -13.643  12.569  72.203  1.00  0.00    -0.500 OA 
HETATM   13  C   UNL     1     -13.026  11.455  71.723  1.00  0.00    -0.414 A  
HETATM   14  C   UNL     1     -13.266  10.152  72.133  1.00  0.00    -0.463 A  
BRANCH  10  15
HETATM   15  N   UNL     1     -10.820   8.413  69.913  1.00  0.00    -0.233 NA 
HETATM   16  C   UNL     1      -9.352   8.429  69.824  1.00  0.00    -0.158 C  
HETATM   17  N   UNL     1      -9.346   5.908  69.485  1.00  0.00    -0.133 NA 
HETATM   18  C   UNL     1      -8.790   7.054  70.248  1.00  0.00    -0.148 C  
HETATM   19  C   UNL     1     -11.480   7.294  69.219  1.00  0.00     0.268 C  
HETATM   20  C   UNL     1     -10.823   5.952  69.626  1.00  0.00    -0.374 C  
BRANCH  17  21
HETATM   21  C   UNL     1      -8.955   5.935  68.066  1.00  0.00    -0.118 C  
BRANCH  21  22
HETATM   22  C   UNL     1      -7.444   5.766  67.854  1.00  0.00    -0.078 C  
BRANCH  22  23
HETATM   23  C   UNL     1      -6.661   7.080  67.921  1.00  0.00    -0.065 C  
BRANCH  23  24
HETATM   24  C   UNL     1      -6.041   7.437  66.571  1.00  0.00    -0.040 C  
BRANCH  24  25
HETATM   25  C   UNL     1      -7.050   7.936  65.596  1.00  0.00    -0.056 A  
HETATM   26  C   UNL     1      -7.355   7.372  64.372  1.00  0.00    -0.085 A  
HETATM   27  N   UNL     1      -8.312   8.145  63.776  1.00  0.00    -0.381 NA 
HETATM   28  H   UNL     1      -8.721   7.962  62.860  1.00  0.00     0.000 HD 
HETATM   29  C   UNL     1      -8.644   9.206  64.586  1.00  0.00    -0.182 A  
HETATM   30  C   UNL     1      -7.874   9.096  65.741  1.00  0.00    -0.098 A  
HETATM   31  C   UNL     1      -8.030  10.067  66.757  1.00  0.00    -0.114 A  
HETATM   32  C   UNL     1      -8.938  11.118  66.571  1.00  0.00    -0.185 A  
HETATM   33  C   UNL     1      -9.690  11.201  65.397  1.00  0.00    -0.275 A  
HETATM   34  C   UNL     1      -9.093  12.113  67.594  1.00  0.00    -0.181 C  
HETATM   35  N   UNL     1      -9.222  12.924  68.416  1.00  0.00    -0.177 NA 
HETATM   36  C   UNL     1      -9.558  10.245  64.382  1.00  0.00    -0.378 A  
ENDBRANCH  24  25
ENDBRANCH  23  24
ENDBRANCH  22  23
ENDBRANCH  21  22
ENDBRANCH  17  21
ENDBRANCH  10  15
ENDBRANCH   2   6
TORSDOF 7
ENDMDL
MODEL      100
REMARK 921   NORMALIZED FREE ENERGY PREDICTED BY IDOCK:   -5.57 KCAL/MOL
REMARK 922        TOTAL FREE ENERGY PREDICTED BY IDOCK:   -9.12 KCAL/MOL
REMARK 923 INTER-LIGAND FREE ENERGY PREDICTED BY IDOCK:   -8.30 KCAL/MOL
REMARK 924 INTRA-LIGAND FREE ENERGY PREDICTED BY IDOCK:   -0.82 KCAL/MOL
REMARK 927      BINDING AFFINITY PREDICTED BY RF-SCORE:    0.00 PKD
ROOT
HETATM    1  N   UNL     1      -9.433   2.254  73.720  1.00  0.00    -0.082 N  
HETATM    2  C   UNL     1     -10.554   2.937  73.343  1.00  0.00    -0.169 C  
HETATM    3  H1  UNL     1      -8.511   2.583  73.434  1.00  0.00     0.000 HD 
HETATM    4  H2  UNL     1      -9.518   1.412  74.290  1.00  0.00     0.000 HD 
HETATM    5  O   UNL     1     -11.663   2.541  73.688  1.00  0.00    -0.200 OA 
ENDROOT
BRANCH   2   6
HETATM    6  C   UNL     1     -10.315   4.123  72.557  1.00  0.00    -0.159 A  
HETATM    7  C   UNL     1      -9.243   4.465  71.755  1.00  0.00    -0.182 A  
HETATM    8  C   UNL     1      -9.545   5.723  71.182  1.00  0.00    -0.201 A  
HETATM    9  C   UNL     1      -8.905   6.592  70.280  1.00  0.00    -0.152 A  
HETATM   10  C   UNL     1      -9.498   7.817  69.915  1.00  0.00    -0.160 A  
HETATM   11  C   UNL     1     -10.745   8.129  70.490  1.00  0.00    -0.233 A  
HETATM   12  O   UNL     1     -11.253   5.125  72.529  1.00  0.00    -0.226 OA 
HETATM   13  C   UNL     1     -10.779   6.090  71.695  1.00  0.00    -0.251 A  
HETATM   14  C   UNL     1     -11.418   7.281  71.384  1.00  0.00    -0.294 A  
BRANCH  10  15
HETATM   15  N   UNL     1      -8.864   8.688  69.053  1.00  0.00    -0.137 NA 
HETATM   16  C   UNL     1      -9.210  10.115  68.976  1.00  0.00    -0.185 C  
HETATM   17  N   UNL     1      -6.938  10.610  67.943  1.00  0.00    -0.076 NA 
HETATM   18  C   UNL     1      -7.921  10.965  68.999  1.00  0.00    -0.131 C  
HETATM   19  C   UNL     1      -7.866   8.229  68.071  1.00  0.00    -0.118 C  
HETATM   20  C   UNL     1      -6.632   9.164  68.087  1.00  0.00    -0.060 C  
BRANCH  17  21
HETATM   21  C   UNL     1      -7.436  10.907  66.591  1.00  0.00    -0.139 C  
BRANCH  21  22
HETATM   22  C   UNL     1      -7.058   9.834  65.559  1.00  0.00    -0.108 C  
BRANCH  22  23
HETATM   23  C   UNL     1      -8.179   9.508  64.570  1.00  0.00    -0.152 C  
BRANCH  23  24
HETATM   24  C   UNL     1      -9.559   9.743  65.183  1.00  0.00    -0.356 C  
BRANCH  24  25
HETATM   25  C   UNL     1     -10.247  10.926  64.597  1.00  0.00    -0.411 A  
HETATM   26  C   UNL     1     -10.364  11.224  63.253  1.00  0.00    -0.347 A  
HETATM   27  N   UNL     1     -11.042  12.405  63.138  1.00  0.00    -0.699 NA 
HETATM   28  H   UNL     1     -11.268  12.862  62.255  1.00  0.00     0.000 HD 
HETATM   29  C   UNL     1     -11.376  12.889  64.381  1.00  0.00    -0.358 A  
HETATM   30  C   UNL     1     -10.898  11.977  65.318  1.00  0.00    -0.340 A  
HETATM   31  C   UNL     1     -11.119  12.233  66.691  1.00  0.00    -0.344 A  
HETATM   32  C   UNL     1     -11.796  13.399  67.073  1.00  0.00    -0.443 A  
HETATM   33  C   UNL     1     -12.257  14.296  66.106  1.00  0.00    -0.430 A  
HETATM   34  C   UNL     1     -12.015  13.671  68.465  1.00  0.00    -0.361 C  
HETATM   35  N   UNL     1     -12.192  13.899  69.590  1.00  0.00    -0.338 NA 
HETATM   36  C   UNL     1     -12.057  14.057  64.741  1.00  0.00    -0.455 A  
ENDBRANCH  24  25
ENDBRANCH  23  24
ENDBRANCH  22  23
ENDBRANCH  21  22
ENDBRANCH  17  21
ENDBRANCH  10  15
ENDBRANCH   2   6
TORSDOF 7
ENDMDL
MODEL      101
REMARK 921   NORMALIZED FREE ENERGY PREDICTED BY IDOCK:   -5.56 KCAL/MOL
REMARK 922        TOTAL FREE ENERGY PREDICTED BY IDOCK:   -9.11 KCAL/MOL
REMARK 923 INTER-LIGAND FREE ENERGY PREDICTED BY IDOCK:   -7.20 KCAL/MOL
REMARK 924 INTRA-LIGAND FREE ENERGY PREDICTED BY IDOCK:   -1.91 KCAL/MOL
REMARK 927      BINDING AFFINITY PREDICTED BY RF-SCORE:    0.00 PKD
ROOT
HETATM    1  N   UNL     1      -6.723   7.880  71.319  1.00  0.00    -0.041 N  
HETATM    2  C   UNL     1      -6.084   8.280  70.181  1.00  0.00    -0.031 C  
HETATM    3  H1  UNL     1      -7.394   8.499  71.775  1.00  0.00     0.000 HD 
HETATM    4  H2  UNL     1      -6.529   6.961  71.715  1.00  0.00     0.000 HD 
HETATM    5  O   UNL     1      -5.276   7.536  69.632  1.00  0.00    -0.021 OA 
ENDROOT
BRANCH   2   6
HETATM    6  C   UNL     1      -6.450   9.589  69.698  1.00  0.00    -0.041 A  
HETATM    7  C   UNL     1      -6.117  10.844  70.171  1.00  0.00    -0.132 A  
HETATM    8  C   UNL     1      -6.710  11.784  69.296  1.00  0.00    -0.110 A  
HETATM    9  C   UNL     1      -6.737  13.187  69.200  1.00  0.00    -0.089 A  
HETATM   10  C   UNL     1      -7.461  13.826  68.175  1.00  0.00    -0.124 A  
HETATM   11  C   UNL     1      -8.150  13.007  67.261  1.00  0.00    -0.164 A  
HETATM   12  O   UNL     1      -7.247   9.711  68.587  1.00  0.00    -0.071 OA 
HETATM   13  C   UNL     1      -7.401  11.042  68.351  1.00  0.00    -0.096 A  
HETATM   14  C   UNL     1      -8.137  11.604  67.319  1.00  0.00    -0.160 A  
BRANCH  10  15
HETATM   15  N   UNL     1      -7.514  15.203  68.091  1.00  0.00    -0.108 NA 
HETATM   16  C   UNL     1      -7.559  16.064  69.282  1.00  0.00    -0.230 C  
HETATM   17  N   UNL     1      -6.705  18.021  67.899  1.00  0.00    -0.188 NA 
HETATM   18  C   UNL     1      -6.537  17.212  69.134  1.00  0.00    -0.231 C  
HETATM   19  C   UNL     1      -7.636  15.905  66.802  1.00  0.00    -0.180 C  
HETATM   20  C   UNL     1      -6.641  17.091  66.744  1.00  0.00    -0.227 C  
BRANCH  17  21
HETATM   21  C   UNL     1      -7.967  18.778  67.891  1.00  0.00    -0.259 C  
BRANCH  21  22
HETATM   22  C   UNL     1      -8.322  19.346  66.510  1.00  0.00    -0.342 C  
BRANCH  22  23
HETATM   23  C   UNL     1      -9.789  19.148  66.120  1.00  0.00    -0.397 C  
BRANCH  23  24
HETATM   24  C   UNL     1     -10.463  18.085  66.984  1.00  0.00    -0.361 C  
BRANCH  24  25
HETATM   25  C   UNL     1     -10.767  16.842  66.223  1.00  0.00    -0.106 A  
HETATM   26  C   UNL     1     -10.737  16.695  64.850  1.00  0.00    -0.082 A  
HETATM   27  N   UNL     1     -11.103  15.411  64.553  1.00  0.00    -0.687 NA 
HETATM   28  H   UNL     1     -11.169  15.028  63.611  1.00  0.00     0.000 HD 
HETATM   29  C   UNL     1     -11.370  14.711  65.706  1.00  0.00    -0.340 A  
HETATM   30  C   UNL     1     -11.159  15.580  66.773  1.00  0.00    -0.206 A  
HETATM   31  C   UNL     1     -11.356  15.103  68.089  1.00  0.00    -0.345 A  
HETATM   32  C   UNL     1     -11.772  13.780  68.286  1.00  0.00    -0.394 A  
HETATM   33  C   UNL     1     -11.981  12.936  67.192  1.00  0.00    -0.374 A  
HETATM   34  C   UNL     1     -11.984  13.292  69.619  1.00  0.00    -0.314 C  
HETATM   35  N   UNL     1     -12.161  12.891  70.695  1.00  0.00    -0.363 NA 
HETATM   36  C   UNL     1     -11.782  13.385  65.881  1.00  0.00    -0.389 A  
ENDBRANCH  24  25
ENDBRANCH  23  24
ENDBRANCH  22  23
ENDBRANCH  21  22
ENDBRANCH  17  21
ENDBRANCH  10  15
ENDBRANCH   2   6
TORSDOF 7
ENDMDL
MODEL      102
REMARK 921   NORMALIZED FREE ENERGY PREDICTED BY IDOCK:   -5.55 KCAL/MOL
REMARK 922        TOTAL FREE ENERGY PREDICTED BY IDOCK:   -9.10 KCAL/MOL
REMARK 923 INTER-LIGAND FREE ENERGY PREDICTED BY IDOCK:   -7.82 KCAL/MOL
REMARK 924 INTRA-LIGAND FREE ENERGY PREDICTED BY IDOCK:   -1.28 KCAL/MOL
REMARK 927      BINDING AFFINITY PREDICTED BY RF-SCORE:    0.00 PKD
ROOT
HETATM    1  N   UNL     1     -11.028   6.489  73.905  1.00  0.00    -0.397 N  
HETATM    2  C   UNL     1     -11.229   5.591  72.896  1.00  0.00    -0.305 C  
HETATM    3  H1  UNL     1     -10.445   7.311  73.752  1.00  0.00     0.000 HD 
HETATM    4  H2  UNL     1     -11.465   6.338  74.814  1.00  0.00     0.000 HD 
HETATM    5  O   UNL     1     -11.931   4.602  73.080  1.00  0.00    -0.176 OA 
ENDROOT
BRANCH   2   6
HETATM    6  C   UNL     1     -10.582   5.916  71.648  1.00  0.00    -0.241 A  
HETATM    7  C   UNL     1     -11.040   6.638  70.563  1.00  0.00    -0.359 A  
HETATM    8  C   UNL     1      -9.981   6.690  69.627  1.00  0.00    -0.191 A  
HETATM    9  C   UNL     1      -9.788   7.274  68.362  1.00  0.00    -0.161 A  
HETATM   10  C   UNL     1      -8.570   7.116  67.672  1.00  0.00    -0.122 A  
HETATM   11  C   UNL     1      -7.566   6.355  68.299  1.00  0.00    -0.103 A  
HETATM   12  O   UNL     1      -9.296   5.495  71.414  1.00  0.00    -0.145 OA 
HETATM   13  C   UNL     1      -8.940   5.966  70.188  1.00  0.00    -0.142 A  
HETATM   14  C   UNL     1      -7.718   5.767  69.565  1.00  0.00    -0.092 A  
BRANCH  10  15
HETATM   15  N   UNL     1      -8.384   7.664  66.419  1.00  0.00    -0.123 NA 
HETATM   16  C   UNL     1      -8.379   9.115  66.185  1.00  0.00    -0.119 C  
HETATM   17  N   UNL     1      -7.101   8.759  64.014  1.00  0.00    -0.093 NA 
HETATM   18  C   UNL     1      -7.170   9.495  65.303  1.00  0.00    -0.104 C  
HETATM   19  C   UNL     1      -8.284   6.830  65.208  1.00  0.00    -0.127 C  
HETATM   20  C   UNL     1      -7.102   7.309  64.329  1.00  0.00    -0.063 C  
BRANCH  17  21
HETATM   21  C   UNL     1      -8.212   9.101  63.112  1.00  0.00    -0.176 C  
BRANCH  21  22
HETATM   22  C   UNL     1      -8.070  10.492  62.479  1.00  0.00    -0.201 C  
BRANCH  22  23
HETATM   23  C   UNL     1      -9.335  11.348  62.581  1.00  0.00    -0.247 C  
BRANCH  23  24
HETATM   24  C   UNL     1     -10.359  10.730  63.531  1.00  0.00    -0.231 C  
BRANCH  24  25
HETATM   25  C   UNL     1     -11.211  11.756  64.194  1.00  0.00    -0.437 A  
HETATM   26  C   UNL     1     -12.476  12.147  63.803  1.00  0.00    -0.514 A  
HETATM   27  N   UNL     1     -12.900  13.127  64.657  1.00  0.00    -0.720 NA 
HETATM   28  H   UNL     1     -13.802  13.599  64.600  1.00  0.00     0.000 HD 
HETATM   29  C   UNL     1     -11.937  13.386  65.604  1.00  0.00    -0.401 A  
HETATM   30  C   UNL     1     -10.867  12.534  65.345  1.00  0.00    -0.316 A  
HETATM   31  C   UNL     1      -9.734  12.589  66.189  1.00  0.00    -0.259 A  
HETATM   32  C   UNL     1      -9.709  13.505  67.249  1.00  0.00    -0.236 A  
HETATM   33  C   UNL     1     -10.798  14.350  67.476  1.00  0.00    -0.285 A  
HETATM   34  C   UNL     1      -8.557  13.573  68.103  1.00  0.00    -0.173 C  
HETATM   35  N   UNL     1      -7.627  13.637  68.796  1.00  0.00    -0.111 NA 
HETATM   36  C   UNL     1     -11.934  14.305  66.659  1.00  0.00    -0.454 A  
ENDBRANCH  24  25
ENDBRANCH  23  24
ENDBRANCH  22  23
ENDBRANCH  21  22
ENDBRANCH  17  21
ENDBRANCH  10  15
ENDBRANCH   2   6
TORSDOF 7
ENDMDL
MODEL      103
REMARK 921   NORMALIZED FREE ENERGY PREDICTED BY IDOCK:   -5.55 KCAL/MOL
REMARK 922        TOTAL FREE ENERGY PREDICTED BY IDOCK:   -9.10 KCAL/MOL
REMARK 923 INTER-LIGAND FREE ENERGY PREDICTED BY IDOCK:   -8.42 KCAL/MOL
REMARK 924 INTRA-LIGAND FREE ENERGY PREDICTED BY IDOCK:   -0.68 KCAL/MOL
REMARK 927      BINDING AFFINITY PREDICTED BY RF-SCORE:    0.00 PKD
ROOT
HETATM    1  N   UNL     1     -11.557   5.427  73.250  1.00  0.00    -0.515 N  
HETATM    2  C   UNL     1     -10.781   5.235  72.143  1.00  0.00    -0.209 C  
HETATM    3  H1  UNL     1     -12.044   6.312  73.388  1.00  0.00     0.000 HD 
HETATM    4  H2  UNL     1     -11.649   4.683  73.942  1.00  0.00     0.000 HD 
HETATM    5  O   UNL     1     -10.195   4.169  71.977  1.00  0.00    -0.179 OA 
ENDROOT
BRANCH   2   6
HETATM    6  C   UNL     1     -10.740   6.345  71.222  1.00  0.00    -0.241 A  
HETATM    7  C   UNL     1     -10.910   7.698  71.443  1.00  0.00    -0.250 A  
HETATM    8  C   UNL     1     -10.723   8.344  70.198  1.00  0.00    -0.238 A  
HETATM    9  C   UNL     1     -10.734   9.676  69.748  1.00  0.00    -0.269 A  
HETATM   10  C   UNL     1     -10.513   9.981  68.390  1.00  0.00    -0.205 A  
HETATM   11  C   UNL     1     -10.287   8.903  67.514  1.00  0.00    -0.328 A  
HETATM   12  O   UNL     1     -10.485   6.121  69.892  1.00  0.00    -0.194 OA 
HETATM   13  C   UNL     1     -10.478   7.336  69.278  1.00  0.00    -0.216 A  
HETATM   14  C   UNL     1     -10.257   7.562  67.928  1.00  0.00    -0.245 A  
BRANCH  10  15
HETATM   15  N   UNL     1     -10.550  11.284  67.937  1.00  0.00    -0.185 NA 
HETATM   16  C   UNL     1      -9.407  12.200  68.075  1.00  0.00    -0.197 C  
HETATM   17  N   UNL     1     -10.336  13.641  66.196  1.00  0.00    -0.290 NA 
HETATM   18  C   UNL     1      -9.153  12.921  66.734  1.00  0.00    -0.211 C  
HETATM   19  C   UNL     1     -11.773  11.885  67.377  1.00  0.00    -0.256 C  
HETATM   20  C   UNL     1     -11.441  12.657  66.077  1.00  0.00    -0.368 C  
BRANCH  17  21
HETATM   21  C   UNL     1     -10.735  14.776  67.042  1.00  0.00    -0.300 C  
BRANCH  21  22
HETATM   22  C   UNL     1      -9.797  15.985  66.913  1.00  0.00    -0.252 C  
BRANCH  22  23
HETATM   23  C   UNL     1      -8.819  16.134  68.081  1.00  0.00    -0.184 C  
BRANCH  23  24
HETATM   24  C   UNL     1      -7.399  16.421  67.595  1.00  0.00    -0.156 C  
BRANCH  24  25
HETATM   25  C   UNL     1      -6.867  17.708  68.122  1.00  0.00    -0.207 A  
HETATM   26  C   UNL     1      -6.651  18.023  69.449  1.00  0.00    -0.192 A  
HETATM   27  N   UNL     1      -6.183  19.306  69.509  1.00  0.00    -0.279 NA 
HETATM   28  H   UNL     1      -5.941  19.797  70.370  1.00  0.00     0.000 HD 
HETATM   29  C   UNL     1      -6.085  19.840  68.246  1.00  0.00    -0.237 A  
HETATM   30  C   UNL     1      -6.499  18.856  67.352  1.00  0.00    -0.195 A  
HETATM   31  C   UNL     1      -6.486  19.146  65.968  1.00  0.00    -0.232 A  
HETATM   32  C   UNL     1      -6.074  20.413  65.534  1.00  0.00    -0.254 A  
HETATM   33  C   UNL     1      -5.671  21.379  66.459  1.00  0.00    -0.353 A  
HETATM   34  C   UNL     1      -6.068  20.717  64.131  1.00  0.00    -0.318 C  
HETATM   35  N   UNL     1      -6.065  20.972  62.998  1.00  0.00    -0.269 NA 
HETATM   36  C   UNL     1      -5.666  21.110  67.833  1.00  0.00    -0.389 A  
ENDBRANCH  24  25
ENDBRANCH  23  24
ENDBRANCH  22  23
ENDBRANCH  21  22
ENDBRANCH  17  21
ENDBRANCH  10  15
ENDBRANCH   2   6
TORSDOF 7
ENDMDL
MODEL      104
REMARK 921   NORMALIZED FREE ENERGY PREDICTED BY IDOCK:   -5.53 KCAL/MOL
REMARK 922        TOTAL FREE ENERGY PREDICTED BY IDOCK:   -9.06 KCAL/MOL
REMARK 923 INTER-LIGAND FREE ENERGY PREDICTED BY IDOCK:   -8.20 KCAL/MOL
REMARK 924 INTRA-LIGAND FREE ENERGY PREDICTED BY IDOCK:   -0.87 KCAL/MOL
REMARK 927      BINDING AFFINITY PREDICTED BY RF-SCORE:    0.00 PKD
ROOT
HETATM    1  N   UNL     1      -9.677   3.262  66.991  1.00  0.00    -0.382 N  
HETATM    2  C   UNL     1      -9.502   4.065  68.082  1.00  0.00    -0.158 C  
HETATM    3  H1  UNL     1      -9.953   3.665  66.096  1.00  0.00     0.000 HD 
HETATM    4  H2  UNL     1      -9.531   2.256  67.072  1.00  0.00     0.000 HD 
HETATM    5  O   UNL     1      -9.170   3.579  69.159  1.00  0.00    -0.131 OA 
ENDROOT
BRANCH   2   6
HETATM    6  C   UNL     1      -9.715   5.472  67.848  1.00  0.00    -0.131 A  
HETATM    7  C   UNL     1      -9.661   6.204  66.678  1.00  0.00    -0.196 A  
HETATM    8  C   UNL     1      -9.997   7.538  67.011  1.00  0.00    -0.304 A  
HETATM    9  C   UNL     1     -10.146   8.742  66.300  1.00  0.00    -0.254 A  
HETATM   10  C   UNL     1     -10.490   9.935  66.965  1.00  0.00    -0.230 A  
HETATM   11  C   UNL     1     -10.674   9.869  68.359  1.00  0.00    -0.271 A  
HETATM   12  O   UNL     1     -10.041   6.298  68.896  1.00  0.00    -0.151 OA 
HETATM   13  C   UNL     1     -10.208   7.547  68.381  1.00  0.00    -0.185 A  
HETATM   14  C   UNL     1     -10.544   8.683  69.100  1.00  0.00    -0.193 A  
BRANCH  10  15
HETATM   15  N   UNL     1     -10.611  11.125  66.277  1.00  0.00    -0.260 NA 
HETATM   16  C   UNL     1      -9.951  11.360  64.984  1.00  0.00    -0.266 C  
HETATM   17  N   UNL     1     -11.613  13.218  64.474  1.00  0.00    -0.352 NA 
HETATM   18  C   UNL     1     -10.960  11.974  63.989  1.00  0.00    -0.381 C  
HETATM   19  C   UNL     1     -11.324  12.285  66.839  1.00  0.00    -0.333 C  
HETATM   20  C   UNL     1     -12.260  12.904  65.772  1.00  0.00    -0.439 C  
BRANCH  17  21
HETATM   21  C   UNL     1     -10.661  14.331  64.620  1.00  0.00    -0.365 C  
BRANCH  21  22
HETATM   22  C   UNL     1     -11.336  15.654  65.012  1.00  0.00    -0.255 C  
BRANCH  22  23
HETATM   23  C   UNL     1     -10.371  16.688  65.596  1.00  0.00    -0.310 C  
BRANCH  23  24
HETATM   24  C   UNL     1      -9.065  16.044  66.057  1.00  0.00    -0.361 C  
BRANCH  24  25
HETATM   25  C   UNL     1      -8.178  17.005  66.770  1.00  0.00    -0.273 A  
HETATM   26  C   UNL     1      -7.940  18.318  66.415  1.00  0.00    -0.261 A  
HETATM   27  N   UNL     1      -7.050  18.844  67.309  1.00  0.00    -0.208 NA 
HETATM   28  H   UNL     1      -6.696  19.800  67.284  1.00  0.00     0.000 HD 
HETATM   29  C   UNL     1      -6.699  17.901  68.247  1.00  0.00    -0.205 A  
HETATM   30  C   UNL     1      -7.399  16.737  67.940  1.00  0.00    -0.169 A  
HETATM   31  C   UNL     1      -7.225  15.602  68.765  1.00  0.00    -0.133 A  
HETATM   32  C   UNL     1      -6.347  15.671  69.854  1.00  0.00    -0.150 A  
HETATM   33  C   UNL     1      -5.656  16.853  70.130  1.00  0.00    -0.222 A  
HETATM   34  C   UNL     1      -6.159  14.518  70.689  1.00  0.00    -0.174 C  
HETATM   35  N   UNL     1      -5.998  13.589  71.367  1.00  0.00    -0.264 NA 
HETATM   36  C   UNL     1      -5.821  17.992  69.332  1.00  0.00    -0.229 A  
ENDBRANCH  24  25
ENDBRANCH  23  24
ENDBRANCH  22  23
ENDBRANCH  21  22
ENDBRANCH  17  21
ENDBRANCH  10  15
ENDBRANCH   2   6
TORSDOF 7
ENDMDL
MODEL      105
REMARK 921   NORMALIZED FREE ENERGY PREDICTED BY IDOCK:   -5.45 KCAL/MOL
REMARK 922        TOTAL FREE ENERGY PREDICTED BY IDOCK:   -8.96 KCAL/MOL
REMARK 923 INTER-LIGAND FREE ENERGY PREDICTED BY IDOCK:   -8.24 KCAL/MOL
REMARK 924 INTRA-LIGAND FREE ENERGY PREDICTED BY IDOCK:   -0.73 KCAL/MOL
REMARK 927      BINDING AFFINITY PREDICTED BY RF-SCORE:    0.00 PKD
ROOT
HETATM    1  N   UNL     1      -9.317  20.103  66.154  1.00  0.00    -0.590 N  
HETATM    2  C   UNL     1     -10.413  19.482  65.627  1.00  0.00    -0.322 C  
HETATM    3  H1  UNL     1      -8.584  19.556  66.605  1.00  0.00     0.000 HD 
HETATM    4  H2  UNL     1      -9.231  21.118  66.096  1.00  0.00     0.000 HD 
HETATM    5  O   UNL     1     -11.295  20.140  65.084  1.00  0.00    -0.103 OA 
ENDROOT
BRANCH   2   6
HETATM    6  C   UNL     1     -10.419  18.044  65.747  1.00  0.00    -0.198 A  
HETATM    7  C   UNL     1      -9.885  17.223  66.722  1.00  0.00    -0.296 A  
HETATM    8  C   UNL     1     -10.219  15.895  66.369  1.00  0.00    -0.311 A  
HETATM    9  C   UNL     1     -10.007  14.624  66.934  1.00  0.00    -0.254 A  
HETATM   10  C   UNL     1     -10.482  13.462  66.295  1.00  0.00    -0.289 A  
HETATM   11  C   UNL     1     -11.169  13.628  65.078  1.00  0.00    -0.329 A  
HETATM   12  O   UNL     1     -11.045  17.281  64.793  1.00  0.00    -0.954 OA 
HETATM   13  C   UNL     1     -10.918  15.981  65.176  1.00  0.00    -0.348 A  
HETATM   14  C   UNL     1     -11.410  14.881  64.491  1.00  0.00    -0.306 A  
BRANCH  10  15
HETATM   15  N   UNL     1     -10.252  12.210  66.829  1.00  0.00    -0.202 NA 
HETATM   16  C   UNL     1     -10.805  11.793  68.126  1.00  0.00    -0.217 C  
HETATM   17  N   UNL     1     -10.521   9.354  67.461  1.00  0.00    -0.265 NA 
HETATM   18  C   UNL     1     -11.441  10.392  67.994  1.00  0.00    -0.082 C  
HETATM   19  C   UNL     1      -9.350  11.239  66.187  1.00  0.00    -0.211 C  
HETATM   20  C   UNL     1     -10.011   9.839  66.154  1.00  0.00    -0.268 C  
BRANCH  17  21
HETATM   21  C   UNL     1      -9.410   9.062  68.381  1.00  0.00    -0.139 C  
BRANCH  21  22
HETATM   22  C   UNL     1      -8.599   7.824  67.974  1.00  0.00    -0.123 C  
BRANCH  22  23
HETATM   23  C   UNL     1      -7.289   7.662  68.750  1.00  0.00    -0.091 C  
BRANCH  23  24
HETATM   24  C   UNL     1      -7.413   6.610  69.851  1.00  0.00    -0.095 C  
BRANCH  24  25
HETATM   25  C   UNL     1      -8.082   7.141  71.071  1.00  0.00    -0.104 A  
HETATM   26  C   UNL     1      -7.979   8.424  71.570  1.00  0.00    -0.130 A  
HETATM   27  N   UNL     1      -8.723   8.496  72.714  1.00  0.00    -0.375 NA 
HETATM   28  H   UNL     1      -8.824   9.330  73.291  1.00  0.00     0.000 HD 
HETATM   29  C   UNL     1      -9.317   7.283  72.976  1.00  0.00    -0.162 A  
HETATM   30  C   UNL     1      -8.940   6.414  71.956  1.00  0.00    -0.137 A  
HETATM   31  C   UNL     1      -9.427   5.086  71.979  1.00  0.00    -0.180 A  
HETATM   32  C   UNL     1     -10.259   4.677  73.030  1.00  0.00    -0.219 A  
HETATM   33  C   UNL     1     -10.612   5.575  74.040  1.00  0.00    -0.283 A  
HETATM   34  C   UNL     1     -10.748   3.328  73.065  1.00  0.00    -0.125 C  
HETATM   35  N   UNL     1     -11.145   2.237  73.103  1.00  0.00    -0.144 NA 
HETATM   36  C   UNL     1     -10.149   6.896  74.031  1.00  0.00    -0.383 A  
ENDBRANCH  24  25
ENDBRANCH  23  24
ENDBRANCH  22  23
ENDBRANCH  21  22
ENDBRANCH  17  21
ENDBRANCH  10  15
ENDBRANCH   2   6
TORSDOF 7
ENDMDL
MODEL      106
REMARK 921   NORMALIZED FREE ENERGY PREDICTED BY IDOCK:   -5.45 KCAL/MOL
REMARK 922        TOTAL FREE ENERGY PREDICTED BY IDOCK:   -8.96 KCAL/MOL
REMARK 923 INTER-LIGAND FREE ENERGY PREDICTED BY IDOCK:   -8.27 KCAL/MOL
REMARK 924 INTRA-LIGAND FREE ENERGY PREDICTED BY IDOCK:   -0.69 KCAL/MOL
REMARK 927      BINDING AFFINITY PREDICTED BY RF-SCORE:    0.00 PKD
ROOT
HETATM    1  N   UNL     1      -9.840  20.590  65.619  1.00  0.00    -0.498 N  
HETATM    2  C   UNL     1      -9.973  19.838  66.751  1.00  0.00    -0.427 C  
HETATM    3  H1  UNL     1      -9.779  20.138  64.707  1.00  0.00     0.000 HD 
HETATM    4  H2  UNL     1      -9.801  21.607  65.687  1.00  0.00     0.000 HD 
HETATM    5  O   UNL     1     -10.046  20.381  67.849  1.00  0.00    -0.383 OA 
ENDROOT
BRANCH   2   6
HETATM    6  C   UNL     1     -10.039  18.413  66.537  1.00  0.00    -0.388 A  
HETATM    7  C   UNL     1      -9.644  17.365  67.347  1.00  0.00    -0.257 A  
HETATM    8  C   UNL     1      -9.979  16.171  66.666  1.00  0.00    -0.270 A  
HETATM    9  C   UNL     1      -9.872  14.796  66.943  1.00  0.00    -0.248 A  
HETATM   10  C   UNL     1     -10.308  13.836  66.009  1.00  0.00    -0.308 A  
HETATM   11  C   UNL     1     -10.847  14.310  64.798  1.00  0.00    -0.420 A  
HETATM   12  O   UNL     1     -10.576  17.920  65.373  1.00  0.00    -0.656 OA 
HETATM   13  C   UNL     1     -10.535  16.563  65.459  1.00  0.00    -0.301 A  
HETATM   14  C   UNL     1     -10.980  15.674  64.492  1.00  0.00    -0.220 A  
BRANCH  10  15
HETATM   15  N   UNL     1     -10.180  12.485  66.262  1.00  0.00    -0.243 NA 
HETATM   16  C   UNL     1      -8.873  11.816  66.335  1.00  0.00    -0.170 C  
HETATM   17  N   UNL     1      -9.918   9.923  67.676  1.00  0.00    -0.163 NA 
HETATM   18  C   UNL     1      -8.818  10.918  67.590  1.00  0.00    -0.133 C  
HETATM   19  C   UNL     1     -11.350  11.596  66.372  1.00  0.00    -0.245 C  
HETATM   20  C   UNL     1     -11.199  10.669  67.604  1.00  0.00    -0.290 C  
BRANCH  17  21
HETATM   21  C   UNL     1      -9.842   8.909  66.612  1.00  0.00    -0.262 C  
BRANCH  21  22
HETATM   22  C   UNL     1     -10.546   7.595  66.980  1.00  0.00    -0.406 C  
BRANCH  22  23
HETATM   23  C   UNL     1     -10.884   7.472  68.468  1.00  0.00    -0.032 C  
BRANCH  23  24
HETATM   24  C   UNL     1     -10.561   6.079  69.006  1.00  0.00    -0.357 C  
BRANCH  24  25
HETATM   25  C   UNL     1     -10.072   6.112  70.412  1.00  0.00    -0.237 A  
HETATM   26  C   UNL     1     -10.498   5.302  71.446  1.00  0.00    -0.203 A  
HETATM   27  N   UNL     1      -9.822   5.668  72.577  1.00  0.00    -0.162 NA 
HETATM   28  H   UNL     1      -9.942   5.235  73.492  1.00  0.00     0.000 HD 
HETATM   29  C   UNL     1      -8.959   6.703  72.305  1.00  0.00    -0.133 A  
HETATM   30  C   UNL     1      -9.087   6.998  70.950  1.00  0.00    -0.153 A  
HETATM   31  C   UNL     1      -8.292   8.031  70.402  1.00  0.00    -0.120 A  
HETATM   32  C   UNL     1      -7.413   8.738  71.233  1.00  0.00    -0.127 A  
HETATM   33  C   UNL     1      -7.315   8.420  72.589  1.00  0.00    -0.115 A  
HETATM   34  C   UNL     1      -6.611   9.795  70.684  1.00  0.00    -0.113 C  
HETATM   35  N   UNL     1      -5.962  10.654  70.248  1.00  0.00    -0.097 NA 
HETATM   36  C   UNL     1      -8.085   7.394  73.151  1.00  0.00    -0.134 A  
ENDBRANCH  24  25
ENDBRANCH  23  24
ENDBRANCH  22  23
ENDBRANCH  21  22
ENDBRANCH  17  21
ENDBRANCH  10  15
ENDBRANCH   2   6
TORSDOF 7
ENDMDL
MODEL      107
REMARK 921   NORMALIZED FREE ENERGY PREDICTED BY IDOCK:   -5.43 KCAL/MOL
REMARK 922        TOTAL FREE ENERGY PREDICTED BY IDOCK:   -8.93 KCAL/MOL
REMARK 923 INTER-LIGAND FREE ENERGY PREDICTED BY IDOCK:   -8.10 KCAL/MOL
REMARK 924 INTRA-LIGAND FREE ENERGY PREDICTED BY IDOCK:   -0.83 KCAL/MOL
REMARK 927      BINDING AFFINITY PREDICTED BY RF-SCORE:    0.00 PKD
ROOT
HETATM    1  N   UNL     1     -10.557  20.420  65.244  1.00  0.00    -0.130 N  
HETATM    2  C   UNL     1     -10.217  19.808  66.416  1.00  0.00    -0.503 C  
HETATM    3  H1  UNL     1     -10.751  19.863  64.412  1.00  0.00     0.000 HD 
HETATM    4  H2  UNL     1     -10.618  21.437  65.201  1.00  0.00     0.000 HD 
HETATM    5  O   UNL     1      -9.983  20.477  67.418  1.00  0.00    -0.442 OA 
ENDROOT
BRANCH   2   6
HETATM    6  C   UNL     1     -10.182  18.366  66.368  1.00  0.00    -0.410 A  
HETATM    7  C   UNL     1      -9.645  17.452  67.254  1.00  0.00    -0.258 A  
HETATM    8  C   UNL     1      -9.931  16.165  66.741  1.00  0.00    -0.264 A  
HETATM    9  C   UNL     1      -9.693  14.844  67.160  1.00  0.00    -0.229 A  
HETATM   10  C   UNL     1     -10.118  13.752  66.378  1.00  0.00    -0.295 A  
HETATM   11  C   UNL     1     -10.783  14.040  65.171  1.00  0.00    -0.393 A  
HETATM   12  O   UNL     1     -10.763  17.703  65.315  1.00  0.00    -0.649 OA 
HETATM   13  C   UNL     1     -10.606  16.371  65.548  1.00  0.00    -0.330 A  
HETATM   14  C   UNL     1     -11.048  15.345  64.727  1.00  0.00    -0.416 A  
BRANCH  10  15
HETATM   15  N   UNL     1      -9.863  12.453  66.769  1.00  0.00    -0.217 NA 
HETATM   16  C   UNL     1      -8.574  12.041  67.344  1.00  0.00    -0.171 C  
HETATM   17  N   UNL     1      -9.691  10.009  68.390  1.00  0.00    -0.144 NA 
HETATM   18  C   UNL     1      -8.817  11.190  68.609  1.00  0.00    -0.155 C  
HETATM   19  C   UNL     1     -10.827  11.363  66.540  1.00  0.00    -0.283 C  
HETATM   20  C   UNL     1     -10.970  10.500  67.818  1.00  0.00    -0.313 C  
BRANCH  17  21
HETATM   21  C   UNL     1      -9.073   9.009  67.504  1.00  0.00    -0.132 C  
BRANCH  21  22
HETATM   22  C   UNL     1      -9.545   7.576  67.789  1.00  0.00    -0.166 C  
BRANCH  22  23
HETATM   23  C   UNL     1      -9.441   7.174  69.263  1.00  0.00    -0.152 C  
BRANCH  23  24
HETATM   24  C   UNL     1     -10.489   6.126  69.636  1.00  0.00    -0.312 C  
BRANCH  24  25
HETATM   25  C   UNL     1      -9.901   4.768  69.800  1.00  0.00    -0.288 A  
HETATM   26  C   UNL     1      -9.652   4.121  70.994  1.00  0.00    -0.183 A  
HETATM   27  N   UNL     1      -9.086   2.910  70.711  1.00  0.00    -0.107 NA 
HETATM   28  H   UNL     1      -8.798   2.224  71.409  1.00  0.00     0.000 HD 
HETATM   29  C   UNL     1      -8.960   2.746  69.351  1.00  0.00    -0.110 A  
HETATM   30  C   UNL     1      -9.472   3.894  68.751  1.00  0.00    -0.224 A  
HETATM   31  C   UNL     1      -9.471   3.981  67.340  1.00  0.00    -0.231 A  
HETATM   32  C   UNL     1      -8.945   2.925  66.585  1.00  0.00    -0.168 A  
HETATM   33  C   UNL     1      -8.434   1.790  67.220  1.00  0.00    -0.095 A  
HETATM   34  C   UNL     1      -8.932   3.012  65.152  1.00  0.00    -0.143 C  
HETATM   35  N   UNL     1      -8.915   3.076  63.993  1.00  0.00    -0.100 NA 
HETATM   36  C   UNL     1      -8.434   1.679  68.616  1.00  0.00    -0.083 A  
ENDBRANCH  24  25
ENDBRANCH  23  24
ENDBRANCH  22  23
ENDBRANCH  21  22
ENDBRANCH  17  21
ENDBRANCH  10  15
ENDBRANCH   2   6
TORSDOF 7
ENDMDL
MODEL      108
REMARK 921   NORMALIZED FREE ENERGY PREDICTED BY IDOCK:   -5.43 KCAL/MOL
REMARK 922        TOTAL FREE ENERGY PREDICTED BY IDOCK:   -8.93 KCAL/MOL
REMARK 923 INTER-LIGAND FREE ENERGY PREDICTED BY IDOCK:   -7.97 KCAL/MOL
REMARK 924 INTRA-LIGAND FREE ENERGY PREDICTED BY IDOCK:   -0.96 KCAL/MOL
REMARK 927      BINDING AFFINITY PREDICTED BY RF-SCORE:    0.00 PKD
ROOT
HETATM    1  N   UNL     1     -11.911  14.894  65.645  1.00  0.00    -0.205 N  
HETATM    2  C   UNL     1     -11.820  14.366  66.901  1.00  0.00    -0.410 C  
HETATM    3  H1  UNL     1     -11.689  14.322  64.831  1.00  0.00     0.000 HD 
HETATM    4  H2  UNL     1     -12.202  15.863  65.521  1.00  0.00     0.000 HD 
HETATM    5  O   UNL     1     -12.088  15.055  67.881  1.00  0.00    -0.218 OA 
ENDROOT
BRANCH   2   6
HETATM    6  C   UNL     1     -11.420  12.981  66.958  1.00  0.00    -0.333 A  
HETATM    7  C   UNL     1     -11.519  12.061  67.983  1.00  0.00    -0.392 A  
HETATM    8  C   UNL     1     -11.014  10.836  67.486  1.00  0.00    -0.372 A  
HETATM    9  C   UNL     1     -10.859   9.535  67.997  1.00  0.00    -0.225 A  
HETATM   10  C   UNL     1     -10.288   8.515  67.211  1.00  0.00    -0.302 A  
HETATM   11  C   UNL     1      -9.883   8.853  65.906  1.00  0.00    -0.200 A  
HETATM   12  O   UNL     1     -10.850  12.389  65.858  1.00  0.00    -0.257 OA 
HETATM   13  C   UNL     1     -10.605  11.091  66.187  1.00  0.00    -0.228 A  
HETATM   14  C   UNL     1     -10.033  10.137  65.359  1.00  0.00    -0.377 A  
BRANCH  10  15
HETATM   15  N   UNL     1     -10.107   7.243  67.715  1.00  0.00    -0.169 NA 
HETATM   16  C   UNL     1     -10.930   6.101  67.289  1.00  0.00    -0.326 C  
HETATM   17  N   UNL     1      -9.119   4.501  68.083  1.00  0.00    -0.117 NA 
HETATM   18  C   UNL     1     -10.020   4.894  66.970  1.00  0.00    -0.208 C  
HETATM   19  C   UNL     1      -9.147   6.958  68.796  1.00  0.00    -0.133 C  
HETATM   20  C   UNL     1      -8.319   5.695  68.454  1.00  0.00    -0.106 C  
BRANCH  17  21
HETATM   21  C   UNL     1      -9.857   3.984  69.247  1.00  0.00    -0.019 C  
BRANCH  21  22
HETATM   22  C   UNL     1      -8.938   3.474  70.367  1.00  0.00    -0.168 C  
BRANCH  22  23
HETATM   23  C   UNL     1      -9.553   2.353  71.207  1.00  0.00    -0.222 C  
BRANCH  23  24
HETATM   24  C   UNL     1     -10.182   2.890  72.491  1.00  0.00    -0.222 C  
BRANCH  24  25
HETATM   25  C   UNL     1      -9.678   4.245  72.847  1.00  0.00    -0.172 A  
HETATM   26  C   UNL     1      -8.462   4.539  73.431  1.00  0.00    -0.102 A  
HETATM   27  N   UNL     1      -8.396   5.892  73.616  1.00  0.00    -0.113 NA 
HETATM   28  H   UNL     1      -7.606   6.385  74.031  1.00  0.00     0.000 HD 
HETATM   29  C   UNL     1      -9.546   6.493  73.162  1.00  0.00    -0.151 A  
HETATM   30  C   UNL     1     -10.368   5.486  72.665  1.00  0.00    -0.238 A  
HETATM   31  C   UNL     1     -11.625   5.839  72.122  1.00  0.00    -0.265 A  
HETATM   32  C   UNL     1     -12.017   7.184  72.112  1.00  0.00    -0.304 A  
HETATM   33  C   UNL     1     -11.170   8.169  72.625  1.00  0.00    -0.447 A  
HETATM   34  C   UNL     1     -13.296   7.548  71.571  1.00  0.00    -0.352 C  
HETATM   35  N   UNL     1     -14.331   7.849  71.139  1.00  0.00    -0.259 NA 
HETATM   36  C   UNL     1      -9.917   7.843  73.158  1.00  0.00    -0.358 A  
ENDBRANCH  24  25
ENDBRANCH  23  24
ENDBRANCH  22  23
ENDBRANCH  21  22
ENDBRANCH  17  21
ENDBRANCH  10  15
ENDBRANCH   2   6
TORSDOF 7
ENDMDL
MODEL      109
REMARK 921   NORMALIZED FREE ENERGY PREDICTED BY IDOCK:   -5.43 KCAL/MOL
REMARK 922        TOTAL FREE ENERGY PREDICTED BY IDOCK:   -8.92 KCAL/MOL
REMARK 923 INTER-LIGAND FREE ENERGY PREDICTED BY IDOCK:   -8.48 KCAL/MOL
REMARK 924 INTRA-LIGAND FREE ENERGY PREDICTED BY IDOCK:   -0.45 KCAL/MOL
REMARK 927      BINDING AFFINITY PREDICTED BY RF-SCORE:    0.00 PKD
ROOT
HETATM    1  N   UNL     1     -12.365  16.361  74.389  1.00  0.00    -0.711 N  
HETATM    2  C   UNL     1     -13.209  16.057  73.360  1.00  0.00    -0.543 C  
HETATM    3  H1  UNL     1     -11.371  16.141  74.320  1.00  0.00     0.000 HD 
HETATM    4  H2  UNL     1     -12.729  16.809  75.230  1.00  0.00     0.000 HD 
HETATM    5  O   UNL     1     -14.405  16.321  73.443  1.00  0.00    -0.049 OA 
ENDROOT
BRANCH   2   6
HETATM    6  C   UNL     1     -12.583  15.445  72.213  1.00  0.00    -0.373 A  
HETATM    7  C   UNL     1     -12.847  14.243  71.584  1.00  0.00    -0.424 A  
HETATM    8  C   UNL     1     -11.965  14.155  70.481  1.00  0.00    -0.393 A  
HETATM    9  C   UNL     1     -11.738  13.226  69.450  1.00  0.00    -0.383 A  
HETATM   10  C   UNL     1     -10.737  13.449  68.485  1.00  0.00    -0.262 A  
HETATM   11  C   UNL     1      -9.979  14.629  68.599  1.00  0.00    -0.234 A  
HETATM   12  O   UNL     1     -11.559  16.091  71.567  1.00  0.00    -0.425 OA 
HETATM   13  C   UNL     1     -11.189  15.303  70.521  1.00  0.00    -0.310 A  
HETATM   14  C   UNL     1     -10.184  15.584  69.608  1.00  0.00    -0.289 A  
BRANCH  10  15
HETATM   15  N   UNL     1     -10.491  12.528  67.487  1.00  0.00    -0.218 NA 
HETATM   16  C   UNL     1     -11.572  11.864  66.743  1.00  0.00    -0.268 C  
HETATM   17  N   UNL     1      -9.950  11.344  64.852  1.00  0.00    -0.252 NA 
HETATM   18  C   UNL     1     -11.269  11.915  65.229  1.00  0.00    -0.295 C  
HETATM   19  C   UNL     1      -9.130  12.065  67.167  1.00  0.00    -0.186 C  
HETATM   20  C   UNL     1      -8.914  12.065  65.633  1.00  0.00     0.175 C  
BRANCH  17  21
HETATM   21  C   UNL     1      -9.875   9.895  65.096  1.00  0.00    -0.278 C  
BRANCH  21  22
HETATM   22  C   UNL     1      -8.540   9.456  65.714  1.00  0.00    -0.161 C  
BRANCH  22  23
HETATM   23  C   UNL     1      -8.688   8.406  66.819  1.00  0.00    -0.138 C  
BRANCH  23  24
HETATM   24  C   UNL     1      -9.391   7.148  66.310  1.00  0.00    -0.154 C  
BRANCH  24  25
HETATM   25  C   UNL     1      -9.240   5.997  67.242  1.00  0.00    -0.114 A  
HETATM   26  C   UNL     1      -8.602   4.802  66.972  1.00  0.00    -0.104 A  
HETATM   27  N   UNL     1      -8.708   4.005  68.078  1.00  0.00    -0.097 NA 
HETATM   28  H   UNL     1      -8.326   3.063  68.154  1.00  0.00     0.000 HD 
HETATM   29  C   UNL     1      -9.403   4.654  69.071  1.00  0.00    -0.142 A  
HETATM   30  C   UNL     1      -9.743   5.912  68.579  1.00  0.00    -0.151 A  
HETATM   31  C   UNL     1     -10.463   6.797  69.415  1.00  0.00    -0.244 A  
HETATM   32  C   UNL     1     -10.828   6.384  70.702  1.00  0.00    -0.331 A  
HETATM   33  C   UNL     1     -10.475   5.112  71.162  1.00  0.00    -0.240 A  
HETATM   34  C   UNL     1     -11.568   7.274  71.552  1.00  0.00    -0.275 C  
HETATM   35  N   UNL     1     -12.170   7.987  72.244  1.00  0.00    -0.330 NA 
HETATM   36  C   UNL     1      -9.754   4.224  70.355  1.00  0.00    -0.280 A  
ENDBRANCH  24  25
ENDBRANCH  23  24
ENDBRANCH  22  23
ENDBRANCH  21  22
ENDBRANCH  17  21
ENDBRANCH  10  15
ENDBRANCH   2   6
TORSDOF 7
ENDMDL
MODEL      110
REMARK 921   NORMALIZED FREE ENERGY PREDICTED BY IDOCK:   -5.39 KCAL/MOL
REMARK 922        TOTAL FREE ENERGY PREDICTED BY IDOCK:   -8.88 KCAL/MOL
REMARK 923 INTER-LIGAND FREE ENERGY PREDICTED BY IDOCK:   -7.87 KCAL/MOL
REMARK 924 INTRA-LIGAND FREE ENERGY PREDICTED BY IDOCK:   -1.01 KCAL/MOL
REMARK 927      BINDING AFFINITY PREDICTED BY RF-SCORE:    0.00 PKD
ROOT
HETATM    1  N   UNL     1     -10.445  17.489  65.966  1.00  0.00    -0.335 N  
HETATM    2  C   UNL     1     -10.797  16.453  65.148  1.00  0.00    -0.275 C  
HETATM    3  H1  UNL     1      -9.986  17.305  66.857  1.00  0.00     0.000 HD 
HETATM    4  H2  UNL     1     -10.643  18.449  65.683  1.00  0.00     0.000 HD 
HETATM    5  O   UNL     1     -11.349  16.673  64.075  1.00  0.00    -1.120 OA 
ENDROOT
BRANCH   2   6
HETATM    6  C   UNL     1     -10.450  15.141  65.637  1.00  0.00    -0.359 A  
HETATM    7  C   UNL     1     -10.949  13.898  65.298  1.00  0.00    -0.331 A  
HETATM    8  C   UNL     1     -10.222  12.944  66.049  1.00  0.00    -0.293 A  
HETATM    9  C   UNL     1     -10.217  11.542  66.152  1.00  0.00    -0.272 A  
HETATM   10  C   UNL     1      -9.341  10.887  67.039  1.00  0.00    -0.163 A  
HETATM   11  C   UNL     1      -8.481  11.691  67.811  1.00  0.00    -0.144 A  
HETATM   12  O   UNL     1      -9.467  15.002  66.585  1.00  0.00    -0.236 OA 
HETATM   13  C   UNL     1      -9.336  13.669  66.830  1.00  0.00    -0.257 A  
HETATM   14  C   UNL     1      -8.450  13.092  67.726  1.00  0.00    -0.188 A  
BRANCH  10  15
HETATM   15  N   UNL     1      -9.350   9.512  67.166  1.00  0.00    -0.140 NA 
HETATM   16  C   UNL     1      -8.489   8.802  68.124  1.00  0.00    -0.130 C  
HETATM   17  N   UNL     1     -10.048   6.794  68.035  1.00  0.00    -0.151 NA 
HETATM   18  C   UNL     1      -9.324   7.760  68.900  1.00  0.00    -0.146 C  
HETATM   19  C   UNL     1     -10.146   8.649  66.276  1.00  0.00    -0.145 C  
HETATM   20  C   UNL     1     -10.898   7.578  67.105  1.00  0.00    -0.228 C  
BRANCH  17  21
HETATM   21  C   UNL     1      -9.135   5.911  67.292  1.00  0.00    -0.111 C  
BRANCH  21  22
HETATM   22  C   UNL     1      -8.527   4.802  68.162  1.00  0.00    -0.102 C  
BRANCH  22  23
HETATM   23  C   UNL     1      -9.559   3.815  68.712  1.00  0.00    -0.172 C  
BRANCH  23  24
HETATM   24  C   UNL     1      -8.917   2.788  69.643  1.00  0.00    -0.169 C  
BRANCH  24  25
HETATM   25  C   UNL     1      -9.520   2.799  71.005  1.00  0.00    -0.226 A  
HETATM   26  C   UNL     1     -10.029   1.710  71.684  1.00  0.00    -0.137 A  
HETATM   27  N   UNL     1     -10.510   2.148  72.887  1.00  0.00    -0.147 NA 
HETATM   28  H   UNL     1     -10.945   1.553  73.591  1.00  0.00     0.000 HD 
HETATM   29  C   UNL     1     -10.324   3.505  73.012  1.00  0.00    -0.165 A  
HETATM   30  C   UNL     1      -9.696   3.941  71.849  1.00  0.00    -0.239 A  
HETATM   31  C   UNL     1      -9.377   5.313  71.722  1.00  0.00    -0.175 A  
HETATM   32  C   UNL     1      -9.713   6.196  72.756  1.00  0.00    -0.165 A  
HETATM   33  C   UNL     1     -10.349   5.725  73.907  1.00  0.00    -0.286 A  
HETATM   34  C   UNL     1      -9.402   7.592  72.629  1.00  0.00    -0.172 C  
HETATM   35  N   UNL     1      -9.156   8.723  72.532  1.00  0.00    -0.353 NA 
HETATM   36  C   UNL     1     -10.665   4.369  74.058  1.00  0.00    -0.334 A  
ENDBRANCH  24  25
ENDBRANCH  23  24
ENDBRANCH  22  23
ENDBRANCH  21  22
ENDBRANCH  17  21
ENDBRANCH  10  15
ENDBRANCH   2   6
TORSDOF 7
ENDMDL
MODEL      111
REMARK 921   NORMALIZED FREE ENERGY PREDICTED BY IDOCK:   -5.38 KCAL/MOL
REMARK 922        TOTAL FREE ENERGY PREDICTED BY IDOCK:   -8.86 KCAL/MOL
REMARK 923 INTER-LIGAND FREE ENERGY PREDICTED BY IDOCK:   -7.89 KCAL/MOL
REMARK 924 INTRA-LIGAND FREE ENERGY PREDICTED BY IDOCK:   -0.97 KCAL/MOL
REMARK 927      BINDING AFFINITY PREDICTED BY RF-SCORE:    0.00 PKD
ROOT
HETATM    1  N   UNL     1      -8.798  19.773  68.391  1.00  0.00    -0.297 N  
HETATM    2  C   UNL     1      -9.885  19.053  67.986  1.00  0.00    -0.352 C  
HETATM    3  H1  UNL     1      -7.928  19.298  68.632  1.00  0.00     0.000 HD 
HETATM    4  H2  UNL     1      -8.855  20.789  68.451  1.00  0.00     0.000 HD 
HETATM    5  O   UNL     1     -10.932  19.625  67.696  1.00  0.00    -0.380 OA 
ENDROOT
BRANCH   2   6
HETATM    6  C   UNL     1      -9.685  17.626  67.917  1.00  0.00    -0.295 A  
HETATM    7  C   UNL     1     -10.278  16.676  67.107  1.00  0.00    -0.290 A  
HETATM    8  C   UNL     1      -9.679  15.434  67.424  1.00  0.00    -0.215 A  
HETATM    9  C   UNL     1      -9.808  14.112  66.962  1.00  0.00    -0.258 A  
HETATM   10  C   UNL     1      -9.040  13.074  67.523  1.00  0.00    -0.191 A  
HETATM   11  C   UNL     1      -8.149  13.414  68.558  1.00  0.00    -0.105 A  
HETATM   12  O   UNL     1      -8.766  17.023  68.740  1.00  0.00    -0.263 OA 
HETATM   13  C   UNL     1      -8.770  15.696  68.437  1.00  0.00    -0.178 A  
HETATM   14  C   UNL     1      -7.985  14.724  69.038  1.00  0.00    -0.152 A  
BRANCH  10  15
HETATM   15  N   UNL     1      -9.181  11.770  67.093  1.00  0.00    -0.175 NA 
HETATM   16  C   UNL     1      -9.048  10.621  68.001  1.00  0.00    -0.147 C  
HETATM   17  N   UNL     1     -10.371   9.181  66.373  1.00  0.00    -0.223 NA 
HETATM   18  C   UNL     1     -10.221   9.642  67.778  1.00  0.00    -0.205 C  
HETATM   19  C   UNL     1      -9.371  11.430  65.672  1.00  0.00    -0.222 C  
HETATM   20  C   UNL     1     -10.507  10.388  65.520  1.00  0.00    -0.122 C  
BRANCH  17  21
HETATM   21  C   UNL     1      -9.238   8.353  65.930  1.00  0.00    -0.155 C  
BRANCH  21  22
HETATM   22  C   UNL     1      -8.972   7.153  66.850  1.00  0.00    -0.145 C  
BRANCH  22  23
HETATM   23  C   UNL     1      -9.376   5.808  66.242  1.00  0.00    -0.171 C  
BRANCH  23  24
HETATM   24  C   UNL     1     -10.450   5.112  67.076  1.00  0.00    -0.256 C  
BRANCH  24  25
HETATM   25  C   UNL     1     -10.013   4.871  68.479  1.00  0.00    -0.185 A  
HETATM   26  C   UNL     1      -8.988   4.040  68.886  1.00  0.00    -0.116 A  
HETATM   27  N   UNL     1      -8.927   4.079  70.251  1.00  0.00    -0.087 NA 
HETATM   28  H   UNL     1      -8.261   3.556  70.819  1.00  0.00     0.000 HD 
HETATM   29  C   UNL     1      -9.893   4.921  70.749  1.00  0.00    -0.215 A  
HETATM   30  C   UNL     1     -10.586   5.441  69.660  1.00  0.00    -0.328 A  
HETATM   31  C   UNL     1     -11.639   6.355  69.896  1.00  0.00    -0.422 A  
HETATM   32  C   UNL     1     -11.967   6.700  71.213  1.00  0.00    -0.409 A  
HETATM   33  C   UNL     1     -11.255   6.154  72.284  1.00  0.00    -0.334 A  
HETATM   34  C   UNL     1     -13.042   7.619  71.461  1.00  0.00    -0.338 C  
HETATM   35  N   UNL     1     -13.913   8.359  71.669  1.00  0.00    -0.400 NA 
HETATM   36  C   UNL     1     -10.202   5.256  72.072  1.00  0.00    -0.259 A  
ENDBRANCH  24  25
ENDBRANCH  23  24
ENDBRANCH  22  23
ENDBRANCH  21  22
ENDBRANCH  17  21
ENDBRANCH  10  15
ENDBRANCH   2   6
TORSDOF 7
ENDMDL
MODEL      112
REMARK 921   NORMALIZED FREE ENERGY PREDICTED BY IDOCK:   -5.37 KCAL/MOL
REMARK 922        TOTAL FREE ENERGY PREDICTED BY IDOCK:   -8.84 KCAL/MOL
REMARK 923 INTER-LIGAND FREE ENERGY PREDICTED BY IDOCK:   -7.94 KCAL/MOL
REMARK 924 INTRA-LIGAND FREE ENERGY PREDICTED BY IDOCK:   -0.90 KCAL/MOL
REMARK 927      BINDING AFFINITY PREDICTED BY RF-SCORE:    0.00 PKD
ROOT
HETATM    1  N   UNL     1      -8.202   3.467  63.388  1.00  0.00    -0.088 N  
HETATM    2  C   UNL     1      -8.201   3.912  64.679  1.00  0.00    -0.097 C  
HETATM    3  H1  UNL     1      -8.264   4.131  62.616  1.00  0.00     0.000 HD 
HETATM    4  H2  UNL     1      -8.140   2.468  63.195  1.00  0.00     0.000 HD 
HETATM    5  O   UNL     1      -8.126   3.113  65.607  1.00  0.00    -0.085 OA 
ENDROOT
BRANCH   2   6
HETATM    6  C   UNL     1      -8.271   5.345  64.834  1.00  0.00    -0.138 A  
HETATM    7  C   UNL     1      -8.658   6.111  65.917  1.00  0.00    -0.147 A  
HETATM    8  C   UNL     1      -8.493   7.465  65.542  1.00  0.00    -0.126 A  
HETATM    9  C   UNL     1      -8.678   8.709  66.171  1.00  0.00    -0.180 A  
HETATM   10  C   UNL     1      -8.421   9.911  65.483  1.00  0.00    -0.140 A  
HETATM   11  C   UNL     1      -7.979   9.812  64.150  1.00  0.00    -0.143 A  
HETATM   12  O   UNL     1      -7.902   6.164  63.796  1.00  0.00    -0.104 OA 
HETATM   13  C   UNL     1      -8.041   7.446  64.232  1.00  0.00    -0.055 A  
HETATM   14  C   UNL     1      -7.773   8.588  63.493  1.00  0.00    -0.142 A  
BRANCH  10  15
HETATM   15  N   UNL     1      -8.627  11.136  66.085  1.00  0.00    -0.176 NA 
HETATM   16  C   UNL     1      -9.667  12.072  65.634  1.00  0.00    -0.223 C  
HETATM   17  N   UNL     1      -9.616  13.221  67.903  1.00  0.00    -0.210 NA 
HETATM   18  C   UNL     1     -10.459  12.597  66.851  1.00  0.00    -0.233 C  
HETATM   19  C   UNL     1      -7.750  11.638  67.157  1.00  0.00    -0.159 C  
HETATM   20  C   UNL     1      -8.600  12.220  68.313  1.00  0.00    -0.172 C  
BRANCH  17  21
HETATM   21  C   UNL     1      -8.972  14.462  67.444  1.00  0.00    -0.199 C  
BRANCH  21  22
HETATM   22  C   UNL     1      -9.511  15.717  68.146  1.00  0.00    -0.195 C  
BRANCH  22  23
HETATM   23  C   UNL     1     -10.237  15.424  69.461  1.00  0.00    -0.273 C  
BRANCH  23  24
HETATM   24  C   UNL     1     -11.748  15.605  69.324  1.00  0.00    -0.388 C  
BRANCH  24  25
HETATM   25  C   UNL     1     -12.506  14.886  70.385  1.00  0.00    -0.403 A  
HETATM   26  C   UNL     1     -13.359  15.454  71.310  1.00  0.00    -0.520 A  
HETATM   27  N   UNL     1     -13.830  14.458  72.119  1.00  0.00    -0.434 NA 
HETATM   28  H   UNL     1     -14.480  14.596  72.893  1.00  0.00     0.000 HD 
HETATM   29  C   UNL     1     -13.303  13.245  71.743  1.00  0.00    -0.393 A  
HETATM   30  C   UNL     1     -12.474  13.480  70.650  1.00  0.00    -0.405 A  
HETATM   31  C   UNL     1     -11.806  12.385  70.054  1.00  0.00    -0.363 A  
HETATM   32  C   UNL     1     -11.983  11.100  70.586  1.00  0.00    -0.459 A  
HETATM   33  C   UNL     1     -12.818  10.902  71.688  1.00  0.00    -0.554 A  
HETATM   34  C   UNL     1     -11.300   9.985  69.992  1.00  0.00    -0.275 C  
HETATM   35  N   UNL     1     -10.749   9.079  69.520  1.00  0.00    -0.227 NA 
HETATM   36  C   UNL     1     -13.496  11.971  72.286  1.00  0.00    -0.239 A  
ENDBRANCH  24  25
ENDBRANCH  23  24
ENDBRANCH  22  23
ENDBRANCH  21  22
ENDBRANCH  17  21
ENDBRANCH  10  15
ENDBRANCH   2   6
TORSDOF 7
ENDMDL
MODEL      113
REMARK 921   NORMALIZED FREE ENERGY PREDICTED BY IDOCK:   -5.36 KCAL/MOL
REMARK 922        TOTAL FREE ENERGY PREDICTED BY IDOCK:   -8.83 KCAL/MOL
REMARK 923 INTER-LIGAND FREE ENERGY PREDICTED BY IDOCK:   -8.08 KCAL/MOL
REMARK 924 INTRA-LIGAND FREE ENERGY PREDICTED BY IDOCK:   -0.75 KCAL/MOL
REMARK 927      BINDING AFFINITY PREDICTED BY RF-SCORE:    0.00 PKD
ROOT
HETATM    1  N   UNL     1     -12.150  16.476  71.759  1.00  0.00    -0.565 N  
HETATM    2  C   UNL     1     -13.004  15.570  71.197  1.00  0.00    -0.496 C  
HETATM    3  H1  UNL     1     -11.158  16.460  71.525  1.00  0.00     0.000 HD 
HETATM    4  H2  UNL     1     -12.507  17.170  72.416  1.00  0.00     0.000 HD 
HETATM    5  O   UNL     1     -14.198  15.589  71.479  1.00  0.00    -0.489 OA 
ENDROOT
BRANCH   2   6
HETATM    6  C   UNL     1     -12.396  14.649  70.268  1.00  0.00    -0.349 A  
HETATM    7  C   UNL     1     -11.704  13.475  70.493  1.00  0.00    -0.144 A  
HETATM    8  C   UNL     1     -11.366  12.947  69.225  1.00  0.00    -0.303 A  
HETATM    9  C   UNL     1     -10.702  11.797  68.762  1.00  0.00    -0.255 A  
HETATM   10  C   UNL     1     -10.520  11.575  67.383  1.00  0.00    -0.209 A  
HETATM   11  C   UNL     1     -11.025  12.546  66.499  1.00  0.00    -0.303 A  
HETATM   12  O   UNL     1     -12.477  14.887  68.918  1.00  0.00    -0.051 OA 
HETATM   13  C   UNL     1     -11.849  13.853  68.293  1.00  0.00    -0.376 A  
HETATM   14  C   UNL     1     -11.702  13.700  66.923  1.00  0.00    -0.423 A  
BRANCH  10  15
HETATM   15  N   UNL     1      -9.845  10.462  66.923  1.00  0.00    -0.184 NA 
HETATM   16  C   UNL     1      -9.367  10.346  65.537  1.00  0.00    -0.197 C  
HETATM   17  N   UNL     1      -7.685   8.581  66.266  1.00  0.00    -0.093 NA 
HETATM   18  C   UNL     1      -7.903   9.854  65.531  1.00  0.00    -0.126 C  
HETATM   19  C   UNL     1      -9.647   9.265  67.759  1.00  0.00    -0.142 C  
HETATM   20  C   UNL     1      -8.182   8.775  67.651  1.00  0.00    -0.110 C  
BRANCH  17  21
HETATM   21  C   UNL     1      -8.358   7.440  65.624  1.00  0.00    -0.140 C  
BRANCH  21  22
HETATM   22  C   UNL     1      -7.647   6.103  65.872  1.00  0.00    -0.087 C  
BRANCH  22  23
HETATM   23  C   UNL     1      -7.934   5.498  67.249  1.00  0.00    -0.101 C  
BRANCH  23  24
HETATM   24  C   UNL     1      -9.318   4.854  67.304  1.00  0.00    -0.142 C  
BRANCH  24  25
HETATM   25  C   UNL     1     -10.162   5.411  68.397  1.00  0.00    -0.229 A  
HETATM   26  C   UNL     1     -11.119   6.398  68.270  1.00  0.00    -0.267 A  
HETATM   27  N   UNL     1     -11.645   6.640  69.509  1.00  0.00    -0.640 NA 
HETATM   28  H   UNL     1     -12.374   7.325  69.708  1.00  0.00     0.000 HD 
HETATM   29  C   UNL     1     -11.052   5.828  70.447  1.00  0.00    -0.217 A  
HETATM   30  C   UNL     1     -10.122   5.038  69.777  1.00  0.00    -0.337 A  
HETATM   31  C   UNL     1      -9.370   4.096  70.518  1.00  0.00    -0.211 A  
HETATM   32  C   UNL     1      -9.568   3.993  71.901  1.00  0.00    -0.217 A  
HETATM   33  C   UNL     1     -10.506   4.806  72.542  1.00  0.00    -0.264 A  
HETATM   34  C   UNL     1      -8.801   3.046  72.660  1.00  0.00    -0.083 C  
HETATM   35  N   UNL     1      -8.181   2.286  73.282  1.00  0.00    -0.054 NA 
HETATM   36  C   UNL     1     -11.268   5.738  71.827  1.00  0.00    -0.275 A  
ENDBRANCH  24  25
ENDBRANCH  23  24
ENDBRANCH  22  23
ENDBRANCH  21  22
ENDBRANCH  17  21
ENDBRANCH  10  15
ENDBRANCH   2   6
TORSDOF 7
ENDMDL
MODEL      114
REMARK 921   NORMALIZED FREE ENERGY PREDICTED BY IDOCK:   -5.36 KCAL/MOL
REMARK 922        TOTAL FREE ENERGY PREDICTED BY IDOCK:   -8.82 KCAL/MOL
REMARK 923 INTER-LIGAND FREE ENERGY PREDICTED BY IDOCK:   -7.68 KCAL/MOL
REMARK 924 INTRA-LIGAND FREE ENERGY PREDICTED BY IDOCK:   -1.14 KCAL/MOL
REMARK 927      BINDING AFFINITY PREDICTED BY RF-SCORE:    0.00 PKD
ROOT
HETATM    1  N   UNL     1     -11.406  15.243  64.496  1.00  0.00    -0.653 N  
HETATM    2  C   UNL     1     -11.732  14.324  65.452  1.00  0.00    -0.354 C  
HETATM    3  H1  UNL     1     -10.696  15.026  63.797  1.00  0.00     0.000 HD 
HETATM    4  H2  UNL     1     -11.875  16.148  64.481  1.00  0.00     0.000 HD 
HETATM    5  O   UNL     1     -12.587  14.584  66.293  1.00  0.00    -0.274 OA 
ENDROOT
BRANCH   2   6
HETATM    6  C   UNL     1     -11.023  13.070  65.365  1.00  0.00    -0.275 A  
HETATM    7  C   UNL     1     -10.804  12.096  66.321  1.00  0.00    -0.317 A  
HETATM    8  C   UNL     1     -10.087  11.054  65.688  1.00  0.00    -0.310 A  
HETATM    9  C   UNL     1      -9.588   9.799  66.081  1.00  0.00    -0.287 A  
HETATM   10  C   UNL     1      -8.883   8.986  65.171  1.00  0.00    -0.182 A  
HETATM   11  C   UNL     1      -8.702   9.482  63.866  1.00  0.00    -0.238 A  
HETATM   12  O   UNL     1     -10.448  12.690  64.178  1.00  0.00    -0.368 OA 
HETATM   13  C   UNL     1      -9.883  11.469  64.382  1.00  0.00    -0.241 A  
HETATM   14  C   UNL     1      -9.196  10.724  63.436  1.00  0.00    -0.283 A  
BRANCH  10  15
HETATM   15  N   UNL     1      -8.367   7.766  65.557  1.00  0.00    -0.143 NA 
HETATM   16  C   UNL     1      -7.879   6.774  64.588  1.00  0.00    -0.116 C  
HETATM   17  N   UNL     1      -6.489   5.675  66.414  1.00  0.00    -0.042 NA 
HETATM   18  C   UNL     1      -6.502   6.239  65.040  1.00  0.00    -0.038 C  
HETATM   19  C   UNL     1      -8.365   7.326  66.963  1.00  0.00    -0.118 C  
HETATM   20  C   UNL     1      -6.984   6.730  67.333  1.00  0.00    -0.082 C  
BRANCH  17  21
HETATM   21  C   UNL     1      -7.305   4.456  66.529  1.00  0.00    -0.081 C  
BRANCH  21  22
HETATM   22  C   UNL     1      -7.465   3.971  67.977  1.00  0.00    -0.067 C  
BRANCH  22  23
HETATM   23  C   UNL     1      -8.885   3.514  68.320  1.00  0.00    -0.156 C  
BRANCH  23  24
HETATM   24  C   UNL     1      -9.831   4.700  68.500  1.00  0.00    -0.181 C  
BRANCH  24  25
HETATM   25  C   UNL     1     -10.148   4.964  69.931  1.00  0.00    -0.332 A  
HETATM   26  C   UNL     1     -10.020   4.070  70.976  1.00  0.00    -0.106 A  
HETATM   27  N   UNL     1     -10.437   4.692  72.119  1.00  0.00    -0.181 NA 
HETATM   28  H   UNL     1     -10.452   4.262  73.044  1.00  0.00     0.000 HD 
HETATM   29  C   UNL     1     -10.835   5.979  71.846  1.00  0.00    -0.254 A  
HETATM   30  C   UNL     1     -10.656   6.183  70.480  1.00  0.00    -0.312 A  
HETATM   31  C   UNL     1     -10.984   7.445  69.932  1.00  0.00    -0.239 A  
HETATM   32  C   UNL     1     -11.492   8.447  70.768  1.00  0.00    -0.277 A  
HETATM   33  C   UNL     1     -11.665   8.207  72.133  1.00  0.00    -0.418 A  
HETATM   34  C   UNL     1     -11.836   9.727  70.216  1.00  0.00    -0.144 C  
HETATM   35  N   UNL     1     -12.121  10.763  69.776  1.00  0.00    -0.323 NA 
HETATM   36  C   UNL     1     -11.338   6.968  72.699  1.00  0.00    -0.290 A  
ENDBRANCH  24  25
ENDBRANCH  23  24
ENDBRANCH  22  23
ENDBRANCH  21  22
ENDBRANCH  17  21
ENDBRANCH  10  15
ENDBRANCH   2   6
TORSDOF 7
ENDMDL
MODEL      115
REMARK 921   NORMALIZED FREE ENERGY PREDICTED BY IDOCK:   -5.34 KCAL/MOL
REMARK 922        TOTAL FREE ENERGY PREDICTED BY IDOCK:   -8.81 KCAL/MOL
REMARK 923 INTER-LIGAND FREE ENERGY PREDICTED BY IDOCK:   -7.86 KCAL/MOL
REMARK 924 INTRA-LIGAND FREE ENERGY PREDICTED BY IDOCK:   -0.95 KCAL/MOL
REMARK 927      BINDING AFFINITY PREDICTED BY RF-SCORE:    0.00 PKD
ROOT
HETATM    1  N   UNL     1      -6.690   3.626  65.827  1.00  0.00    -0.044 N  
HETATM    2  C   UNL     1      -6.555   4.309  64.652  1.00  0.00    -0.043 C  
HETATM    3  H1  UNL     1      -7.205   4.038  66.604  1.00  0.00     0.000 HD 
HETATM    4  H2  UNL     1      -6.274   2.700  65.927  1.00  0.00     0.000 HD 
HETATM    5  O   UNL     1      -5.936   3.812  63.716  1.00  0.00    -0.014 OA 
ENDROOT
BRANCH   2   6
HETATM    6  C   UNL     1      -7.201   5.598  64.614  1.00  0.00    -0.062 A  
HETATM    7  C   UNL     1      -7.676   6.393  65.640  1.00  0.00    -0.094 A  
HETATM    8  C   UNL     1      -8.175   7.576  65.046  1.00  0.00    -0.105 A  
HETATM    9  C   UNL     1      -8.757   8.766  65.518  1.00  0.00    -0.217 A  
HETATM   10  C   UNL     1      -9.166   9.774  64.623  1.00  0.00    -0.255 A  
HETATM   11  C   UNL     1      -8.971   9.537  63.249  1.00  0.00    -0.208 A  
HETATM   12  O   UNL     1      -7.409   6.224  63.410  1.00  0.00    -0.053 OA 
HETATM   13  C   UNL     1      -8.001   7.420  63.680  1.00  0.00    -0.074 A  
HETATM   14  C   UNL     1      -8.384   8.367  62.743  1.00  0.00    -0.134 A  
BRANCH  10  15
HETATM   15  N   UNL     1      -9.762  10.932  65.078  1.00  0.00    -0.246 NA 
HETATM   16  C   UNL     1      -9.338  11.605  66.315  1.00  0.00    -0.216 C  
HETATM   17  N   UNL     1     -10.385  13.773  65.494  1.00  0.00    -0.308 NA 
HETATM   18  C   UNL     1      -9.175  13.119  66.055  1.00  0.00     0.098 C  
HETATM   19  C   UNL     1     -10.937  11.521  64.413  1.00  0.00    -0.324 C  
HETATM   20  C   UNL     1     -10.748  13.049  64.250  1.00  0.00    -0.407 C  
BRANCH  17  21
HETATM   21  C   UNL     1     -11.510  13.780  66.442  1.00  0.00    -0.336 C  
BRANCH  21  22
HETATM   22  C   UNL     1     -11.063  13.866  67.909  1.00  0.00    -0.278 C  
BRANCH  22  23
HETATM   23  C   UNL     1     -12.154  14.366  68.858  1.00  0.00    -0.288 C  
BRANCH  23  24
HETATM   24  C   UNL     1     -11.723  14.258  70.320  1.00  0.00    -0.343 C  
BRANCH  24  25
HETATM   25  C   UNL     1     -12.466  13.198  71.055  1.00  0.00    -0.406 A  
HETATM   26  C   UNL     1     -13.478  13.394  71.974  1.00  0.00    -0.494 A  
HETATM   27  N   UNL     1     -13.875  12.170  72.436  1.00  0.00    -0.349 NA 
HETATM   28  H   UNL     1     -14.609  12.019  73.127  1.00  0.00     0.000 HD 
HETATM   29  C   UNL     1     -13.143  11.172  71.836  1.00  0.00    -0.408 A  
HETATM   30  C   UNL     1     -12.256  11.786  70.956  1.00  0.00    -0.303 A  
HETATM   31  C   UNL     1     -11.383  10.975  70.194  1.00  0.00    -0.335 A  
HETATM   32  C   UNL     1     -11.421   9.584  70.355  1.00  0.00    -0.297 A  
HETATM   33  C   UNL     1     -12.320   9.001  71.251  1.00  0.00    -0.361 A  
HETATM   34  C   UNL     1     -10.531   8.755  69.592  1.00  0.00    -0.220 C  
HETATM   35  N   UNL     1      -9.810   8.079  68.981  1.00  0.00    -0.174 NA 
HETATM   36  C   UNL     1     -13.200   9.785  72.008  1.00  0.00    -0.557 A  
ENDBRANCH  24  25
ENDBRANCH  23  24
ENDBRANCH  22  23
ENDBRANCH  21  22
ENDBRANCH  17  21
ENDBRANCH  10  15
ENDBRANCH   2   6
TORSDOF 7
ENDMDL
MODEL      116
REMARK 921   NORMALIZED FREE ENERGY PREDICTED BY IDOCK:   -5.34 KCAL/MOL
REMARK 922        TOTAL FREE ENERGY PREDICTED BY IDOCK:   -8.81 KCAL/MOL
REMARK 923 INTER-LIGAND FREE ENERGY PREDICTED BY IDOCK:   -7.69 KCAL/MOL
REMARK 924 INTRA-LIGAND FREE ENERGY PREDICTED BY IDOCK:   -1.11 KCAL/MOL
REMARK 927      BINDING AFFINITY PREDICTED BY RF-SCORE:    0.00 PKD
ROOT
HETATM    1  N   UNL     1     -13.508  14.813  72.917  1.00  0.00    -0.472 N  
HETATM    2  C   UNL     1     -13.296  14.699  71.572  1.00  0.00    -0.364 C  
HETATM    3  H1  UNL     1     -13.336  14.019  73.533  1.00  0.00     0.000 HD 
HETATM    4  H2  UNL     1     -13.840  15.696  73.305  1.00  0.00     0.000 HD 
HETATM    5  O   UNL     1     -13.503  15.654  70.831  1.00  0.00    -0.569 OA 
ENDROOT
BRANCH   2   6
HETATM    6  C   UNL     1     -12.806  13.413  71.136  1.00  0.00    -0.291 A  
HETATM    7  C   UNL     1     -12.072  13.066  70.019  1.00  0.00    -0.367 A  
HETATM    8  C   UNL     1     -11.824  11.676  70.105  1.00  0.00    -0.428 A  
HETATM    9  C   UNL     1     -11.133  10.731  69.326  1.00  0.00    -0.312 A  
HETATM   10  C   UNL     1     -11.091   9.375  69.706  1.00  0.00    -0.172 A  
HETATM   11  C   UNL     1     -11.766   9.013  70.887  1.00  0.00    -0.327 A  
HETATM   12  O   UNL     1     -13.049  12.295  71.896  1.00  0.00    -0.432 OA 
HETATM   13  C   UNL     1     -12.453  11.248  71.264  1.00  0.00    -0.336 A  
HETATM   14  C   UNL     1     -12.456   9.930  71.696  1.00  0.00    -0.507 A  
BRANCH  10  15
HETATM   15  N   UNL     1     -10.438   8.437  68.932  1.00  0.00    -0.213 NA 
HETATM   16  C   UNL     1     -10.794   7.010  68.955  1.00  0.00    -0.167 C  
HETATM   17  N   UNL     1      -9.702   6.704  66.677  1.00  0.00    -0.171 NA 
HETATM   18  C   UNL     1     -10.913   6.481  67.509  1.00  0.00    -0.359 C  
HETATM   19  C   UNL     1      -9.268   8.781  68.106  1.00  0.00    -0.140 C  
HETATM   20  C   UNL     1      -9.410   8.159  66.695  1.00  0.00    -0.197 C  
BRANCH  17  21
HETATM   21  C   UNL     1      -8.543   5.932  67.155  1.00  0.00    -0.106 C  
BRANCH  21  22
HETATM   22  C   UNL     1      -8.483   4.512  66.573  1.00  0.00    -0.109 C  
BRANCH  22  23
HETATM   23  C   UNL     1      -9.451   3.531  67.239  1.00  0.00    -0.228 C  
BRANCH  23  24
HETATM   24  C   UNL     1      -8.708   2.410  67.964  1.00  0.00    -0.135 C  
BRANCH  24  25
HETATM   25  C   UNL     1      -7.870   2.916  69.086  1.00  0.00    -0.052 A  
HETATM   26  C   UNL     1      -6.509   2.736  69.237  1.00  0.00    -0.029 A  
HETATM   27  N   UNL     1      -6.130   3.331  70.408  1.00  0.00    -0.019 NA 
HETATM   28  H   UNL     1      -5.177   3.349  70.770  1.00  0.00     0.000 HD 
HETATM   29  C   UNL     1      -7.217   3.902  71.028  1.00  0.00    -0.033 A  
HETATM   30  C   UNL     1      -8.323   3.666  70.217  1.00  0.00    -0.082 A  
HETATM   31  C   UNL     1      -9.583   4.163  70.623  1.00  0.00    -0.264 A  
HETATM   32  C   UNL     1      -9.690   4.862  71.832  1.00  0.00    -0.218 A  
HETATM   33  C   UNL     1      -8.560   5.076  72.625  1.00  0.00    -0.119 A  
HETATM   34  C   UNL     1     -10.968   5.360  72.256  1.00  0.00    -0.216 C  
HETATM   35  N   UNL     1     -11.999   5.762  72.607  1.00  0.00    -0.179 NA 
HETATM   36  C   UNL     1      -7.301   4.601  72.237  1.00  0.00    -0.081 A  
ENDBRANCH  24  25
ENDBRANCH  23  24
ENDBRANCH  22  23
ENDBRANCH  21  22
ENDBRANCH  17  21
ENDBRANCH  10  15
ENDBRANCH   2   6
TORSDOF 7
ENDMDL
MODEL      117
REMARK 921   NORMALIZED FREE ENERGY PREDICTED BY IDOCK:   -5.34 KCAL/MOL
REMARK 922        TOTAL FREE ENERGY PREDICTED BY IDOCK:   -8.80 KCAL/MOL
REMARK 923 INTER-LIGAND FREE ENERGY PREDICTED BY IDOCK:   -8.20 KCAL/MOL
REMARK 924 INTRA-LIGAND FREE ENERGY PREDICTED BY IDOCK:   -0.59 KCAL/MOL
REMARK 927      BINDING AFFINITY PREDICTED BY RF-SCORE:    0.00 PKD
ROOT
HETATM    1  N   UNL     1      -5.950   3.934  64.619  1.00  0.00    -0.021 N  
HETATM    2  C   UNL     1      -6.792   4.423  65.576  1.00  0.00    -0.057 C  
HETATM    3  H1  UNL     1      -5.792   4.457  63.758  1.00  0.00     0.000 HD 
HETATM    4  H2  UNL     1      -5.477   3.043  64.766  1.00  0.00     0.000 HD 
HETATM    5  O   UNL     1      -6.982   3.794  66.612  1.00  0.00    -0.056 OA 
ENDROOT
BRANCH   2   6
HETATM    6  C   UNL     1      -7.389   5.701  65.272  1.00  0.00    -0.072 A  
HETATM    7  C   UNL     1      -8.150   6.545  66.059  1.00  0.00    -0.121 A  
HETATM    8  C   UNL     1      -8.439   7.687  65.276  1.00  0.00    -0.090 A  
HETATM    9  C   UNL     1      -9.130   8.895  65.483  1.00  0.00    -0.248 A  
HETATM   10  C   UNL     1      -9.242   9.847  64.451  1.00  0.00    -0.264 A  
HETATM   11  C   UNL     1      -8.640   9.538  63.216  1.00  0.00    -0.217 A  
HETATM   12  O   UNL     1      -7.218   6.258  64.029  1.00  0.00    -0.054 OA 
HETATM   13  C   UNL     1      -7.858   7.459  64.039  1.00  0.00    -0.120 A  
HETATM   14  C   UNL     1      -7.933   8.349  62.978  1.00  0.00    -0.161 A  
BRANCH  10  15
HETATM   15  N   UNL     1      -9.943  11.021  64.637  1.00  0.00    -0.275 NA 
HETATM   16  C   UNL     1      -9.823  12.165  63.721  1.00  0.00    -0.234 C  
HETATM   17  N   UNL     1     -12.064  13.052  64.537  1.00  0.00    -0.387 NA 
HETATM   18  C   UNL     1     -11.229  12.693  63.361  1.00  0.00    -0.344 C  
HETATM   19  C   UNL     1     -10.781  11.253  65.827  1.00  0.00    -0.223 C  
HETATM   20  C   UNL     1     -12.146  11.854  65.408  1.00  0.00     0.141 C  
BRANCH  17  21
HETATM   21  C   UNL     1     -11.523  14.203  65.279  1.00  0.00    -0.330 C  
BRANCH  21  22
HETATM   22  C   UNL     1     -12.018  14.270  66.731  1.00  0.00    -0.462 C  
BRANCH  22  23
HETATM   23  C   UNL     1     -11.003  14.881  67.701  1.00  0.00    -0.300 C  
BRANCH  23  24
HETATM   24  C   UNL     1     -10.168  13.806  68.394  1.00  0.00    -0.248 C  
BRANCH  24  25
HETATM   25  C   UNL     1     -11.005  12.840  69.157  1.00  0.00    -0.185 A  
HETATM   26  C   UNL     1     -11.129  11.487  68.908  1.00  0.00    -0.232 A  
HETATM   27  N   UNL     1     -12.009  10.967  69.815  1.00  0.00    -0.328 NA 
HETATM   28  H   UNL     1     -12.289   9.988  69.860  1.00  0.00     0.000 HD 
HETATM   29  C   UNL     1     -12.466  11.953  70.658  1.00  0.00    -0.257 A  
HETATM   30  C   UNL     1     -11.846  13.140  70.276  1.00  0.00    -0.299 A  
HETATM   31  C   UNL     1     -12.136  14.322  70.996  1.00  0.00    -0.416 A  
HETATM   32  C   UNL     1     -13.047  14.273  72.059  1.00  0.00    -0.456 A  
HETATM   33  C   UNL     1     -13.656  13.067  72.412  1.00  0.00    -0.628 A  
HETATM   34  C   UNL     1     -13.354  15.472  72.788  1.00  0.00    -0.527 C  
HETATM   35  N   UNL     1     -13.610  16.438  73.379  1.00  0.00    -0.399 NA 
HETATM   36  C   UNL     1     -13.375  11.883  71.720  1.00  0.00    -0.334 A  
ENDBRANCH  24  25
ENDBRANCH  23  24
ENDBRANCH  22  23
ENDBRANCH  21  22
ENDBRANCH  17  21
ENDBRANCH  10  15
ENDBRANCH   2   6
TORSDOF 7
ENDMDL
MODEL      118
REMARK 921   NORMALIZED FREE ENERGY PREDICTED BY IDOCK:   -5.33 KCAL/MOL
REMARK 922        TOTAL FREE ENERGY PREDICTED BY IDOCK:   -8.78 KCAL/MOL
REMARK 923 INTER-LIGAND FREE ENERGY PREDICTED BY IDOCK:   -7.97 KCAL/MOL
REMARK 924 INTRA-LIGAND FREE ENERGY PREDICTED BY IDOCK:   -0.82 KCAL/MOL
REMARK 927      BINDING AFFINITY PREDICTED BY RF-SCORE:    0.00 PKD
ROOT
HETATM    1  N   UNL     1     -11.392   4.649  65.160  1.00  0.00    -0.966 N  
HETATM    2  C   UNL     1     -10.234   4.593  65.881  1.00  0.00    -0.276 C  
HETATM    3  H1  UNL     1     -11.791   5.550  64.897  1.00  0.00     0.000 HD 
HETATM    4  H2  UNL     1     -11.861   3.786  64.883  1.00  0.00     0.000 HD 
HETATM    5  O   UNL     1      -9.755   3.508  66.197  1.00  0.00    -0.140 OA 
ENDROOT
BRANCH   2   6
HETATM    6  C   UNL     1      -9.647   5.872  66.199  1.00  0.00    -0.076 A  
HETATM    7  C   UNL     1     -10.120   6.904  66.985  1.00  0.00    -0.287 A  
HETATM    8  C   UNL     1      -9.122   7.907  66.991  1.00  0.00    -0.162 A  
HETATM    9  C   UNL     1      -8.970   9.166  67.600  1.00  0.00    -0.130 A  
HETATM   10  C   UNL     1      -7.814   9.939  67.378  1.00  0.00    -0.098 A  
HETATM   11  C   UNL     1      -6.829   9.402  66.527  1.00  0.00    -0.083 A  
HETATM   12  O   UNL     1      -8.414   6.203  65.694  1.00  0.00    -0.143 OA 
HETATM   13  C   UNL     1      -8.104   7.437  66.177  1.00  0.00    -0.117 A  
HETATM   14  C   UNL     1      -6.942   8.145  65.911  1.00  0.00    -0.060 A  
BRANCH  10  15
HETATM   15  N   UNL     1      -7.669  11.187  67.950  1.00  0.00    -0.102 NA 
HETATM   16  C   UNL     1      -7.321  11.370  69.367  1.00  0.00     0.015 C  
HETATM   17  N   UNL     1      -6.495  13.722  68.859  1.00  0.00    -0.094 NA 
HETATM   18  C   UNL     1      -6.190  12.414  69.494  1.00  0.00    -0.126 C  
HETATM   19  C   UNL     1      -7.958  12.426  67.208  1.00  0.00    -0.178 C  
HETATM   20  C   UNL     1      -6.828  13.460  67.436  1.00  0.00    -0.066 C  
BRANCH  17  21
HETATM   21  C   UNL     1      -7.595  14.430  69.532  1.00  0.00     0.083 C  
BRANCH  21  22
HETATM   22  C   UNL     1      -8.272  15.480  68.640  1.00  0.00    -0.162 C  
BRANCH  22  23
HETATM   23  C   UNL     1      -9.780  15.606  68.870  1.00  0.00    -0.220 C  
BRANCH  23  24
HETATM   24  C   UNL     1     -10.570  14.680  67.947  1.00  0.00    -0.244 C  
BRANCH  24  25
HETATM   25  C   UNL     1     -11.209  13.553  68.683  1.00  0.00    -0.311 A  
HETATM   26  C   UNL     1     -11.317  12.248  68.247  1.00  0.00    -0.289 A  
HETATM   27  N   UNL     1     -11.991  11.537  69.201  1.00  0.00    -0.330 NA 
HETATM   28  H   UNL     1     -12.214  10.544  69.138  1.00  0.00     0.000 HD 
HETATM   29  C   UNL     1     -12.327  12.352  70.257  1.00  0.00    -0.188 A  
HETATM   30  C   UNL     1     -11.841  13.623  69.964  1.00  0.00    -0.378 A  
HETATM   31  C   UNL     1     -12.045  14.662  70.902  1.00  0.00    -0.393 A  
HETATM   32  C   UNL     1     -12.741  14.391  72.088  1.00  0.00    -0.401 A  
HETATM   33  C   UNL     1     -13.220  13.105  72.346  1.00  0.00    -0.519 A  
HETATM   34  C   UNL     1     -12.960  15.443  73.040  1.00  0.00    -0.488 C  
HETATM   35  N   UNL     1     -13.145  16.290  73.813  1.00  0.00    -0.673 NA 
HETATM   36  C   UNL     1     -13.020  12.060  71.436  1.00  0.00    -0.362 A  
ENDBRANCH  24  25
ENDBRANCH  23  24
ENDBRANCH  22  23
ENDBRANCH  21  22
ENDBRANCH  17  21
ENDBRANCH  10  15
ENDBRANCH   2   6
TORSDOF 7
ENDMDL
MODEL      119
REMARK 921   NORMALIZED FREE ENERGY PREDICTED BY IDOCK:   -5.30 KCAL/MOL
REMARK 922        TOTAL FREE ENERGY PREDICTED BY IDOCK:   -8.74 KCAL/MOL
REMARK 923 INTER-LIGAND FREE ENERGY PREDICTED BY IDOCK:   -8.44 KCAL/MOL
REMARK 924 INTRA-LIGAND FREE ENERGY PREDICTED BY IDOCK:   -0.30 KCAL/MOL
REMARK 927      BINDING AFFINITY PREDICTED BY RF-SCORE:    0.00 PKD
ROOT
HETATM    1  N   UNL     1     -10.794  18.399  67.518  1.00  0.00    -0.357 N  
HETATM    2  C   UNL     1     -10.275  17.415  66.726  1.00  0.00    -0.318 C  
HETATM    3  H1  UNL     1     -11.370  18.157  68.325  1.00  0.00     0.000 HD 
HETATM    4  H2  UNL     1     -10.605  19.377  67.303  1.00  0.00     0.000 HD 
HETATM    5  O   UNL     1      -9.582  17.705  65.755  1.00  0.00    -0.524 OA 
ENDROOT
BRANCH   2   6
HETATM    6  C   UNL     1     -10.588  16.068  67.136  1.00  0.00    -0.305 A  
HETATM    7  C   UNL     1     -10.547  15.478  68.385  1.00  0.00    -0.252 A  
HETATM    8  C   UNL     1     -10.999  14.147  68.226  1.00  0.00    -0.266 A  
HETATM    9  C   UNL     1     -11.214  13.053  69.083  1.00  0.00    -0.297 A  
HETATM   10  C   UNL     1     -11.677  11.822  68.578  1.00  0.00    -0.330 A  
HETATM   11  C   UNL     1     -11.909  11.736  67.193  1.00  0.00    -0.157 A  
HETATM   12  O   UNL     1     -11.019  15.153  66.207  1.00  0.00    -0.337 OA 
HETATM   13  C   UNL     1     -11.264  13.993  66.874  1.00  0.00    -0.313 A  
HETATM   14  C   UNL     1     -11.716  12.810  66.309  1.00  0.00    -0.460 A  
BRANCH  10  15
HETATM   15  N   UNL     1     -11.865  10.736  69.409  1.00  0.00    -0.304 NA 
HETATM   16  C   UNL     1     -11.021   9.533  69.338  1.00  0.00    -0.170 C  
HETATM   17  N   UNL     1     -11.692   8.923  71.715  1.00  0.00    -0.337 NA 
HETATM   18  C   UNL     1     -10.573   9.127  70.759  1.00  0.00    -0.260 C  
HETATM   19  C   UNL     1     -12.990  10.660  70.357  1.00  0.00    -0.145 C  
HETATM   20  C   UNL     1     -12.491  10.174  71.740  1.00  0.00    -0.360 C  
BRANCH  17  21
HETATM   21  C   UNL     1     -12.534   7.771  71.356  1.00  0.00    -0.320 C  
BRANCH  21  22
HETATM   22  C   UNL     1     -12.214   6.511  72.174  1.00  0.00    -0.277 C  
BRANCH  22  23
HETATM   23  C   UNL     1     -10.910   6.608  72.970  1.00  0.00    -0.297 C  
BRANCH  23  24
HETATM   24  C   UNL     1     -10.743   5.426  73.923  1.00  0.00    -0.296 C  
BRANCH  24  25
HETATM   25  C   UNL     1     -10.605   4.130  73.202  1.00  0.00    -0.262 A  
HETATM   26  C   UNL     1     -11.067   2.901  73.631  1.00  0.00    -0.229 A  
HETATM   27  N   UNL     1     -10.715   1.967  72.697  1.00  0.00    -0.141 NA 
HETATM   28  H   UNL     1     -10.929   0.971  72.761  1.00  0.00     0.000 HD 
HETATM   29  C   UNL     1     -10.033   2.559  71.661  1.00  0.00    -0.092 A  
HETATM   30  C   UNL     1      -9.956   3.919  71.945  1.00  0.00    -0.238 A  
HETATM   31  C   UNL     1      -9.304   4.771  71.023  1.00  0.00    -0.208 A  
HETATM   32  C   UNL     1      -8.742   4.225  69.861  1.00  0.00    -0.110 A  
HETATM   33  C   UNL     1      -8.832   2.854  69.611  1.00  0.00    -0.147 A  
HETATM   34  C   UNL     1      -8.070   5.083  68.926  1.00  0.00    -0.084 C  
HETATM   35  N   UNL     1      -7.521   5.769  68.167  1.00  0.00    -0.077 NA 
HETATM   36  C   UNL     1      -9.482   1.995  70.505  1.00  0.00    -0.171 A  
ENDBRANCH  24  25
ENDBRANCH  23  24
ENDBRANCH  22  23
ENDBRANCH  21  22
ENDBRANCH  17  21
ENDBRANCH  10  15
ENDBRANCH   2   6
TORSDOF 7
ENDMDL
MODEL      120
REMARK 921   NORMALIZED FREE ENERGY PREDICTED BY IDOCK:   -5.28 KCAL/MOL
REMARK 922        TOTAL FREE ENERGY PREDICTED BY IDOCK:   -8.72 KCAL/MOL
REMARK 923 INTER-LIGAND FREE ENERGY PREDICTED BY IDOCK:   -7.84 KCAL/MOL
REMARK 924 INTRA-LIGAND FREE ENERGY PREDICTED BY IDOCK:   -0.89 KCAL/MOL
REMARK 927      BINDING AFFINITY PREDICTED BY RF-SCORE:    0.00 PKD
ROOT
HETATM    1  N   UNL     1      -9.289   1.950  66.556  1.00  0.00    -0.350 N  
HETATM    2  C   UNL     1      -8.899   2.868  65.624  1.00  0.00    -0.136 C  
HETATM    3  H1  UNL     1      -9.656   2.256  67.456  1.00  0.00     0.000 HD 
HETATM    4  H2  UNL     1      -9.213   0.954  66.350  1.00  0.00     0.000 HD 
HETATM    5  O   UNL     1      -8.457   2.500  64.540  1.00  0.00    -0.086 OA 
ENDROOT
BRANCH   2   6
HETATM    6  C   UNL     1      -9.070   4.247  66.013  1.00  0.00    -0.133 A  
HETATM    7  C   UNL     1      -8.237   5.336  65.844  1.00  0.00    -0.117 A  
HETATM    8  C   UNL     1      -8.915   6.459  66.373  1.00  0.00    -0.162 A  
HETATM    9  C   UNL     1      -8.640   7.833  66.489  1.00  0.00    -0.149 A  
HETATM   10  C   UNL     1      -9.562   8.704  67.103  1.00  0.00    -0.173 A  
HETATM   11  C   UNL     1     -10.757   8.142  67.591  1.00  0.00    -0.203 A  
HETATM   12  O   UNL     1     -10.222   4.641  66.648  1.00  0.00    -0.237 OA 
HETATM   13  C   UNL     1     -10.120   5.980  66.864  1.00  0.00    -0.185 A  
HETATM   14  C   UNL     1     -11.070   6.778  67.483  1.00  0.00    -0.340 A  
BRANCH  10  15
HETATM   15  N   UNL     1      -9.286  10.049  67.245  1.00  0.00    -0.147 NA 
HETATM   16  C   UNL     1      -8.692  10.851  66.165  1.00  0.00    -0.184 C  
HETATM   17  N   UNL     1      -9.579  12.973  67.253  1.00  0.00    -0.218 NA 
HETATM   18  C   UNL     1      -9.476  12.172  66.006  1.00  0.00    -0.207 C  
HETATM   19  C   UNL     1      -9.469  10.755  68.525  1.00  0.00    -0.181 C  
HETATM   20  C   UNL     1     -10.191  12.105  68.290  1.00  0.00    -0.208 C  
BRANCH  17  21
HETATM   21  C   UNL     1      -8.274  13.484  67.701  1.00  0.00    -0.178 C  
BRANCH  21  22
HETATM   22  C   UNL     1      -8.379  14.433  68.904  1.00  0.00    -0.080 C  
BRANCH  22  23
HETATM   23  C   UNL     1      -7.032  14.995  69.365  1.00  0.00    -0.172 C  
BRANCH  23  24
HETATM   24  C   UNL     1      -6.446  15.967  68.343  1.00  0.00    -0.120 C  
BRANCH  24  25
HETATM   25  C   UNL     1      -7.104  17.303  68.387  1.00  0.00    -0.209 A  
HETATM   26  C   UNL     1      -6.737  18.370  69.182  1.00  0.00    -0.260 A  
HETATM   27  N   UNL     1      -7.607  19.396  68.942  1.00  0.00    -0.364 NA 
HETATM   28  H   UNL     1      -7.571  20.309  69.396  1.00  0.00     0.000 HD 
HETATM   29  C   UNL     1      -8.539  19.024  68.001  1.00  0.00    -0.302 A  
HETATM   30  C   UNL     1      -8.243  17.716  67.626  1.00  0.00    -0.225 A  
HETATM   31  C   UNL     1      -9.052  17.089  66.651  1.00  0.00    -0.278 A  
HETATM   32  C   UNL     1     -10.135  17.788  66.102  1.00  0.00    -0.308 A  
HETATM   33  C   UNL     1     -10.407  19.097  66.506  1.00  0.00    -0.526 A  
HETATM   34  C   UNL     1     -10.967  17.153  65.119  1.00  0.00     0.048 C  
HETATM   35  N   UNL     1     -11.647  16.644  64.327  1.00  0.00    -0.976 NA 
HETATM   36  C   UNL     1      -9.612  19.741  67.462  1.00  0.00    -0.470 A  
ENDBRANCH  24  25
ENDBRANCH  23  24
ENDBRANCH  22  23
ENDBRANCH  21  22
ENDBRANCH  17  21
ENDBRANCH  10  15
ENDBRANCH   2   6
TORSDOF 7
ENDMDL
MODEL      121
REMARK 921   NORMALIZED FREE ENERGY PREDICTED BY IDOCK:   -5.27 KCAL/MOL
REMARK 922        TOTAL FREE ENERGY PREDICTED BY IDOCK:   -8.70 KCAL/MOL
REMARK 923 INTER-LIGAND FREE ENERGY PREDICTED BY IDOCK:   -7.96 KCAL/MOL
REMARK 924 INTRA-LIGAND FREE ENERGY PREDICTED BY IDOCK:   -0.74 KCAL/MOL
REMARK 927      BINDING AFFINITY PREDICTED BY RF-SCORE:    0.00 PKD
ROOT
HETATM    1  N   UNL     1      -9.801  20.408  65.651  1.00  0.00    -0.532 N  
HETATM    2  C   UNL     1      -9.894  19.645  66.779  1.00  0.00    -0.392 C  
HETATM    3  H1  UNL     1      -9.795  19.966  64.731  1.00  0.00     0.000 HD 
HETATM    4  H2  UNL     1      -9.736  21.423  65.728  1.00  0.00     0.000 HD 
HETATM    5  O   UNL     1      -9.901  20.176  67.885  1.00  0.00    -0.379 OA 
ENDROOT
BRANCH   2   6
HETATM    6  C   UNL     1     -10.002  18.224  66.552  1.00  0.00    -0.373 A  
HETATM    7  C   UNL     1      -9.531  17.159  67.296  1.00  0.00    -0.245 A  
HETATM    8  C   UNL     1      -9.956  15.980  66.640  1.00  0.00    -0.277 A  
HETATM    9  C   UNL     1      -9.835  14.600  66.881  1.00  0.00    -0.252 A  
HETATM   10  C   UNL     1     -10.387  13.660  65.988  1.00  0.00    -0.304 A  
HETATM   11  C   UNL     1     -11.055  14.160  64.855  1.00  0.00    -0.389 A  
HETATM   12  O   UNL     1     -10.675  17.757  65.450  1.00  0.00    -0.626 OA 
HETATM   13  C   UNL     1     -10.641  16.397  65.510  1.00  0.00    -0.330 A  
HETATM   14  C   UNL     1     -11.205  15.530  64.587  1.00  0.00    -0.381 A  
BRANCH  10  15
HETATM   15  N   UNL     1     -10.249  12.304  66.205  1.00  0.00    -0.234 NA 
HETATM   16  C   UNL     1      -9.039  11.563  65.818  1.00  0.00    -0.154 C  
HETATM   17  N   UNL     1      -9.633   9.729  67.479  1.00  0.00    -0.147 NA 
HETATM   18  C   UNL     1      -8.586  10.661  66.987  1.00  0.00    -0.128 C  
HETATM   19  C   UNL     1     -11.346  11.481  66.742  1.00  0.00    -0.238 C  
HETATM   20  C   UNL     1     -10.814  10.545  67.856  1.00  0.00    -0.282 C  
BRANCH  17  21
HETATM   21  C   UNL     1      -9.996   8.714  66.478  1.00  0.00    -0.282 C  
BRANCH  21  22
HETATM   22  C   UNL     1     -10.741   7.514  67.079  1.00  0.00    -0.367 C  
BRANCH  22  23
HETATM   23  C   UNL     1     -10.329   7.189  68.517  1.00  0.00    -0.203 C  
BRANCH  23  24
HETATM   24  C   UNL     1      -9.958   5.715  68.678  1.00  0.00    -0.213 C  
BRANCH  24  25
HETATM   25  C   UNL     1      -8.695   5.366  67.971  1.00  0.00    -0.106 A  
HETATM   26  C   UNL     1      -7.416   5.473  68.480  1.00  0.00    -0.076 A  
HETATM   27  N   UNL     1      -6.539   5.078  67.508  1.00  0.00    -0.052 NA 
HETATM   28  H   UNL     1      -5.525   5.059  67.612  1.00  0.00     0.000 HD 
HETATM   29  C   UNL     1      -7.219   4.712  66.370  1.00  0.00    -0.076 A  
HETATM   30  C   UNL     1      -8.576   4.873  66.633  1.00  0.00    -0.109 A  
HETATM   31  C   UNL     1      -9.509   4.553  65.619  1.00  0.00    -0.174 A  
HETATM   32  C   UNL     1      -9.045   4.099  64.378  1.00  0.00    -0.147 A  
HETATM   33  C   UNL     1      -7.676   3.954  64.145  1.00  0.00    -0.083 A  
HETATM   34  C   UNL     1      -9.986   3.781  63.341  1.00  0.00    -0.174 C  
HETATM   35  N   UNL     1     -10.741   3.526  62.495  1.00  0.00    -0.185 NA 
HETATM   36  C   UNL     1      -6.736   4.257  65.138  1.00  0.00    -0.049 A  
ENDBRANCH  24  25
ENDBRANCH  23  24
ENDBRANCH  22  23
ENDBRANCH  21  22
ENDBRANCH  17  21
ENDBRANCH  10  15
ENDBRANCH   2   6
TORSDOF 7
ENDMDL
MODEL      122
REMARK 921   NORMALIZED FREE ENERGY PREDICTED BY IDOCK:   -5.26 KCAL/MOL
REMARK 922        TOTAL FREE ENERGY PREDICTED BY IDOCK:   -8.69 KCAL/MOL
REMARK 923 INTER-LIGAND FREE ENERGY PREDICTED BY IDOCK:   -8.16 KCAL/MOL
REMARK 924 INTRA-LIGAND FREE ENERGY PREDICTED BY IDOCK:   -0.53 KCAL/MOL
REMARK 927      BINDING AFFINITY PREDICTED BY RF-SCORE:    0.00 PKD
ROOT
HETATM    1  N   UNL     1      -9.399   2.829  66.700  1.00  0.00    -0.363 N  
HETATM    2  C   UNL     1      -9.498   3.396  67.938  1.00  0.00    -0.165 C  
HETATM    3  H1  UNL     1      -9.371   3.416  65.867  1.00  0.00     0.000 HD 
HETATM    4  H2  UNL     1      -9.353   1.814  66.608  1.00  0.00     0.000 HD 
HETATM    5  O   UNL     1      -9.531   2.689  68.941  1.00  0.00    -0.166 OA 
ENDROOT
BRANCH   2   6
HETATM    6  C   UNL     1      -9.534   4.838  67.951  1.00  0.00    -0.144 A  
HETATM    7  C   UNL     1     -10.435   5.717  67.380  1.00  0.00    -0.318 A  
HETATM    8  C   UNL     1     -10.022   7.021  67.741  1.00  0.00    -0.186 A  
HETATM    9  C   UNL     1     -10.502   8.324  67.514  1.00  0.00    -0.325 A  
HETATM   10  C   UNL     1      -9.818   9.444  68.026  1.00  0.00    -0.164 A  
HETATM   11  C   UNL     1      -8.645   9.203  68.766  1.00  0.00    -0.131 A  
HETATM   12  O   UNL     1      -8.566   5.541  68.625  1.00  0.00    -0.103 OA 
HETATM   13  C   UNL     1      -8.868   6.862  68.492  1.00  0.00    -0.124 A  
HETATM   14  C   UNL     1      -8.143   7.918  69.022  1.00  0.00    -0.124 A  
BRANCH  10  15
HETATM   15  N   UNL     1     -10.268  10.726  67.784  1.00  0.00    -0.176 NA 
HETATM   16  C   UNL     1     -11.623  11.168  68.145  1.00  0.00    -0.280 C  
HETATM   17  N   UNL     1     -10.844  13.589  68.104  1.00  0.00    -0.247 NA 
HETATM   18  C   UNL     1     -11.551  12.530  68.869  1.00  0.00    -0.318 C  
HETATM   19  C   UNL     1      -9.459  11.714  67.049  1.00  0.00    -0.182 C  
HETATM   20  C   UNL     1      -9.488  13.077  67.782  1.00  0.00    -0.209 C  
BRANCH  17  21
HETATM   21  C   UNL     1     -11.563  13.971  66.878  1.00  0.00    -0.386 C  
BRANCH  21  22
HETATM   22  C   UNL     1     -10.952  15.192  66.176  1.00  0.00    -0.331 C  
BRANCH  22  23
HETATM   23  C   UNL     1     -10.556  16.319  67.132  1.00  0.00    -0.291 C  
BRANCH  23  24
HETATM   24  C   UNL     1      -9.914  17.490  66.389  1.00  0.00    -0.330 C  
BRANCH  24  25
HETATM   25  C   UNL     1      -9.116  18.367  67.290  1.00  0.00    -0.268 A  
HETATM   26  C   UNL     1      -9.235  18.454  68.663  1.00  0.00    -0.306 A  
HETATM   27  N   UNL     1      -8.343  19.390  69.106  1.00  0.00    -0.231 NA 
HETATM   28  H   UNL     1      -8.218  19.659  70.082  1.00  0.00     0.000 HD 
HETATM   29  C   UNL     1      -7.638  19.918  68.050  1.00  0.00    -0.297 A  
HETATM   30  C   UNL     1      -8.095  19.288  66.896  1.00  0.00    -0.285 A  
HETATM   31  C   UNL     1      -7.521  19.645  65.653  1.00  0.00    -0.234 A  
HETATM   32  C   UNL     1      -6.524  20.628  65.613  1.00  0.00    -0.261 A  
HETATM   33  C   UNL     1      -6.093  21.244  66.790  1.00  0.00    -0.392 A  
HETATM   34  C   UNL     1      -5.945  21.002  64.353  1.00  0.00    -0.275 C  
HETATM   35  N   UNL     1      -5.474  21.312  63.338  1.00  0.00    -0.228 NA 
HETATM   36  C   UNL     1      -6.641  20.900  68.032  1.00  0.00    -0.318 A  
ENDBRANCH  24  25
ENDBRANCH  23  24
ENDBRANCH  22  23
ENDBRANCH  21  22
ENDBRANCH  17  21
ENDBRANCH  10  15
ENDBRANCH   2   6
TORSDOF 7
ENDMDL
MODEL      123
REMARK 921   NORMALIZED FREE ENERGY PREDICTED BY IDOCK:   -5.24 KCAL/MOL
REMARK 922        TOTAL FREE ENERGY PREDICTED BY IDOCK:   -8.66 KCAL/MOL
REMARK 923 INTER-LIGAND FREE ENERGY PREDICTED BY IDOCK:   -7.89 KCAL/MOL
REMARK 924 INTRA-LIGAND FREE ENERGY PREDICTED BY IDOCK:   -0.76 KCAL/MOL
REMARK 927      BINDING AFFINITY PREDICTED BY RF-SCORE:    0.00 PKD
ROOT
HETATM    1  N   UNL     1      -8.769  19.829  66.972  1.00  0.00    -0.311 N  
HETATM    2  C   UNL     1      -9.813  19.357  66.229  1.00  0.00    -0.403 C  
HETATM    3  H1  UNL     1      -8.148  19.180  67.454  1.00  0.00     0.000 HD 
HETATM    4  H2  UNL     1      -8.611  20.834  67.045  1.00  0.00     0.000 HD 
HETATM    5  O   UNL     1     -10.561  20.137  65.648  1.00  0.00    -0.404 OA 
ENDROOT
BRANCH   2   6
HETATM    6  C   UNL     1      -9.930  17.919  66.179  1.00  0.00    -0.283 A  
HETATM    7  C   UNL     1      -9.448  16.951  67.038  1.00  0.00    -0.251 A  
HETATM    8  C   UNL     1      -9.890  15.703  66.539  1.00  0.00    -0.278 A  
HETATM    9  C   UNL     1      -9.769  14.361  66.945  1.00  0.00    -0.266 A  
HETATM   10  C   UNL     1     -10.342  13.323  66.185  1.00  0.00    -0.290 A  
HETATM   11  C   UNL     1     -11.031  13.685  65.012  1.00  0.00    -0.350 A  
HETATM   12  O   UNL     1     -10.627  17.325  65.156  1.00  0.00    -0.686 OA 
HETATM   13  C   UNL     1     -10.596  15.983  65.380  1.00  0.00    -0.408 A  
HETATM   14  C   UNL     1     -11.182  15.013  64.582  1.00  0.00    -0.342 A  
BRANCH  10  15
HETATM   15  N   UNL     1     -10.203  12.003  66.562  1.00  0.00    -0.203 NA 
HETATM   16  C   UNL     1      -9.930  10.930  65.594  1.00  0.00    -0.251 C  
HETATM   17  N   UNL     1      -9.028   9.468  67.470  1.00  0.00    -0.125 NA 
HETATM   18  C   UNL     1      -8.786  10.035  66.118  1.00  0.00    -0.148 C  
HETATM   19  C   UNL     1     -10.424  11.558  67.949  1.00  0.00    -0.184 C  
HETATM   20  C   UNL     1      -9.287  10.604  68.390  1.00  0.00    -0.163 C  
BRANCH  17  21
HETATM   21  C   UNL     1     -10.148   8.514  67.487  1.00  0.00    -0.221 C  
BRANCH  21  22
HETATM   22  C   UNL     1      -9.849   7.218  66.722  1.00  0.00    -0.281 C  
BRANCH  22  23
HETATM   23  C   UNL     1     -10.895   6.121  66.934  1.00  0.00    -0.411 C  
BRANCH  23  24
HETATM   24  C   UNL     1     -10.590   4.882  66.094  1.00  0.00    -0.322 C  
BRANCH  24  25
HETATM   25  C   UNL     1      -9.292   4.251  66.460  1.00  0.00    -0.174 A  
HETATM   26  C   UNL     1      -8.208   4.064  65.625  1.00  0.00    -0.105 A  
HETATM   27  N   UNL     1      -7.229   3.429  66.337  1.00  0.00    -0.063 NA 
HETATM   28  H   UNL     1      -6.317   3.164  65.965  1.00  0.00     0.000 HD 
HETATM   29  C   UNL     1      -7.649   3.196  67.626  1.00  0.00    -0.061 A  
HETATM   30  C   UNL     1      -8.938   3.710  67.736  1.00  0.00    -0.165 A  
HETATM   31  C   UNL     1      -9.607   3.610  68.979  1.00  0.00    -0.165 A  
HETATM   32  C   UNL     1      -8.965   2.986  70.057  1.00  0.00    -0.170 A  
HETATM   33  C   UNL     1      -7.673   2.476  69.909  1.00  0.00    -0.046 A  
HETATM   34  C   UNL     1      -9.642   2.872  71.318  1.00  0.00    -0.158 C  
HETATM   35  N   UNL     1     -10.185   2.772  72.340  1.00  0.00    -0.161 NA 
HETATM   36  C   UNL     1      -6.989   2.573  68.691  1.00  0.00    -0.044 A  
ENDBRANCH  24  25
ENDBRANCH  23  24
ENDBRANCH  22  23
ENDBRANCH  21  22
ENDBRANCH  17  21
ENDBRANCH  10  15
ENDBRANCH   2   6
TORSDOF 7
ENDMDL
MODEL      124
REMARK 921   NORMALIZED FREE ENERGY PREDICTED BY IDOCK:   -5.23 KCAL/MOL
REMARK 922        TOTAL FREE ENERGY PREDICTED BY IDOCK:   -8.64 KCAL/MOL
REMARK 923 INTER-LIGAND FREE ENERGY PREDICTED BY IDOCK:   -7.11 KCAL/MOL
REMARK 924 INTRA-LIGAND FREE ENERGY PREDICTED BY IDOCK:   -1.54 KCAL/MOL
REMARK 927      BINDING AFFINITY PREDICTED BY RF-SCORE:    0.00 PKD
ROOT
HETATM    1  N   UNL     1      -5.139   5.528  66.671  1.00  0.00    -0.005 N  
HETATM    2  C   UNL     1      -6.458   5.800  66.896  1.00  0.00    -0.050 C  
HETATM    3  H1  UNL     1      -4.443   6.271  66.739  1.00  0.00     0.000 HD 
HETATM    4  H2  UNL     1      -4.849   4.579  66.436  1.00  0.00     0.000 HD 
HETATM    5  O   UNL     1      -7.296   4.907  66.815  1.00  0.00    -0.082 OA 
ENDROOT
BRANCH   2   6
HETATM    6  C   UNL     1      -6.752   7.170  67.242  1.00  0.00    -0.064 A  
HETATM    7  C   UNL     1      -6.223   8.350  66.756  1.00  0.00    -0.055 A  
HETATM    8  C   UNL     1      -6.901   9.405  67.411  1.00  0.00    -0.080 A  
HETATM    9  C   UNL     1      -6.860  10.810  67.357  1.00  0.00    -0.078 A  
HETATM   10  C   UNL     1      -7.693  11.588  68.183  1.00  0.00    -0.120 A  
HETATM   11  C   UNL     1      -8.559  10.905  69.057  1.00  0.00    -0.110 A  
HETATM   12  O   UNL     1      -7.707   7.447  68.189  1.00  0.00    -0.115 OA 
HETATM   13  C   UNL     1      -7.790   8.802  68.286  1.00  0.00    -0.101 A  
HETATM   14  C   UNL     1      -8.636   9.505  69.131  1.00  0.00    -0.140 A  
BRANCH  10  15
HETATM   15  N   UNL     1      -7.638  12.967  68.154  1.00  0.00    -0.124 NA 
HETATM   16  C   UNL     1      -8.784  13.810  68.528  1.00  0.00    -0.118 C  
HETATM   17  N   UNL     1      -7.208  15.761  68.958  1.00  0.00    -0.154 NA 
HETATM   18  C   UNL     1      -8.317  14.927  69.487  1.00  0.00    -0.021 C  
HETATM   19  C   UNL     1      -6.462  13.694  67.647  1.00  0.00    -0.153 C  
HETATM   20  C   UNL     1      -6.090  14.847  68.611  1.00  0.00    -0.087 C  
BRANCH  17  21
HETATM   21  C   UNL     1      -7.613  16.558  67.789  1.00  0.00    -0.148 C  
BRANCH  21  22
HETATM   22  C   UNL     1      -8.937  17.306  67.999  1.00  0.00    -0.242 C  
BRANCH  22  23
HETATM   23  C   UNL     1     -10.006  16.971  66.956  1.00  0.00    -0.288 C  
BRANCH  23  24
HETATM   24  C   UNL     1      -9.481  15.997  65.903  1.00  0.00    -0.351 C  
BRANCH  24  25
HETATM   25  C   UNL     1     -10.568  15.440  65.051  1.00  0.00    -0.445 A  
HETATM   26  C   UNL     1     -11.540  16.163  64.387  1.00  0.00    -0.146 A  
HETATM   27  N   UNL     1     -12.359  15.279  63.742  1.00  0.00    -0.993 NA 
HETATM   28  H   UNL     1     -13.165  15.540  63.174  1.00  0.00     0.000 HD 
HETATM   29  C   UNL     1     -11.942  13.988  63.967  1.00  0.00    -0.354 A  
HETATM   30  C   UNL     1     -10.813  14.057  64.779  1.00  0.00    -0.430 A  
HETATM   31  C   UNL     1     -10.172  12.855  65.156  1.00  0.00    -0.288 A  
HETATM   32  C   UNL     1     -10.695  11.630  64.720  1.00  0.00    -0.365 A  
HETATM   33  C   UNL     1     -11.833  11.597  63.911  1.00  0.00    -0.348 A  
HETATM   34  C   UNL     1     -10.055  10.405  65.109  1.00  0.00    -0.308 C  
HETATM   35  N   UNL     1      -9.545   9.410  65.422  1.00  0.00    -0.266 NA 
HETATM   36  C   UNL     1     -12.478  12.776  63.517  1.00  0.00    -0.474 A  
ENDBRANCH  24  25
ENDBRANCH  23  24
ENDBRANCH  22  23
ENDBRANCH  21  22
ENDBRANCH  17  21
ENDBRANCH  10  15
ENDBRANCH   2   6
TORSDOF 7
ENDMDL
MODEL      125
REMARK 921   NORMALIZED FREE ENERGY PREDICTED BY IDOCK:   -5.22 KCAL/MOL
REMARK 922        TOTAL FREE ENERGY PREDICTED BY IDOCK:   -8.64 KCAL/MOL
REMARK 923 INTER-LIGAND FREE ENERGY PREDICTED BY IDOCK:   -6.84 KCAL/MOL
REMARK 924 INTRA-LIGAND FREE ENERGY PREDICTED BY IDOCK:   -1.80 KCAL/MOL
REMARK 927      BINDING AFFINITY PREDICTED BY RF-SCORE:    0.00 PKD
ROOT
HETATM    1  N   UNL     1     -11.157   4.892  65.474  1.00  0.00    -0.884 N  
HETATM    2  C   UNL     1      -9.980   4.778  66.157  1.00  0.00    -0.241 C  
HETATM    3  H1  UNL     1     -11.517   5.812  65.220  1.00  0.00     0.000 HD 
HETATM    4  H2  UNL     1     -11.678   4.053  65.216  1.00  0.00     0.000 HD 
HETATM    5  O   UNL     1      -9.547   3.671  66.462  1.00  0.00    -0.194 OA 
ENDROOT
BRANCH   2   6
HETATM    6  C   UNL     1      -9.319   6.026  66.451  1.00  0.00    -0.154 A  
HETATM    7  C   UNL     1      -9.682   7.056  67.298  1.00  0.00    -0.189 A  
HETATM    8  C   UNL     1      -8.648   8.020  67.239  1.00  0.00    -0.124 A  
HETATM    9  C   UNL     1      -8.395   9.257  67.859  1.00  0.00    -0.116 A  
HETATM   10  C   UNL     1      -7.233   9.992  67.555  1.00  0.00    -0.089 A  
HETATM   11  C   UNL     1      -6.347   9.440  66.610  1.00  0.00    -0.066 A  
HETATM   12  O   UNL     1      -8.121   6.324  65.849  1.00  0.00    -0.111 OA 
HETATM   13  C   UNL     1      -7.723   7.533  66.330  1.00  0.00    -0.089 A  
HETATM   14  C   UNL     1      -6.561   8.204  65.980  1.00  0.00    -0.046 A  
BRANCH  10  15
HETATM   15  N   UNL     1      -6.991  11.219  68.139  1.00  0.00    -0.067 NA 
HETATM   16  C   UNL     1      -6.999  11.413  69.597  1.00  0.00    -0.020 C  
HETATM   17  N   UNL     1      -5.603  13.522  69.321  1.00  0.00    -0.076 NA 
HETATM   18  C   UNL     1      -5.752  12.220  70.020  1.00  0.00    -0.141 C  
HETATM   19  C   UNL     1      -6.813  12.444  67.341  1.00  0.00    -0.147 C  
HETATM   20  C   UNL     1      -5.596  13.247  67.863  1.00  0.00    -0.125 C  
BRANCH  17  21
HETATM   21  C   UNL     1      -6.672  14.472  69.669  1.00  0.00    -0.155 C  
BRANCH  21  22
HETATM   22  C   UNL     1      -6.709  15.702  68.751  1.00  0.00    -0.116 C  
BRANCH  22  23
HETATM   23  C   UNL     1      -8.049  16.440  68.762  1.00  0.00    -0.234 C  
BRANCH  23  24
HETATM   24  C   UNL     1      -9.036  15.832  67.767  1.00  0.00    -0.188 C  
BRANCH  24  25
HETATM   25  C   UNL     1      -9.951  14.845  68.405  1.00  0.00    -0.222 A  
HETATM   26  C   UNL     1     -10.578  14.980  69.628  1.00  0.00    -0.238 A  
HETATM   27  N   UNL     1     -11.306  13.846  69.858  1.00  0.00    -0.456 NA 
HETATM   28  H   UNL     1     -11.869  13.675  70.691  1.00  0.00     0.000 HD 
HETATM   29  C   UNL     1     -11.171  12.969  68.808  1.00  0.00    -0.282 A  
HETATM   30  C   UNL     1     -10.332  13.572  67.875  1.00  0.00    -0.249 A  
HETATM   31  C   UNL     1     -10.033  12.877  66.680  1.00  0.00    -0.251 A  
HETATM   32  C   UNL     1     -10.572  11.601  66.473  1.00  0.00    -0.292 A  
HETATM   33  C   UNL     1     -11.405  11.022  67.434  1.00  0.00    -0.306 A  
HETATM   34  C   UNL     1     -10.264  10.886  65.267  1.00  0.00    -0.288 C  
HETATM   35  N   UNL     1     -10.016  10.300  64.295  1.00  0.00    -0.300 NA 
HETATM   36  C   UNL     1     -11.722  11.697  68.619  1.00  0.00    -0.386 A  
ENDBRANCH  24  25
ENDBRANCH  23  24
ENDBRANCH  22  23
ENDBRANCH  21  22
ENDBRANCH  17  21
ENDBRANCH  10  15
ENDBRANCH   2   6
TORSDOF 7
ENDMDL
MODEL      126
REMARK 921   NORMALIZED FREE ENERGY PREDICTED BY IDOCK:   -5.22 KCAL/MOL
REMARK 922        TOTAL FREE ENERGY PREDICTED BY IDOCK:   -8.64 KCAL/MOL
REMARK 923 INTER-LIGAND FREE ENERGY PREDICTED BY IDOCK:   -7.90 KCAL/MOL
REMARK 924 INTRA-LIGAND FREE ENERGY PREDICTED BY IDOCK:   -0.74 KCAL/MOL
REMARK 927      BINDING AFFINITY PREDICTED BY RF-SCORE:    0.00 PKD
ROOT
HETATM    1  N   UNL     1      -9.659  20.855  66.841  1.00  0.00    -0.669 N  
HETATM    2  C   UNL     1      -8.587  20.040  67.069  1.00  0.00    -0.334 C  
HETATM    3  H1  UNL     1     -10.589  20.456  66.719  1.00  0.00     0.000 HD 
HETATM    4  H2  UNL     1      -9.528  21.865  66.792  1.00  0.00     0.000 HD 
HETATM    5  O   UNL     1      -7.467  20.520  67.216  1.00  0.00    -0.306 OA 
ENDROOT
BRANCH   2   6
HETATM    6  C   UNL     1      -8.890  18.631  67.140  1.00  0.00    -0.274 A  
HETATM    7  C   UNL     1      -8.881  17.766  68.217  1.00  0.00    -0.277 A  
HETATM    8  C   UNL     1      -9.304  16.505  67.733  1.00  0.00    -0.210 A  
HETATM    9  C   UNL     1      -9.530  15.238  68.301  1.00  0.00    -0.205 A  
HETATM   10  C   UNL     1      -9.954  14.156  67.505  1.00  0.00    -0.236 A  
HETATM   11  C   UNL     1     -10.136  14.396  66.130  1.00  0.00    -0.323 A  
HETATM   12  O   UNL     1      -9.273  17.957  66.007  1.00  0.00    -0.509 OA 
HETATM   13  C   UNL     1      -9.520  16.670  66.374  1.00  0.00    -0.280 A  
HETATM   14  C   UNL     1      -9.932  15.649  65.531  1.00  0.00    -0.364 A  
BRANCH  10  15
HETATM   15  N   UNL     1     -10.150  12.904  68.051  1.00  0.00    -0.228 NA 
HETATM   16  C   UNL     1     -11.402  12.524  68.723  1.00  0.00    -0.293 C  
HETATM   17  N   UNL     1     -10.858  10.067  68.346  1.00  0.00    -0.237 NA 
HETATM   18  C   UNL     1     -11.871  11.145  68.209  1.00  0.00    -0.190 C  
HETATM   19  C   UNL     1      -9.081  11.891  68.093  1.00  0.00    -0.190 C  
HETATM   20  C   UNL     1      -9.631  10.516  67.641  1.00  0.00    -0.157 C  
BRANCH  17  21
HETATM   21  C   UNL     1     -10.565   9.747  69.752  1.00  0.00    -0.257 C  
BRANCH  21  22
HETATM   22  C   UNL     1      -9.681   8.503  69.917  1.00  0.00    -0.179 C  
BRANCH  22  23
HETATM   23  C   UNL     1     -10.159   7.295  69.108  1.00  0.00    -0.183 C  
BRANCH  23  24
HETATM   24  C   UNL     1      -9.060   6.758  68.193  1.00  0.00    -0.123 C  
BRANCH  24  25
HETATM   25  C   UNL     1      -9.267   5.327  67.835  1.00  0.00    -0.122 A  
HETATM   26  C   UNL     1      -9.611   4.835  66.591  1.00  0.00    -0.174 A  
HETATM   27  N   UNL     1      -9.728   3.477  66.690  1.00  0.00    -0.403 NA 
HETATM   28  H   UNL     1      -9.975   2.857  65.919  1.00  0.00     0.000 HD 
HETATM   29  C   UNL     1      -9.467   3.066  67.976  1.00  0.00    -0.159 A  
HETATM   30  C   UNL     1      -9.165   4.205  68.717  1.00  0.00    -0.206 A  
HETATM   31  C   UNL     1      -8.844   4.061  70.087  1.00  0.00    -0.137 A  
HETATM   32  C   UNL     1      -8.853   2.784  70.664  1.00  0.00    -0.144 A  
HETATM   33  C   UNL     1      -9.167   1.663  69.892  1.00  0.00    -0.162 A  
HETATM   34  C   UNL     1      -8.538   2.631  72.057  1.00  0.00    -0.069 C  
HETATM   35  N   UNL     1      -8.288   2.500  73.183  1.00  0.00    -0.069 NA 
HETATM   36  C   UNL     1      -9.478   1.782  68.532  1.00  0.00    -0.231 A  
ENDBRANCH  24  25
ENDBRANCH  23  24
ENDBRANCH  22  23
ENDBRANCH  21  22
ENDBRANCH  17  21
ENDBRANCH  10  15
ENDBRANCH   2   6
TORSDOF 7
ENDMDL
MODEL      127
REMARK 921   NORMALIZED FREE ENERGY PREDICTED BY IDOCK:   -5.22 KCAL/MOL
REMARK 922        TOTAL FREE ENERGY PREDICTED BY IDOCK:   -8.64 KCAL/MOL
REMARK 923 INTER-LIGAND FREE ENERGY PREDICTED BY IDOCK:   -8.01 KCAL/MOL
REMARK 924 INTRA-LIGAND FREE ENERGY PREDICTED BY IDOCK:   -0.63 KCAL/MOL
REMARK 927      BINDING AFFINITY PREDICTED BY RF-SCORE:    0.00 PKD
ROOT
HETATM    1  N   UNL     1     -10.595   6.738  74.325  1.00  0.00    -0.424 N  
HETATM    2  C   UNL     1     -11.144   6.546  73.090  1.00  0.00    -0.166 C  
HETATM    3  H1  UNL     1     -10.270   7.664  74.604  1.00  0.00     0.000 HD 
HETATM    4  H2  UNL     1     -10.509   5.953  74.971  1.00  0.00     0.000 HD 
HETATM    5  O   UNL     1     -11.535   5.432  72.754  1.00  0.00    -0.300 OA 
ENDROOT
BRANCH   2   6
HETATM    6  C   UNL     1     -11.235   7.728  72.268  1.00  0.00    -0.312 A  
HETATM    7  C   UNL     1     -10.578   8.061  71.100  1.00  0.00    -0.235 A  
HETATM    8  C   UNL     1     -11.077   9.320  70.691  1.00  0.00    -0.335 A  
HETATM    9  C   UNL     1     -10.851  10.182  69.603  1.00  0.00    -0.299 A  
HETATM   10  C   UNL     1     -11.534  11.411  69.503  1.00  0.00    -0.312 A  
HETATM   11  C   UNL     1     -12.440  11.733  70.531  1.00  0.00    -0.317 A  
HETATM   12  O   UNL     1     -12.099   8.738  72.616  1.00  0.00    -0.313 OA 
HETATM   13  C   UNL     1     -11.996   9.698  71.657  1.00  0.00    -0.394 A  
HETATM   14  C   UNL     1     -12.699  10.892  71.625  1.00  0.00    -0.498 A  
BRANCH  10  15
HETATM   15  N   UNL     1     -11.296  12.275  68.453  1.00  0.00    -0.267 NA 
HETATM   16  C   UNL     1     -11.890  12.080  67.122  1.00  0.00    -0.178 C  
HETATM   17  N   UNL     1     -11.523  14.542  66.599  1.00  0.00    -0.357 NA 
HETATM   18  C   UNL     1     -12.487  13.412  66.618  1.00  0.00    -0.153 C  
HETATM   19  C   UNL     1     -10.347  13.396  68.561  1.00  0.00    -0.236 C  
HETATM   20  C   UNL     1     -10.974  14.683  67.970  1.00  0.00    -0.267 C  
BRANCH  17  21
HETATM   21  C   UNL     1     -10.442  14.342  65.620  1.00  0.00    -0.324 C  
BRANCH  21  22
HETATM   22  C   UNL     1     -10.866  13.481  64.421  1.00  0.00    -0.403 C  
BRANCH  22  23
HETATM   23  C   UNL     1      -9.815  12.450  64.001  1.00  0.00    -0.160 C  
BRANCH  23  24
HETATM   24  C   UNL     1     -10.334  11.021  64.154  1.00  0.00    -0.434 C  
BRANCH  24  25
HETATM   25  C   UNL     1      -9.688  10.300  65.284  1.00  0.00    -0.354 A  
HETATM   26  C   UNL     1      -9.905   8.986  65.648  1.00  0.00    -0.016 A  
HETATM   27  N   UNL     1      -9.141   8.718  66.750  1.00  0.00    -0.139 NA 
HETATM   28  H   UNL     1      -9.108   7.821  67.232  1.00  0.00     0.000 HD 
HETATM   29  C   UNL     1      -8.422   9.833  67.115  1.00  0.00    -0.125 A  
HETATM   30  C   UNL     1      -8.738  10.840  66.208  1.00  0.00    -0.175 A  
HETATM   31  C   UNL     1      -8.120  12.104  66.352  1.00  0.00     0.207 A  
HETATM   32  C   UNL     1      -7.223  12.315  67.408  1.00  0.00    -0.147 A  
HETATM   33  C   UNL     1      -6.934  11.283  68.304  1.00  0.00    -0.071 A  
HETATM   34  C   UNL     1      -6.600  13.599  67.566  1.00  0.00    -0.107 C  
HETATM   35  N   UNL     1      -6.096  14.636  67.704  1.00  0.00    -0.316 NA 
HETATM   36  C   UNL     1      -7.527  10.021  68.174  1.00  0.00    -0.083 A  
ENDBRANCH  24  25
ENDBRANCH  23  24
ENDBRANCH  22  23
ENDBRANCH  21  22
ENDBRANCH  17  21
ENDBRANCH  10  15
ENDBRANCH   2   6
TORSDOF 7
ENDMDL
MODEL      128
REMARK 921   NORMALIZED FREE ENERGY PREDICTED BY IDOCK:   -5.22 KCAL/MOL
REMARK 922        TOTAL FREE ENERGY PREDICTED BY IDOCK:   -8.64 KCAL/MOL
REMARK 923 INTER-LIGAND FREE ENERGY PREDICTED BY IDOCK:   -7.66 KCAL/MOL
REMARK 924 INTRA-LIGAND FREE ENERGY PREDICTED BY IDOCK:   -0.97 KCAL/MOL
REMARK 927      BINDING AFFINITY PREDICTED BY RF-SCORE:    0.00 PKD
ROOT
HETATM    1  N   UNL     1      -9.071   2.745  73.540  1.00  0.00    -0.084 N  
HETATM    2  C   UNL     1     -10.005   2.913  72.559  1.00  0.00    -0.159 C  
HETATM    3  H1  UNL     1      -8.572   3.551  73.917  1.00  0.00     0.000 HD 
HETATM    4  H2  UNL     1      -8.871   1.811  73.898  1.00  0.00     0.000 HD 
HETATM    5  O   UNL     1     -10.605   1.944  72.105  1.00  0.00    -0.121 OA 
ENDROOT
BRANCH   2   6
HETATM    6  C   UNL     1     -10.221   4.278  72.144  1.00  0.00    -0.164 A  
HETATM    7  C   UNL     1     -10.175   4.851  70.888  1.00  0.00    -0.272 A  
HETATM    8  C   UNL     1     -10.511   6.217  71.047  1.00  0.00    -0.281 A  
HETATM    9  C   UNL     1     -10.666   7.317  70.185  1.00  0.00    -0.260 A  
HETATM   10  C   UNL     1     -11.008   8.587  70.691  1.00  0.00    -0.239 A  
HETATM   11  C   UNL     1     -11.183   8.703  72.083  1.00  0.00    -0.438 A  
HETATM   12  O   UNL     1     -10.542   5.233  73.077  1.00  0.00    -0.200 OA 
HETATM   13  C   UNL     1     -10.714   6.404  72.405  1.00  0.00    -0.226 A  
HETATM   14  C   UNL     1     -11.048   7.625  72.971  1.00  0.00    -0.437 A  
BRANCH  10  15
HETATM   15  N   UNL     1     -11.135   9.677  69.854  1.00  0.00    -0.241 NA 
HETATM   16  C   UNL     1     -12.111  10.750  70.099  1.00  0.00    -0.346 C  
HETATM   17  N   UNL     1     -10.745  12.324  68.640  1.00  0.00    -0.231 NA 
HETATM   18  C   UNL     1     -11.422  12.124  69.947  1.00  0.00    -0.133 C  
HETATM   19  C   UNL     1     -10.375   9.792  68.597  1.00  0.00    -0.201 C  
HETATM   20  C   UNL     1      -9.775  11.214  68.466  1.00  0.00    -0.196 C  
BRANCH  17  21
HETATM   21  C   UNL     1     -11.694  12.370  67.516  1.00  0.00    -0.357 C  
BRANCH  21  22
HETATM   22  C   UNL     1     -11.554  13.636  66.660  1.00  0.00    -0.391 C  
BRANCH  22  23
HETATM   23  C   UNL     1     -12.331  14.838  67.204  1.00  0.00     0.183 C  
BRANCH  23  24
HETATM   24  C   UNL     1     -11.450  15.729  68.079  1.00  0.00    -0.264 C  
BRANCH  24  25
HETATM   25  C   UNL     1     -10.227  16.192  67.368  1.00  0.00    -0.272 A  
HETATM   26  C   UNL     1     -10.184  16.850  66.155  1.00  0.00    -0.341 A  
HETATM   27  N   UNL     1      -8.872  17.074  65.840  1.00  0.00    -0.532 NA 
HETATM   28  H   UNL     1      -8.548  17.543  64.995  1.00  0.00     0.000 HD 
HETATM   29  C   UNL     1      -8.052  16.576  66.825  1.00  0.00    -0.251 A  
HETATM   30  C   UNL     1      -8.874  16.024  67.803  1.00  0.00    -0.177 A  
HETATM   31  C   UNL     1      -8.276  15.444  68.947  1.00  0.00    -0.192 A  
HETATM   32  C   UNL     1      -6.880  15.427  69.059  1.00  0.00    -0.136 A  
HETATM   33  C   UNL     1      -6.085  15.985  68.055  1.00  0.00    -0.140 A  
HETATM   34  C   UNL     1      -6.267  14.831  70.212  1.00  0.00    -0.167 C  
HETATM   35  N   UNL     1      -5.763  14.348  71.140  1.00  0.00    -0.185 NA 
HETATM   36  C   UNL     1      -6.656  16.572  66.920  1.00  0.00    -0.212 A  
ENDBRANCH  24  25
ENDBRANCH  23  24
ENDBRANCH  22  23
ENDBRANCH  21  22
ENDBRANCH  17  21
ENDBRANCH  10  15
ENDBRANCH   2   6
TORSDOF 7
ENDMDL
MODEL      129
REMARK 921   NORMALIZED FREE ENERGY PREDICTED BY IDOCK:   -5.21 KCAL/MOL
REMARK 922        TOTAL FREE ENERGY PREDICTED BY IDOCK:   -8.62 KCAL/MOL
REMARK 923 INTER-LIGAND FREE ENERGY PREDICTED BY IDOCK:   -8.05 KCAL/MOL
REMARK 924 INTRA-LIGAND FREE ENERGY PREDICTED BY IDOCK:   -0.57 KCAL/MOL
REMARK 927      BINDING AFFINITY PREDICTED BY RF-SCORE:    0.00 PKD
ROOT
HETATM    1  N   UNL     1     -12.123   1.893  73.674  1.00  0.00    -0.127 N  
HETATM    2  C   UNL     1     -10.885   2.469  73.702  1.00  0.00    -0.191 C  
HETATM    3  H1  UNL     1     -12.811   2.188  72.982  1.00  0.00     0.000 HD 
HETATM    4  H2  UNL     1     -12.359   1.165  74.348  1.00  0.00     0.000 HD 
HETATM    5  O   UNL     1     -10.057   2.114  74.535  1.00  0.00    -0.104 OA 
ENDROOT
BRANCH   2   6
HETATM    6  C   UNL     1     -10.652   3.471  72.691  1.00  0.00    -0.050 A  
HETATM    7  C   UNL     1     -10.861   4.837  72.718  1.00  0.00    -0.280 A  
HETATM    8  C   UNL     1     -10.419   5.345  71.473  1.00  0.00    -0.289 A  
HETATM    9  C   UNL     1     -10.334   6.619  70.884  1.00  0.00    -0.237 A  
HETATM   10  C   UNL     1      -9.837   6.777  69.575  1.00  0.00    -0.157 A  
HETATM   11  C   UNL     1      -9.436   5.614  68.891  1.00  0.00    -0.157 A  
HETATM   12  O   UNL     1     -10.128   3.107  71.475  1.00  0.00    -0.128 OA 
HETATM   13  C   UNL     1      -9.991   4.247  70.743  1.00  0.00    -0.154 A  
HETATM   14  C   UNL     1      -9.496   4.328  69.451  1.00  0.00    -0.256 A  
BRANCH  10  15
HETATM   15  N   UNL     1      -9.776   8.021  68.981  1.00  0.00    -0.157 NA 
HETATM   16  C   UNL     1      -9.491   8.198  67.549  1.00  0.00    -0.152 C  
HETATM   17  N   UNL     1     -10.557  10.506  67.623  1.00  0.00    -0.230 NA 
HETATM   18  C   UNL     1     -10.503   9.190  66.936  1.00  0.00    -0.217 C  
HETATM   19  C   UNL     1      -9.887   9.267  69.759  1.00  0.00    -0.188 C  
HETATM   20  C   UNL     1     -10.854  10.250  69.054  1.00  0.00    -0.230 C  
BRANCH  17  21
HETATM   21  C   UNL     1      -9.306  11.268  67.477  1.00  0.00    -0.162 C  
BRANCH  21  22
HETATM   22  C   UNL     1      -9.313  12.594  68.251  1.00  0.00    -0.195 C  
BRANCH  22  23
HETATM   23  C   UNL     1      -9.489  13.827  67.362  1.00  0.00    -0.224 C  
BRANCH  23  24
HETATM   24  C   UNL     1      -9.568  15.110  68.186  1.00  0.00    -0.205 C  
BRANCH  24  25
HETATM   25  C   UNL     1      -9.701  16.325  67.336  1.00  0.00    -0.234 A  
HETATM   26  C   UNL     1     -10.437  16.435  66.173  1.00  0.00    -0.314 A  
HETATM   27  N   UNL     1     -10.275  17.702  65.686  1.00  0.00    -0.614 NA 
HETATM   28  H   UNL     1     -10.706  18.057  64.833  1.00  0.00     0.000 HD 
HETATM   29  C   UNL     1      -9.446  18.428  66.508  1.00  0.00    -0.317 A  
HETATM   30  C   UNL     1      -9.077  17.593  67.559  1.00  0.00    -0.239 A  
HETATM   31  C   UNL     1      -8.224  18.103  68.566  1.00  0.00    -0.320 A  
HETATM   32  C   UNL     1      -7.762  19.423  68.473  1.00  0.00    -0.380 A  
HETATM   33  C   UNL     1      -8.149  20.231  67.401  1.00  0.00    -0.377 A  
HETATM   34  C   UNL     1      -6.888  19.943  69.486  1.00  0.00    -0.278 C  
HETATM   35  N   UNL     1      -6.178  20.370  70.299  1.00  0.00    -0.450 NA 
HETATM   36  C   UNL     1      -9.000  19.750  66.399  1.00  0.00    -0.440 A  
ENDBRANCH  24  25
ENDBRANCH  23  24
ENDBRANCH  22  23
ENDBRANCH  21  22
ENDBRANCH  17  21
ENDBRANCH  10  15
ENDBRANCH   2   6
TORSDOF 7
ENDMDL
MODEL      130
REMARK 921   NORMALIZED FREE ENERGY PREDICTED BY IDOCK:   -5.21 KCAL/MOL
REMARK 922        TOTAL FREE ENERGY PREDICTED BY IDOCK:   -8.62 KCAL/MOL
REMARK 923 INTER-LIGAND FREE ENERGY PREDICTED BY IDOCK:   -7.21 KCAL/MOL
REMARK 924 INTRA-LIGAND FREE ENERGY PREDICTED BY IDOCK:   -1.41 KCAL/MOL
REMARK 927      BINDING AFFINITY PREDICTED BY RF-SCORE:    0.00 PKD
ROOT
HETATM    1  N   UNL     1      -7.334   4.729  64.574  1.00  0.00    -0.065 N  
HETATM    2  C   UNL     1      -7.507   6.001  64.108  1.00  0.00    -0.079 C  
HETATM    3  H1  UNL     1      -7.663   4.475  65.505  1.00  0.00     0.000 HD 
HETATM    4  H2  UNL     1      -6.875   4.031  63.989  1.00  0.00     0.000 HD 
HETATM    5  O   UNL     1      -7.111   6.307  62.987  1.00  0.00    -0.047 OA 
ENDROOT
BRANCH   2   6
HETATM    6  C   UNL     1      -8.187   6.898  65.010  1.00  0.00    -0.096 A  
HETATM    7  C   UNL     1      -8.816   6.650  66.215  1.00  0.00    -0.156 A  
HETATM    8  C   UNL     1      -9.276   7.896  66.702  1.00  0.00    -0.221 A  
HETATM    9  C   UNL     1      -9.953   8.334  67.854  1.00  0.00    -0.227 A  
HETATM   10  C   UNL     1     -10.280   9.693  68.027  1.00  0.00    -0.194 A  
HETATM   11  C   UNL     1      -9.903  10.584  67.004  1.00  0.00    -0.223 A  
HETATM   12  O   UNL     1      -8.262   8.237  64.716  1.00  0.00    -0.149 OA 
HETATM   13  C   UNL     1      -8.924   8.834  65.744  1.00  0.00    -0.206 A  
HETATM   14  C   UNL     1      -9.217  10.185  65.846  1.00  0.00    -0.203 A  
BRANCH  10  15
HETATM   15  N   UNL     1     -10.969  10.125  69.142  1.00  0.00    -0.226 NA 
HETATM   16  C   UNL     1     -12.183  10.949  69.048  1.00  0.00    -0.042 C  
HETATM   17  N   UNL     1     -12.855  10.224  71.393  1.00  0.00    -0.404 NA 
HETATM   18  C   UNL     1     -13.276  10.373  69.976  1.00  0.00     0.430 C  
HETATM   19  C   UNL     1     -10.478   9.881  70.509  1.00  0.00    -0.264 C  
HETATM   20  C   UNL     1     -11.634   9.379  71.409  1.00  0.00    -0.381 C  
BRANCH  17  21
HETATM   21  C   UNL     1     -12.602  11.520  72.043  1.00  0.00     0.185 C  
BRANCH  21  22
HETATM   22  C   UNL     1     -13.798  12.479  71.962  1.00  0.00    -0.083 C  
BRANCH  22  23
HETATM   23  C   UNL     1     -13.461  13.920  72.350  1.00  0.00    -0.661 C  
BRANCH  23  24
HETATM   24  C   UNL     1     -13.759  14.895  71.212  1.00  0.00    -0.505 C  
BRANCH  24  25
HETATM   25  C   UNL     1     -12.521  15.404  70.561  1.00  0.00    -0.468 A  
HETATM   26  C   UNL     1     -11.619  16.299  71.102  1.00  0.00    -0.328 A  
HETATM   27  N   UNL     1     -10.639  16.525  70.176  1.00  0.00    -0.171 NA 
HETATM   28  H   UNL     1      -9.843  17.149  70.311  1.00  0.00     0.000 HD 
HETATM   29  C   UNL     1     -10.878  15.794  69.036  1.00  0.00    -0.248 A  
HETATM   30  C   UNL     1     -12.049  15.072  69.251  1.00  0.00    -0.282 A  
HETATM   31  C   UNL     1     -12.521  14.219  68.226  1.00  0.00     0.210 A  
HETATM   32  C   UNL     1     -11.811  14.135  67.021  1.00  0.00    -0.458 A  
HETATM   33  C   UNL     1     -10.643  14.878  66.837  1.00  0.00    -0.300 A  
HETATM   34  C   UNL     1     -12.290  13.279  65.972  1.00  0.00    -0.386 C  
HETATM   35  N   UNL     1     -12.673  12.592  65.117  1.00  0.00    -0.732 NA 
HETATM   36  C   UNL     1     -10.153  15.721  67.842  1.00  0.00    -0.230 A  
ENDBRANCH  24  25
ENDBRANCH  23  24
ENDBRANCH  22  23
ENDBRANCH  21  22
ENDBRANCH  17  21
ENDBRANCH  10  15
ENDBRANCH   2   6
TORSDOF 7
ENDMDL
MODEL      131
REMARK 921   NORMALIZED FREE ENERGY PREDICTED BY IDOCK:   -5.20 KCAL/MOL
REMARK 922        TOTAL FREE ENERGY PREDICTED BY IDOCK:   -8.61 KCAL/MOL
REMARK 923 INTER-LIGAND FREE ENERGY PREDICTED BY IDOCK:   -7.92 KCAL/MOL
REMARK 924 INTRA-LIGAND FREE ENERGY PREDICTED BY IDOCK:   -0.69 KCAL/MOL
REMARK 927      BINDING AFFINITY PREDICTED BY RF-SCORE:    0.00 PKD
ROOT
HETATM    1  N   UNL     1     -11.465   3.936  73.426  1.00  0.00    -0.169 N  
HETATM    2  C   UNL     1     -10.272   3.729  72.794  1.00  0.00    -0.166 C  
HETATM    3  H1  UNL     1     -12.031   4.753  73.198  1.00  0.00     0.000 HD 
HETATM    4  H2  UNL     1     -11.791   3.272  74.127  1.00  0.00     0.000 HD 
HETATM    5  O   UNL     1      -9.591   2.746  73.068  1.00  0.00    -0.092 OA 
ENDROOT
BRANCH   2   6
HETATM    6  C   UNL     1      -9.921   4.720  71.806  1.00  0.00    -0.190 A  
HETATM    7  C   UNL     1     -10.622   5.820  71.352  1.00  0.00    -0.313 A  
HETATM    8  C   UNL     1      -9.793   6.476  70.411  1.00  0.00    -0.193 A  
HETATM    9  C   UNL     1      -9.894   7.636  69.622  1.00  0.00    -0.181 A  
HETATM   10  C   UNL     1      -8.852   8.010  68.752  1.00  0.00    -0.138 A  
HETATM   11  C   UNL     1      -7.717   7.179  68.707  1.00  0.00    -0.116 A  
HETATM   12  O   UNL     1      -8.707   4.649  71.168  1.00  0.00    -0.112 OA 
HETATM   13  C   UNL     1      -8.638   5.715  70.325  1.00  0.00    -0.131 A  
HETATM   14  C   UNL     1      -7.575   6.021  69.488  1.00  0.00    -0.093 A  
BRANCH  10  15
HETATM   15  N   UNL     1      -8.957   9.132  67.955  1.00  0.00    -0.128 NA 
HETATM   16  C   UNL     1      -8.929  10.495  68.504  1.00  0.00    -0.147 C  
HETATM   17  N   UNL     1      -8.259  11.400  66.223  1.00  0.00    -0.133 NA 
HETATM   18  C   UNL     1      -7.961  11.370  67.678  1.00  0.00    -0.123 C  
HETATM   19  C   UNL     1      -9.210   9.042  66.506  1.00  0.00    -0.179 C  
HETATM   20  C   UNL     1      -8.263   9.997  65.739  1.00  0.00    -0.130 C  
BRANCH  17  21
HETATM   21  C   UNL     1      -9.541  12.059  65.925  1.00  0.00    -0.223 C  
BRANCH  21  22
HETATM   22  C   UNL     1      -9.492  13.583  66.107  1.00  0.00    -0.159 C  
BRANCH  22  23
HETATM   23  C   UNL     1     -10.115  14.068  67.419  1.00  0.00    -0.244 C  
BRANCH  23  24
HETATM   24  C   UNL     1     -11.615  13.786  67.469  1.00  0.00    -0.387 C  
BRANCH  24  25
HETATM   25  C   UNL     1     -11.962  12.723  68.453  1.00  0.00    -0.275 A  
HETATM   26  C   UNL     1     -11.937  11.361  68.229  1.00  0.00    -0.164 A  
HETATM   27  N   UNL     1     -12.348  10.736  69.374  1.00  0.00    -0.631 NA 
HETATM   28  H   UNL     1     -12.426   9.726  69.490  1.00  0.00     0.000 HD 
HETATM   29  C   UNL     1     -12.640  11.663  70.347  1.00  0.00    -0.132 A  
HETATM   30  C   UNL     1     -12.398  12.921  69.801  1.00  0.00    -0.118 A  
HETATM   31  C   UNL     1     -12.613  14.064  70.605  1.00  0.00    -0.414 A  
HETATM   32  C   UNL     1     -13.075  13.905  71.918  1.00  0.00    -0.469 A  
HETATM   33  C   UNL     1     -13.313  12.628  72.432  1.00  0.00    -0.424 A  
HETATM   34  C   UNL     1     -13.305  15.062  72.736  1.00  0.00    -0.481 C  
HETATM   35  N   UNL     1     -13.497  15.993  73.403  1.00  0.00    -0.585 NA 
HETATM   36  C   UNL     1     -13.098  11.482  71.656  1.00  0.00    -0.478 A  
ENDBRANCH  24  25
ENDBRANCH  23  24
ENDBRANCH  22  23
ENDBRANCH  21  22
ENDBRANCH  17  21
ENDBRANCH  10  15
ENDBRANCH   2   6
TORSDOF 7
ENDMDL
MODEL      132
REMARK 921   NORMALIZED FREE ENERGY PREDICTED BY IDOCK:   -5.20 KCAL/MOL
REMARK 922        TOTAL FREE ENERGY PREDICTED BY IDOCK:   -8.60 KCAL/MOL
REMARK 923 INTER-LIGAND FREE ENERGY PREDICTED BY IDOCK:   -7.56 KCAL/MOL
REMARK 924 INTRA-LIGAND FREE ENERGY PREDICTED BY IDOCK:   -1.03 KCAL/MOL
REMARK 927      BINDING AFFINITY PREDICTED BY RF-SCORE:    0.00 PKD
ROOT
HETATM    1  N   UNL     1     -12.885   4.667  73.064  1.00  0.00     0.414 N  
HETATM    2  C   UNL     1     -11.624   5.190  73.091  1.00  0.00    -0.203 C  
HETATM    3  H1  UNL     1     -13.603   5.089  72.475  1.00  0.00     0.000 HD 
HETATM    4  H2  UNL     1     -13.110   3.852  73.635  1.00  0.00     0.000 HD 
HETATM    5  O   UNL     1     -10.760   4.683  73.800  1.00  0.00    -0.234 OA 
ENDROOT
BRANCH   2   6
HETATM    6  C   UNL     1     -11.413   6.329  72.230  1.00  0.00    -0.306 A  
HETATM    7  C   UNL     1     -11.673   7.670  72.438  1.00  0.00    -0.366 A  
HETATM    8  C   UNL     1     -11.231   8.357  71.283  1.00  0.00    -0.309 A  
HETATM    9  C   UNL     1     -11.184   9.702  70.873  1.00  0.00    -0.422 A  
HETATM   10  C   UNL     1     -10.673  10.053  69.608  1.00  0.00    -0.255 A  
HETATM   11  C   UNL     1     -10.219   9.009  68.781  1.00  0.00    -0.226 A  
HETATM   12  O   UNL     1     -10.857   6.152  70.987  1.00  0.00    -0.253 OA 
HETATM   13  C   UNL     1     -10.751   7.384  70.420  1.00  0.00    -0.237 A  
HETATM   14  C   UNL     1     -10.239   7.658  69.160  1.00  0.00    -0.204 A  
BRANCH  10  15
HETATM   15  N   UNL     1     -10.650  11.368  69.189  1.00  0.00    -0.194 NA 
HETATM   16  C   UNL     1      -9.514  11.941  68.451  1.00  0.00    -0.189 C  
HETATM   17  N   UNL     1     -11.023  13.786  67.562  1.00  0.00    -0.268 NA 
HETATM   18  C   UNL     1     -10.032  12.730  67.229  1.00  0.00    -0.219 C  
HETATM   19  C   UNL     1     -11.716  12.322  69.543  1.00  0.00    -0.332 C  
HETATM   20  C   UNL     1     -12.138  13.136  68.295  1.00  0.00    -0.179 C  
BRANCH  17  21
HETATM   21  C   UNL     1     -10.437  14.875  68.360  1.00  0.00    -0.243 C  
BRANCH  21  22
HETATM   22  C   UNL     1     -11.204  16.198  68.230  1.00  0.00    -0.343 C  
BRANCH  22  23
HETATM   23  C   UNL     1     -10.415  17.301  67.519  1.00  0.00    -0.356 C  
BRANCH  23  24
HETATM   24  C   UNL     1      -8.985  16.861  67.210  1.00  0.00    -0.212 C  
BRANCH  24  25
HETATM   25  C   UNL     1      -7.991  17.469  68.137  1.00  0.00    -0.250 A  
HETATM   26  C   UNL     1      -7.721  18.815  68.281  1.00  0.00    -0.299 A  
HETATM   27  N   UNL     1      -6.729  18.952  69.211  1.00  0.00    -0.295 NA 
HETATM   28  H   UNL     1      -6.331  19.842  69.512  1.00  0.00     0.000 HD 
HETATM   29  C   UNL     1      -6.343  17.720  69.684  1.00  0.00    -0.174 A  
HETATM   30  C   UNL     1      -7.124  16.768  69.035  1.00  0.00    -0.221 A  
HETATM   31  C   UNL     1      -6.935  15.403  69.350  1.00  0.00    -0.181 A  
HETATM   32  C   UNL     1      -5.960  15.042  70.289  1.00  0.00    -0.150 A  
HETATM   33  C   UNL     1      -5.189  16.023  70.918  1.00  0.00    -0.142 A  
HETATM   34  C   UNL     1      -5.755  13.657  70.606  1.00  0.00    -0.187 C  
HETATM   35  N   UNL     1      -5.581  12.538  70.864  1.00  0.00    -0.285 NA 
HETATM   36  C   UNL     1      -5.367  17.381  70.629  1.00  0.00    -0.243 A  
ENDBRANCH  24  25
ENDBRANCH  23  24
ENDBRANCH  22  23
ENDBRANCH  21  22
ENDBRANCH  17  21
ENDBRANCH  10  15
ENDBRANCH   2   6
TORSDOF 7
ENDMDL
MODEL      133
REMARK 921   NORMALIZED FREE ENERGY PREDICTED BY IDOCK:   -5.16 KCAL/MOL
REMARK 922        TOTAL FREE ENERGY PREDICTED BY IDOCK:   -8.55 KCAL/MOL
REMARK 923 INTER-LIGAND FREE ENERGY PREDICTED BY IDOCK:   -7.75 KCAL/MOL
REMARK 924 INTRA-LIGAND FREE ENERGY PREDICTED BY IDOCK:   -0.80 KCAL/MOL
REMARK 927      BINDING AFFINITY PREDICTED BY RF-SCORE:    0.00 PKD
ROOT
HETATM    1  N   UNL     1      -9.657   3.169  65.949  1.00  0.00    -0.383 N  
HETATM    2  C   UNL     1      -9.607   3.580  67.250  1.00  0.00    -0.122 C  
HETATM    3  H1  UNL     1      -9.737   3.854  65.197  1.00  0.00     0.000 HD 
HETATM    4  H2  UNL     1      -9.613   2.174  65.728  1.00  0.00     0.000 HD 
HETATM    5  O   UNL     1      -9.510   2.756  68.154  1.00  0.00    -0.206 OA 
ENDROOT
BRANCH   2   6
HETATM    6  C   UNL     1      -9.655   5.008  67.445  1.00  0.00    -0.145 A  
HETATM    7  C   UNL     1     -10.525   5.953  66.935  1.00  0.00    -0.349 A  
HETATM    8  C   UNL     1     -10.145   7.200  67.485  1.00  0.00    -0.241 A  
HETATM    9  C   UNL     1     -10.619   8.521  67.396  1.00  0.00    -0.304 A  
HETATM   10  C   UNL     1      -9.978   9.566  68.090  1.00  0.00    -0.165 A  
HETATM   11  C   UNL     1      -8.852   9.233  68.866  1.00  0.00    -0.135 A  
HETATM   12  O   UNL     1      -8.737   5.618  68.263  1.00  0.00    -0.107 OA 
HETATM   13  C   UNL     1      -9.040   6.945  68.281  1.00  0.00    -0.125 A  
HETATM   14  C   UNL     1      -8.358   7.924  68.987  1.00  0.00    -0.130 A  
BRANCH  10  15
HETATM   15  N   UNL     1     -10.422  10.869  67.985  1.00  0.00    -0.182 NA 
HETATM   16  C   UNL     1     -11.745  11.293  68.465  1.00  0.00    -0.308 C  
HETATM   17  N   UNL     1     -10.932  13.701  68.581  1.00  0.00    -0.258 NA 
HETATM   18  C   UNL     1     -11.608  12.587  69.296  1.00  0.00    -0.319 C  
HETATM   19  C   UNL     1      -9.643  11.908  67.289  1.00  0.00    -0.177 C  
HETATM   20  C   UNL     1      -9.606  13.204  68.135  1.00  0.00    -0.227 C  
BRANCH  17  21
HETATM   21  C   UNL     1     -11.717  14.194  67.439  1.00  0.00    -0.391 C  
BRANCH  21  22
HETATM   22  C   UNL     1     -11.001  15.296  66.645  1.00  0.00    -0.297 C  
BRANCH  22  23
HETATM   23  C   UNL     1     -10.852  16.612  67.413  1.00  0.00    -0.186 C  
BRANCH  23  24
HETATM   24  C   UNL     1     -10.185  17.689  66.560  1.00  0.00    -0.355 C  
BRANCH  24  25
HETATM   25  C   UNL     1      -9.089  18.390  67.286  1.00  0.00    -0.268 A  
HETATM   26  C   UNL     1      -8.840  19.748  67.278  1.00  0.00    -0.326 A  
HETATM   27  N   UNL     1      -7.733  19.980  68.046  1.00  0.00    -0.291 NA 
HETATM   28  H   UNL     1      -7.323  20.899  68.213  1.00  0.00     0.000 HD 
HETATM   29  C   UNL     1      -7.251  18.799  68.560  1.00  0.00    -0.292 A  
HETATM   30  C   UNL     1      -8.087  17.783  68.107  1.00  0.00    -0.265 A  
HETATM   31  C   UNL     1      -7.817  16.452  68.503  1.00  0.00    -0.197 A  
HETATM   32  C   UNL     1      -6.712  16.190  69.323  1.00  0.00    -0.198 A  
HETATM   33  C   UNL     1      -5.889  17.233  69.754  1.00  0.00    -0.236 A  
HETATM   34  C   UNL     1      -6.426  14.840  69.721  1.00  0.00    -0.160 C  
HETATM   35  N   UNL     1      -6.186  13.750  70.043  1.00  0.00    -0.137 NA 
HETATM   36  C   UNL     1      -6.144  18.559  69.382  1.00  0.00    -0.268 A  
ENDBRANCH  24  25
ENDBRANCH  23  24
ENDBRANCH  22  23
ENDBRANCH  21  22
ENDBRANCH  17  21
ENDBRANCH  10  15
ENDBRANCH   2   6
TORSDOF 7
ENDMDL
MODEL      134
REMARK 921   NORMALIZED FREE ENERGY PREDICTED BY IDOCK:   -5.12 KCAL/MOL
REMARK 922        TOTAL FREE ENERGY PREDICTED BY IDOCK:   -8.50 KCAL/MOL
REMARK 923 INTER-LIGAND FREE ENERGY PREDICTED BY IDOCK:   -7.44 KCAL/MOL
REMARK 924 INTRA-LIGAND FREE ENERGY PREDICTED BY IDOCK:   -1.05 KCAL/MOL
REMARK 927      BINDING AFFINITY PREDICTED BY RF-SCORE:    0.00 PKD
ROOT
HETATM    1  N   UNL     1     -11.156  19.868  65.463  1.00  0.00    -0.086 N  
HETATM    2  C   UNL     1      -9.982  19.585  66.101  1.00  0.00    -0.444 C  
HETATM    3  H1  UNL     1     -11.791  19.115  65.199  1.00  0.00     0.000 HD 
HETATM    4  H2  UNL     1     -11.398  20.835  65.249  1.00  0.00     0.000 HD 
HETATM    5  O   UNL     1      -9.218  20.491  66.419  1.00  0.00    -0.187 OA 
ENDROOT
BRANCH   2   6
HETATM    6  C   UNL     1      -9.753  18.186  66.372  1.00  0.00    -0.327 A  
HETATM    7  C   UNL     1      -9.042  17.575  67.387  1.00  0.00    -0.237 A  
HETATM    8  C   UNL     1      -9.179  16.179  67.201  1.00  0.00    -0.220 A  
HETATM    9  C   UNL     1      -8.735  15.029  67.879  1.00  0.00    -0.155 A  
HETATM   10  C   UNL     1      -9.053  13.743  67.402  1.00  0.00    -0.221 A  
HETATM   11  C   UNL     1      -9.824  13.661  66.226  1.00  0.00    -0.310 A  
HETATM   12  O   UNL     1     -10.300  17.232  65.551  1.00  0.00    -0.614 OA 
HETATM   13  C   UNL     1      -9.947  16.020  66.058  1.00  0.00    -0.339 A  
HETATM   14  C   UNL     1     -10.293  14.785  65.530  1.00  0.00    -0.387 A  
BRANCH  10  15
HETATM   15  N   UNL     1      -8.598  12.610  68.047  1.00  0.00    -0.181 NA 
HETATM   16  C   UNL     1      -9.489  11.499  68.412  1.00  0.00    -0.195 C  
HETATM   17  N   UNL     1      -7.486   9.936  68.540  1.00  0.00    -0.081 NA 
HETATM   18  C   UNL     1      -8.848  10.158  67.991  1.00  0.00    -0.125 C  
HETATM   19  C   UNL     1      -7.206  12.480  68.510  1.00  0.00    -0.110 C  
HETATM   20  C   UNL     1      -6.645  11.088  68.127  1.00  0.00    -0.058 C  
BRANCH  17  21
HETATM   21  C   UNL     1      -7.488   9.789  70.004  1.00  0.00    -0.154 C  
BRANCH  21  22
HETATM   22  C   UNL     1      -6.173   9.217  70.555  1.00  0.00    -0.058 C  
BRANCH  22  23
HETATM   23  C   UNL     1      -6.256   8.780  72.019  1.00  0.00    -0.075 C  
BRANCH  23  24
HETATM   24  C   UNL     1      -6.687   7.320  72.149  1.00  0.00    -0.055 C  
BRANCH  24  25
HETATM   25  C   UNL     1      -8.104   7.182  72.585  1.00  0.00    -0.118 A  
HETATM   26  C   UNL     1      -8.568   7.220  73.885  1.00  0.00    -0.180 A  
HETATM   27  N   UNL     1      -9.922   7.029  73.858  1.00  0.00    -0.313 NA 
HETATM   28  H   UNL     1     -10.523   7.009  74.681  1.00  0.00     0.000 HD 
HETATM   29  C   UNL     1     -10.356   6.869  72.563  1.00  0.00    -0.196 A  
HETATM   30  C   UNL     1      -9.238   6.969  71.739  1.00  0.00    -0.145 A  
HETATM   31  C   UNL     1      -9.411   6.849  70.341  1.00  0.00    -0.159 A  
HETATM   32  C   UNL     1     -10.692   6.618  69.823  1.00  0.00    -0.304 A  
HETATM   33  C   UNL     1     -11.791   6.516  70.679  1.00  0.00    -0.398 A  
HETATM   34  C   UNL     1     -10.872   6.485  68.405  1.00  0.00    -0.289 C  
HETATM   35  N   UNL     1     -11.025   6.372  67.259  1.00  0.00    -0.380 NA 
HETATM   36  C   UNL     1     -11.644   6.642  72.066  1.00  0.00    -0.341 A  
ENDBRANCH  24  25
ENDBRANCH  23  24
ENDBRANCH  22  23
ENDBRANCH  21  22
ENDBRANCH  17  21
ENDBRANCH  10  15
ENDBRANCH   2   6
TORSDOF 7
ENDMDL
MODEL      135
REMARK 921   NORMALIZED FREE ENERGY PREDICTED BY IDOCK:   -5.11 KCAL/MOL
REMARK 922        TOTAL FREE ENERGY PREDICTED BY IDOCK:   -8.48 KCAL/MOL
REMARK 923 INTER-LIGAND FREE ENERGY PREDICTED BY IDOCK:   -7.94 KCAL/MOL
REMARK 924 INTRA-LIGAND FREE ENERGY PREDICTED BY IDOCK:   -0.54 KCAL/MOL
REMARK 927      BINDING AFFINITY PREDICTED BY RF-SCORE:    0.00 PKD
ROOT
HETATM    1  N   UNL     1      -8.713  19.928  65.934  1.00  0.00    -0.423 N  
HETATM    2  C   UNL     1      -9.933  19.356  66.154  1.00  0.00    -0.425 C  
HETATM    3  H1  UNL     1      -7.888  19.344  65.802  1.00  0.00     0.000 HD 
HETATM    4  H2  UNL     1      -8.627  20.944  65.902  1.00  0.00     0.000 HD 
HETATM    5  O   UNL     1     -10.926  20.060  66.312  1.00  0.00    -0.266 OA 
ENDROOT
BRANCH   2   6
HETATM    6  C   UNL     1      -9.942  17.913  66.158  1.00  0.00    -0.283 A  
HETATM    7  C   UNL     1      -9.337  17.016  67.017  1.00  0.00    -0.249 A  
HETATM    8  C   UNL     1      -9.711  15.721  66.588  1.00  0.00    -0.266 A  
HETATM    9  C   UNL     1      -9.463  14.408  67.029  1.00  0.00    -0.255 A  
HETATM   10  C   UNL     1      -9.999  13.303  66.340  1.00  0.00    -0.288 A  
HETATM   11  C   UNL     1     -10.782  13.567  65.201  1.00  0.00    -0.349 A  
HETATM   12  O   UNL     1     -10.651  17.231  65.200  1.00  0.00    -0.686 OA 
HETATM   13  C   UNL     1     -10.504  15.904  65.466  1.00  0.00    -0.404 A  
HETATM   14  C   UNL     1     -11.059  14.863  64.738  1.00  0.00    -0.395 A  
BRANCH  10  15
HETATM   15  N   UNL     1      -9.737  12.011  66.752  1.00  0.00    -0.203 NA 
HETATM   16  C   UNL     1     -10.705  10.918  66.581  1.00  0.00    -0.230 C  
HETATM   17  N   UNL     1      -8.820   9.220  66.773  1.00  0.00    -0.126 NA 
HETATM   18  C   UNL     1      -9.994   9.682  65.988  1.00  0.00    -0.274 C  
HETATM   19  C   UNL     1      -8.512  11.657  67.489  1.00  0.00    -0.150 C  
HETATM   20  C   UNL     1      -7.888  10.369  66.898  1.00  0.00    -0.114 C  
BRANCH  17  21
HETATM   21  C   UNL     1      -9.198   8.706  68.099  1.00  0.00    -0.137 C  
BRANCH  21  22
HETATM   22  C   UNL     1     -10.653   8.220  68.165  1.00  0.00    -0.169 C  
BRANCH  22  23
HETATM   23  C   UNL     1     -10.793   6.748  68.562  1.00  0.00    -0.280 C  
BRANCH  23  24
HETATM   24  C   UNL     1      -9.434   6.058  68.657  1.00  0.00    -0.134 C  
BRANCH  24  25
HETATM   25  C   UNL     1      -9.356   5.113  69.806  1.00  0.00    -0.182 A  
HETATM   26  C   UNL     1      -9.621   3.759  69.772  1.00  0.00    -0.183 A  
HETATM   27  N   UNL     1      -9.459   3.263  71.036  1.00  0.00    -0.148 NA 
HETATM   28  H   UNL     1      -9.593   2.287  71.300  1.00  0.00     0.000 HD 
HETATM   29  C   UNL     1      -9.090   4.267  71.900  1.00  0.00    -0.122 A  
HETATM   30  C   UNL     1      -9.008   5.440  71.155  1.00  0.00    -0.155 A  
HETATM   31  C   UNL     1      -8.632   6.637  71.809  1.00  0.00    -0.126 A  
HETATM   32  C   UNL     1      -8.370   6.615  73.185  1.00  0.00    -0.122 A  
HETATM   33  C   UNL     1      -8.468   5.421  73.903  1.00  0.00    -0.113 A  
HETATM   34  C   UNL     1      -7.998   7.829  73.857  1.00  0.00    -0.181 C  
HETATM   35  N   UNL     1      -7.701   8.807  74.408  1.00  0.00    -0.401 NA 
HETATM   36  C   UNL     1      -8.828   4.224  73.274  1.00  0.00    -0.098 A  
ENDBRANCH  24  25
ENDBRANCH  23  24
ENDBRANCH  22  23
ENDBRANCH  21  22
ENDBRANCH  17  21
ENDBRANCH  10  15
ENDBRANCH   2   6
TORSDOF 7
ENDMDL
MODEL      136
REMARK 921   NORMALIZED FREE ENERGY PREDICTED BY IDOCK:   -5.10 KCAL/MOL
REMARK 922        TOTAL FREE ENERGY PREDICTED BY IDOCK:   -8.47 KCAL/MOL
REMARK 923 INTER-LIGAND FREE ENERGY PREDICTED BY IDOCK:   -7.62 KCAL/MOL
REMARK 924 INTRA-LIGAND FREE ENERGY PREDICTED BY IDOCK:   -0.85 KCAL/MOL
REMARK 927      BINDING AFFINITY PREDICTED BY RF-SCORE:    0.00 PKD
ROOT
HETATM    1  N   UNL     1      -8.386   2.356  71.387  1.00  0.00    -0.057 N  
HETATM    2  C   UNL     1      -9.538   3.060  71.597  1.00  0.00    -0.151 C  
HETATM    3  H1  UNL     1      -7.753   2.621  70.633  1.00  0.00     0.000 HD 
HETATM    4  H2  UNL     1      -8.159   1.564  71.987  1.00  0.00     0.000 HD 
HETATM    5  O   UNL     1     -10.299   2.742  72.505  1.00  0.00    -0.161 OA 
ENDROOT
BRANCH   2   6
HETATM    6  C   UNL     1      -9.748   4.174  70.704  1.00  0.00    -0.203 A  
HETATM    7  C   UNL     1      -9.876   5.523  70.969  1.00  0.00    -0.238 A  
HETATM    8  C   UNL     1     -10.020   6.175  69.722  1.00  0.00    -0.213 A  
HETATM    9  C   UNL     1     -10.164   7.509  69.299  1.00  0.00    -0.201 A  
HETATM   10  C   UNL     1     -10.300   7.821  67.932  1.00  0.00    -0.217 A  
HETATM   11  C   UNL     1     -10.286   6.750  67.019  1.00  0.00    -0.338 A  
HETATM   12  O   UNL     1      -9.834   3.958  69.351  1.00  0.00    -0.161 OA 
HETATM   13  C   UNL     1     -10.001   5.174  68.764  1.00  0.00    -0.166 A  
HETATM   14  C   UNL     1     -10.133   5.408  67.403  1.00  0.00    -0.223 A  
BRANCH  10  15
HETATM   15  N   UNL     1     -10.469   9.125  67.512  1.00  0.00    -0.261 NA 
HETATM   16  C   UNL     1     -11.078  10.156  68.365  1.00  0.00    -0.218 C  
HETATM   17  N   UNL     1      -9.971  11.968  66.965  1.00  0.00    -0.203 NA 
HETATM   18  C   UNL     1     -10.216  11.437  68.330  1.00  0.00    -0.198 C  
HETATM   19  C   UNL     1     -10.149   9.553  66.139  1.00  0.00    -0.256 C  
HETATM   20  C   UNL     1      -9.352  10.881  66.167  1.00  0.00    -0.186 C  
BRANCH  17  21
HETATM   21  C   UNL     1     -11.203  12.453  66.322  1.00  0.00    -0.317 C  
BRANCH  21  22
HETATM   22  C   UNL     1     -11.805  13.681  67.020  1.00  0.00    -0.448 C  
BRANCH  22  23
HETATM   23  C   UNL     1     -11.785  14.949  66.163  1.00  0.00    -0.178 C  
BRANCH  23  24
HETATM   24  C   UNL     1     -10.370  15.295  65.701  1.00  0.00    -0.389 C  
BRANCH  24  25
HETATM   25  C   UNL     1      -9.947  16.655  66.135  1.00  0.00    -0.356 A  
HETATM   26  C   UNL     1     -10.425  17.855  65.649  1.00  0.00    -0.104 A  
HETATM   27  N   UNL     1      -9.763  18.866  66.288  1.00  0.00    -0.397 NA 
HETATM   28  H   UNL     1      -9.917  19.860  66.122  1.00  0.00     0.000 HD 
HETATM   29  C   UNL     1      -8.859  18.351  67.188  1.00  0.00    -0.264 A  
HETATM   30  C   UNL     1      -8.958  16.964  67.122  1.00  0.00    -0.219 A  
HETATM   31  C   UNL     1      -8.134  16.182  67.964  1.00  0.00    -0.149 A  
HETATM   32  C   UNL     1      -7.232  16.818  68.827  1.00  0.00    -0.217 A  
HETATM   33  C   UNL     1      -7.155  18.212  68.864  1.00  0.00    -0.282 A  
HETATM   34  C   UNL     1      -6.385  16.030  69.677  1.00  0.00    -0.186 C  
HETATM   35  N   UNL     1      -5.694  15.399  70.365  1.00  0.00    -0.141 NA 
HETATM   36  C   UNL     1      -7.969  19.006  68.046  1.00  0.00    -0.322 A  
ENDBRANCH  24  25
ENDBRANCH  23  24
ENDBRANCH  22  23
ENDBRANCH  21  22
ENDBRANCH  17  21
ENDBRANCH  10  15
ENDBRANCH   2   6
TORSDOF 7
ENDMDL
MODEL      137
REMARK 921   NORMALIZED FREE ENERGY PREDICTED BY IDOCK:   -5.10 KCAL/MOL
REMARK 922        TOTAL FREE ENERGY PREDICTED BY IDOCK:   -8.46 KCAL/MOL
REMARK 923 INTER-LIGAND FREE ENERGY PREDICTED BY IDOCK:   -7.65 KCAL/MOL
REMARK 924 INTRA-LIGAND FREE ENERGY PREDICTED BY IDOCK:   -0.82 KCAL/MOL
REMARK 927      BINDING AFFINITY PREDICTED BY RF-SCORE:    0.00 PKD
ROOT
HETATM    1  N   UNL     1     -10.329   8.657  70.116  1.00  0.00    -0.202 N  
HETATM    2  C   UNL     1     -10.166   9.070  68.824  1.00  0.00    -0.208 C  
HETATM    3  H1  UNL     1     -10.462   9.341  70.860  1.00  0.00     0.000 HD 
HETATM    4  H2  UNL     1     -10.318   7.661  70.336  1.00  0.00     0.000 HD 
HETATM    5  O   UNL     1     -10.007   8.247  67.928  1.00  0.00    -0.166 OA 
ENDROOT
BRANCH   2   6
HETATM    6  C   UNL     1     -10.221  10.498  68.625  1.00  0.00    -0.183 A  
HETATM    7  C   UNL     1      -9.203  11.426  68.515  1.00  0.00    -0.174 A  
HETATM    8  C   UNL     1      -9.816  12.681  68.283  1.00  0.00    -0.227 A  
HETATM    9  C   UNL     1      -9.360  13.993  68.063  1.00  0.00    -0.205 A  
HETATM   10  C   UNL     1     -10.271  15.050  67.872  1.00  0.00    -0.228 A  
HETATM   11  C   UNL     1     -11.643  14.738  67.913  1.00  0.00    -0.373 A  
HETATM   12  O   UNL     1     -11.435  11.125  68.501  1.00  0.00    -0.252 OA 
HETATM   13  C   UNL     1     -11.182  12.447  68.296  1.00  0.00    -0.263 A  
HETATM   14  C   UNL     1     -12.134  13.439  68.119  1.00  0.00    -0.267 A  
BRANCH  10  15
HETATM   15  N   UNL     1      -9.831  16.345  67.682  1.00  0.00    -0.240 NA 
HETATM   16  C   UNL     1      -9.674  16.937  66.346  1.00  0.00    -0.284 C  
HETATM   17  N   UNL     1      -9.807  19.265  67.362  1.00  0.00    -0.322 NA 
HETATM   18  C   UNL     1     -10.318  18.340  66.318  1.00  0.00    -0.405 C  
HETATM   19  C   UNL     1      -9.387  17.192  68.802  1.00  0.00    -0.252 C  
HETATM   20  C   UNL     1     -10.005  18.607  68.678  1.00  0.00    -0.388 C  
BRANCH  17  21
HETATM   21  C   UNL     1      -8.391  19.613  67.159  1.00  0.00    -0.298 C  
BRANCH  21  22
HETATM   22  C   UNL     1      -8.071  20.019  65.713  1.00  0.00    -0.130 C  
BRANCH  22  23
HETATM   23  C   UNL     1      -6.878  19.271  65.112  1.00  0.00    -0.089 C  
BRANCH  23  24
HETATM   24  C   UNL     1      -5.646  19.361  66.010  1.00  0.00    -0.171 C  
BRANCH  24  25
HETATM   25  C   UNL     1      -5.574  18.243  66.991  1.00  0.00    -0.155 A  
HETATM   26  C   UNL     1      -5.621  16.894  66.700  1.00  0.00    -0.080 A  
HETATM   27  N   UNL     1      -5.552  16.203  67.878  1.00  0.00    -0.119 NA 
HETATM   28  H   UNL     1      -5.568  15.187  67.958  1.00  0.00     0.000 HD 
HETATM   29  C   UNL     1      -5.460  17.073  68.938  1.00  0.00    -0.142 A  
HETATM   30  C   UNL     1      -5.462  18.362  68.412  1.00  0.00    -0.172 A  
HETATM   31  C   UNL     1      -5.365  19.459  69.300  1.00  0.00    -0.210 A  
HETATM   32  C   UNL     1      -5.286  19.224  70.679  1.00  0.00    -0.243 A  
HETATM   33  C   UNL     1      -5.292  17.917  71.173  1.00  0.00    -0.128 A  
HETATM   34  C   UNL     1      -5.198  20.333  71.586  1.00  0.00    -0.376 C  
HETATM   35  N   UNL     1      -5.131  21.226  72.326  1.00  0.00    -0.486 NA 
HETATM   36  C   UNL     1      -5.377  16.816  70.311  1.00  0.00    -0.209 A  
ENDBRANCH  24  25
ENDBRANCH  23  24
ENDBRANCH  22  23
ENDBRANCH  21  22
ENDBRANCH  17  21
ENDBRANCH  10  15
ENDBRANCH   2   6
TORSDOF 7
ENDMDL
MODEL      138
REMARK 921   NORMALIZED FREE ENERGY PREDICTED BY IDOCK:   -5.10 KCAL/MOL
REMARK 922        TOTAL FREE ENERGY PREDICTED BY IDOCK:   -8.46 KCAL/MOL
REMARK 923 INTER-LIGAND FREE ENERGY PREDICTED BY IDOCK:   -7.03 KCAL/MOL
REMARK 924 INTRA-LIGAND FREE ENERGY PREDICTED BY IDOCK:   -1.43 KCAL/MOL
REMARK 927      BINDING AFFINITY PREDICTED BY RF-SCORE:    0.00 PKD
ROOT
HETATM    1  N   UNL     1     -10.737  17.431  68.098  1.00  0.00    -0.373 N  
HETATM    2  C   UNL     1     -11.100  16.317  68.799  1.00  0.00    -0.355 C  
HETATM    3  H1  UNL     1     -10.192  17.343  67.240  1.00  0.00     0.000 HD 
HETATM    4  H2  UNL     1     -11.012  18.354  68.433  1.00  0.00     0.000 HD 
HETATM    5  O   UNL     1     -11.756  16.423  69.831  1.00  0.00    -0.134 OA 
ENDROOT
BRANCH   2   6
HETATM    6  C   UNL     1     -10.676  15.064  68.222  1.00  0.00    -0.253 A  
HETATM    7  C   UNL     1      -9.770  14.127  68.681  1.00  0.00    -0.196 A  
HETATM    8  C   UNL     1      -9.769  13.065  67.747  1.00  0.00    -0.218 A  
HETATM    9  C   UNL     1      -9.109  11.828  67.636  1.00  0.00    -0.177 A  
HETATM   10  C   UNL     1      -9.337  10.985  66.531  1.00  0.00    -0.180 A  
HETATM   11  C   UNL     1     -10.243  11.433  65.551  1.00  0.00    -0.312 A  
HETATM   12  O   UNL     1     -11.214  14.643  67.031  1.00  0.00    -0.324 OA 
HETATM   13  C   UNL     1     -10.659  13.433  66.750  1.00  0.00    -0.277 A  
HETATM   14  C   UNL     1     -10.927  12.656  65.633  1.00  0.00    -0.313 A  
BRANCH  10  15
HETATM   15  N   UNL     1      -8.672   9.782  66.403  1.00  0.00    -0.130 NA 
HETATM   16  C   UNL     1      -9.188   8.531  66.978  1.00  0.00    -0.152 C  
HETATM   17  N   UNL     1      -7.760   7.195  65.349  1.00  0.00    -0.103 NA 
HETATM   18  C   UNL     1      -9.115   7.405  65.923  1.00  0.00    -0.028 C  
HETATM   19  C   UNL     1      -7.345   9.685  65.772  1.00  0.00    -0.100 C  
HETATM   20  C   UNL     1      -7.310   8.492  64.784  1.00  0.00    -0.091 C  
BRANCH  17  21
HETATM   21  C   UNL     1      -6.799   6.697  66.346  1.00  0.00    -0.061 C  
BRANCH  21  22
HETATM   22  C   UNL     1      -7.244   5.387  67.012  1.00  0.00    -0.078 C  
BRANCH  22  23
HETATM   23  C   UNL     1      -7.206   5.429  68.541  1.00  0.00    -0.074 C  
BRANCH  23  24
HETATM   24  C   UNL     1      -8.369   4.651  69.156  1.00  0.00    -0.085 C  
BRANCH  24  25
HETATM   25  C   UNL     1      -9.548   5.516  69.434  1.00  0.00    -0.196 A  
HETATM   26  C   UNL     1     -10.732   5.539  68.726  1.00  0.00    -0.125 A  
HETATM   27  N   UNL     1     -11.543   6.488  69.285  1.00  0.00    -0.643 NA 
HETATM   28  H   UNL     1     -12.481   6.718  68.959  1.00  0.00     0.000 HD 
HETATM   29  C   UNL     1     -10.913   7.087  70.351  1.00  0.00    -0.268 A  
HETATM   30  C   UNL     1      -9.661   6.492  70.475  1.00  0.00    -0.180 A  
HETATM   31  C   UNL     1      -8.803   6.923  71.513  1.00  0.00    -0.132 A  
HETATM   32  C   UNL     1      -9.225   7.944  72.375  1.00  0.00    -0.239 A  
HETATM   33  C   UNL     1     -10.486   8.523  72.218  1.00  0.00    -0.402 A  
HETATM   34  C   UNL     1      -8.354   8.393  73.425  1.00  0.00    -0.109 C  
HETATM   35  N   UNL     1      -7.654   8.765  74.273  1.00  0.00    -0.422 NA 
HETATM   36  C   UNL     1     -11.355   8.105  71.203  1.00  0.00    -0.299 A  
ENDBRANCH  24  25
ENDBRANCH  23  24
ENDBRANCH  22  23
ENDBRANCH  21  22
ENDBRANCH  17  21
ENDBRANCH  10  15
ENDBRANCH   2   6
TORSDOF 7
ENDMDL
MODEL      139
REMARK 921   NORMALIZED FREE ENERGY PREDICTED BY IDOCK:   -5.08 KCAL/MOL
REMARK 922        TOTAL FREE ENERGY PREDICTED BY IDOCK:   -8.44 KCAL/MOL
REMARK 923 INTER-LIGAND FREE ENERGY PREDICTED BY IDOCK:   -7.47 KCAL/MOL
REMARK 924 INTRA-LIGAND FREE ENERGY PREDICTED BY IDOCK:   -0.97 KCAL/MOL
REMARK 927      BINDING AFFINITY PREDICTED BY RF-SCORE:    0.00 PKD
ROOT
HETATM    1  N   UNL     1     -11.409   6.921  73.559  1.00  0.00    -0.410 N  
HETATM    2  C   UNL     1     -10.903   5.708  73.188  1.00  0.00    -0.281 C  
HETATM    3  H1  UNL     1     -11.409   7.700  72.901  1.00  0.00     0.000 HD 
HETATM    4  H2  UNL     1     -11.789   7.048  74.497  1.00  0.00     0.000 HD 
HETATM    5  O   UNL     1     -10.903   4.770  73.980  1.00  0.00    -0.290 OA 
ENDROOT
BRANCH   2   6
HETATM    6  C   UNL     1     -10.413   5.636  71.833  1.00  0.00    -0.225 A  
HETATM    7  C   UNL     1     -10.152   6.639  70.920  1.00  0.00    -0.208 A  
HETATM    8  C   UNL     1      -9.645   6.014  69.757  1.00  0.00    -0.180 A  
HETATM    9  C   UNL     1      -9.177   6.454  68.506  1.00  0.00    -0.124 A  
HETATM   10  C   UNL     1      -8.738   5.533  67.535  1.00  0.00    -0.107 A  
HETATM   11  C   UNL     1      -8.792   4.166  67.868  1.00  0.00    -0.131 A  
HETATM   12  O   UNL     1     -10.117   4.416  71.277  1.00  0.00    -0.186 OA 
HETATM   13  C   UNL     1      -9.654   4.653  70.019  1.00  0.00    -0.188 A  
HETATM   14  C   UNL     1      -9.242   3.691  69.110  1.00  0.00    -0.226 A  
BRANCH  10  15
HETATM   15  N   UNL     1      -8.303   5.956  66.295  1.00  0.00    -0.113 NA 
HETATM   16  C   UNL     1      -7.366   7.077  66.128  1.00  0.00    -0.075 C  
HETATM   17  N   UNL     1      -6.736   6.206  63.822  1.00  0.00    -0.036 NA 
HETATM   18  C   UNL     1      -6.246   6.676  65.144  1.00  0.00    -0.038 C  
HETATM   19  C   UNL     1      -8.829   5.384  65.044  1.00  0.00    -0.082 C  
HETATM   20  C   UNL     1      -7.666   5.075  64.069  1.00  0.00    -0.079 C  
BRANCH  17  21
HETATM   21  C   UNL     1      -7.401   7.273  63.058  1.00  0.00    -0.085 C  
BRANCH  21  22
HETATM   22  C   UNL     1      -6.533   8.529  62.894  1.00  0.00    -0.090 C  
BRANCH  22  23
HETATM   23  C   UNL     1      -7.145   9.787  63.514  1.00  0.00    -0.115 C  
BRANCH  23  24
HETATM   24  C   UNL     1      -8.478   9.488  64.197  1.00  0.00    -0.194 C  
BRANCH  24  25
HETATM   25  C   UNL     1      -9.437  10.623  64.095  1.00  0.00    -0.327 A  
HETATM   26  C   UNL     1      -9.737  11.342  62.955  1.00  0.00    -0.366 A  
HETATM   27  N   UNL     1     -10.640  12.312  63.291  1.00  0.00    -0.557 NA 
HETATM   28  H   UNL     1     -11.034  12.990  62.640  1.00  0.00     0.000 HD 
HETATM   29  C   UNL     1     -10.940  12.243  64.632  1.00  0.00    -0.306 A  
HETATM   30  C   UNL     1     -10.206  11.185  65.162  1.00  0.00    -0.347 A  
HETATM   31  C   UNL     1     -10.340  10.888  66.538  1.00  0.00    -0.299 A  
HETATM   32  C   UNL     1     -11.190  11.669  67.332  1.00  0.00    -0.358 A  
HETATM   33  C   UNL     1     -11.907  12.727  66.768  1.00  0.00    -0.452 A  
HETATM   34  C   UNL     1     -11.322  11.378  68.732  1.00  0.00    -0.271 C  
HETATM   35  N   UNL     1     -11.431  11.152  69.866  1.00  0.00    -0.296 NA 
HETATM   36  C   UNL     1     -11.797  13.033  65.406  1.00  0.00    -0.428 A  
ENDBRANCH  24  25
ENDBRANCH  23  24
ENDBRANCH  22  23
ENDBRANCH  21  22
ENDBRANCH  17  21
ENDBRANCH  10  15
ENDBRANCH   2   6
TORSDOF 7
ENDMDL
MODEL      140
REMARK 921   NORMALIZED FREE ENERGY PREDICTED BY IDOCK:   -5.06 KCAL/MOL
REMARK 922        TOTAL FREE ENERGY PREDICTED BY IDOCK:   -8.41 KCAL/MOL
REMARK 923 INTER-LIGAND FREE ENERGY PREDICTED BY IDOCK:   -7.29 KCAL/MOL
REMARK 924 INTRA-LIGAND FREE ENERGY PREDICTED BY IDOCK:   -1.13 KCAL/MOL
REMARK 927      BINDING AFFINITY PREDICTED BY RF-SCORE:    0.00 PKD
ROOT
HETATM    1  N   UNL     1     -10.781  19.559  65.599  1.00  0.00    -0.435 N  
HETATM    2  C   UNL     1      -9.551  19.226  66.089  1.00  0.00    -0.306 C  
HETATM    3  H1  UNL     1     -11.491  18.840  65.463  1.00  0.00     0.000 HD 
HETATM    4  H2  UNL     1     -10.990  20.531  65.370  1.00  0.00     0.000 HD 
HETATM    5  O   UNL     1      -8.696  20.091  66.254  1.00  0.00    -0.341 OA 
ENDROOT
BRANCH   2   6
HETATM    6  C   UNL     1      -9.372  17.828  66.400  1.00  0.00    -0.249 A  
HETATM    7  C   UNL     1      -8.664  17.220  67.419  1.00  0.00    -0.212 A  
HETATM    8  C   UNL     1      -8.862  15.826  67.281  1.00  0.00    -0.212 A  
HETATM    9  C   UNL     1      -8.451  14.680  67.986  1.00  0.00    -0.154 A  
HETATM   10  C   UNL     1      -8.831  13.394  67.557  1.00  0.00    -0.210 A  
HETATM   11  C   UNL     1      -9.630  13.307  66.401  1.00  0.00    -0.260 A  
HETATM   12  O   UNL     1      -9.976  16.872  65.621  1.00  0.00    -0.552 OA 
HETATM   13  C   UNL     1      -9.661  15.663  66.160  1.00  0.00    -0.318 A  
HETATM   14  C   UNL     1     -10.069  14.428  65.679  1.00  0.00    -0.377 A  
BRANCH  10  15
HETATM   15  N   UNL     1      -8.409  12.264  68.228  1.00  0.00    -0.173 NA 
HETATM   16  C   UNL     1      -9.347  11.257  68.745  1.00  0.00    -0.128 C  
HETATM   17  N   UNL     1      -7.474   9.536  68.787  1.00  0.00    -0.074 NA 
HETATM   18  C   UNL     1      -8.861   9.844  68.354  1.00  0.00    -0.120 C  
HETATM   19  C   UNL     1      -6.993  12.039  68.568  1.00  0.00    -0.090 C  
HETATM   20  C   UNL     1      -6.588  10.585  68.224  1.00  0.00    -0.059 C  
BRANCH  17  21
HETATM   21  C   UNL     1      -7.344   9.471  70.252  1.00  0.00    -0.133 C  
BRANCH  21  22
HETATM   22  C   UNL     1      -7.183   8.039  70.781  1.00  0.00    -0.053 C  
BRANCH  22  23
HETATM   23  C   UNL     1      -8.189   7.669  71.874  1.00  0.00    -0.121 C  
BRANCH  23  24
HETATM   24  C   UNL     1      -8.863   6.328  71.589  1.00  0.00    -0.138 C  
BRANCH  24  25
HETATM   25  C   UNL     1      -9.860   6.416  70.487  1.00  0.00    -0.207 A  
HETATM   26  C   UNL     1     -11.195   6.747  70.615  1.00  0.00    -0.312 A  
HETATM   27  N   UNL     1     -11.767   6.689  69.375  1.00  0.00    -0.648 NA 
HETATM   28  H   UNL     1     -12.748   6.886  69.177  1.00  0.00     0.000 HD 
HETATM   29  C   UNL     1     -10.833   6.327  68.433  1.00  0.00    -0.319 A  
HETATM   30  C   UNL     1      -9.623   6.157  69.100  1.00  0.00    -0.154 A  
HETATM   31  C   UNL     1      -8.480   5.788  68.353  1.00  0.00    -0.110 A  
HETATM   32  C   UNL     1      -8.597   5.589  66.971  1.00  0.00    -0.109 A  
HETATM   33  C   UNL     1      -9.828   5.762  66.335  1.00  0.00    -0.174 A  
HETATM   34  C   UNL     1      -7.443   5.205  66.208  1.00  0.00    -0.087 C  
HETATM   35  N   UNL     1      -6.515   4.890  65.585  1.00  0.00    -0.039 NA 
HETATM   36  C   UNL     1     -10.970   6.136  67.054  1.00  0.00    -0.414 A  
ENDBRANCH  24  25
ENDBRANCH  23  24
ENDBRANCH  22  23
ENDBRANCH  21  22
ENDBRANCH  17  21
ENDBRANCH  10  15
ENDBRANCH   2   6
TORSDOF 7
ENDMDL
MODEL      141
REMARK 921   NORMALIZED FREE ENERGY PREDICTED BY IDOCK:   -5.06 KCAL/MOL
REMARK 922        TOTAL FREE ENERGY PREDICTED BY IDOCK:   -8.41 KCAL/MOL
REMARK 923 INTER-LIGAND FREE ENERGY PREDICTED BY IDOCK:   -7.01 KCAL/MOL
REMARK 924 INTRA-LIGAND FREE ENERGY PREDICTED BY IDOCK:   -1.40 KCAL/MOL
REMARK 927      BINDING AFFINITY PREDICTED BY RF-SCORE:    0.00 PKD
ROOT
HETATM    1  N   UNL     1     -11.321  16.260  68.943  1.00  0.00    -0.339 N  
HETATM    2  C   UNL     1     -11.838  15.146  69.541  1.00  0.00    -0.332 C  
HETATM    3  H1  UNL     1     -10.556  16.175  68.274  1.00  0.00     0.000 HD 
HETATM    4  H2  UNL     1     -11.701  17.179  69.167  1.00  0.00     0.000 HD 
HETATM    5  O   UNL     1     -12.758  15.248  70.346  1.00  0.00    -0.379 OA 
ENDROOT
BRANCH   2   6
HETATM    6  C   UNL     1     -11.239  13.898  69.134  1.00  0.00    -0.269 A  
HETATM    7  C   UNL     1     -11.726  12.606  69.202  1.00  0.00    -0.375 A  
HETATM    8  C   UNL     1     -10.745  11.767  68.623  1.00  0.00    -0.252 A  
HETATM    9  C   UNL     1     -10.631  10.389  68.364  1.00  0.00    -0.238 A  
HETATM   10  C   UNL     1      -9.472   9.862  67.762  1.00  0.00    -0.140 A  
HETATM   11  C   UNL     1      -8.444  10.766  67.436  1.00  0.00    -0.119 A  
HETATM   12  O   UNL     1      -9.990  13.892  68.565  1.00  0.00    -0.226 OA 
HETATM   13  C   UNL     1      -9.697  12.598  68.260  1.00  0.00    -0.216 A  
HETATM   14  C   UNL     1      -8.527  12.148  67.668  1.00  0.00    -0.163 A  
BRANCH  10  15
HETATM   15  N   UNL     1      -9.342   8.507  67.531  1.00  0.00    -0.142 NA 
HETATM   16  C   UNL     1     -10.298   7.522  68.058  1.00  0.00    -0.204 C  
HETATM   17  N   UNL     1      -9.556   5.855  66.284  1.00  0.00    -0.147 NA 
HETATM   18  C   UNL     1     -10.702   6.538  66.938  1.00  0.00    -0.333 C  
HETATM   19  C   UNL     1      -8.178   7.941  66.828  1.00  0.00    -0.116 C  
HETATM   20  C   UNL     1      -8.642   6.907  65.773  1.00  0.00    -0.131 C  
BRANCH  17  21
HETATM   21  C   UNL     1      -8.847   4.947  67.200  1.00  0.00    -0.106 C  
BRANCH  21  22
HETATM   22  C   UNL     1      -9.780   3.950  67.903  1.00  0.00    -0.133 C  
BRANCH  22  23
HETATM   23  C   UNL     1      -9.282   3.505  69.280  1.00  0.00    -0.230 C  
BRANCH  23  24
HETATM   24  C   UNL     1      -8.327   4.528  69.892  1.00  0.00    -0.073 C  
BRANCH  24  25
HETATM   25  C   UNL     1      -8.536   4.696  71.357  1.00  0.00    -0.123 A  
HETATM   26  C   UNL     1      -8.058   3.867  72.353  1.00  0.00    -0.085 A  
HETATM   27  N   UNL     1      -8.491   4.353  73.554  1.00  0.00    -0.097 NA 
HETATM   28  H   UNL     1      -8.286   3.933  74.461  1.00  0.00     0.000 HD 
HETATM   29  C   UNL     1      -9.245   5.488  73.368  1.00  0.00    -0.131 A  
HETATM   30  C   UNL     1      -9.283   5.734  71.998  1.00  0.00    -0.156 A  
HETATM   31  C   UNL     1      -9.994   6.864  71.529  1.00  0.00    -0.185 A  
HETATM   32  C   UNL     1     -10.650   7.693  72.448  1.00  0.00    -0.313 A  
HETATM   33  C   UNL     1     -10.596   7.413  73.815  1.00  0.00    -0.188 A  
HETATM   34  C   UNL     1     -11.382   8.835  71.978  1.00  0.00    -0.371 C  
HETATM   35  N   UNL     1     -11.979   9.759  71.605  1.00  0.00    -0.396 NA 
HETATM   36  C   UNL     1      -9.890   6.306  74.302  1.00  0.00    -0.297 A  
ENDBRANCH  24  25
ENDBRANCH  23  24
ENDBRANCH  22  23
ENDBRANCH  21  22
ENDBRANCH  17  21
ENDBRANCH  10  15
ENDBRANCH   2   6
TORSDOF 7
ENDMDL
MODEL      142
REMARK 921   NORMALIZED FREE ENERGY PREDICTED BY IDOCK:   -5.03 KCAL/MOL
REMARK 922        TOTAL FREE ENERGY PREDICTED BY IDOCK:   -8.37 KCAL/MOL
REMARK 923 INTER-LIGAND FREE ENERGY PREDICTED BY IDOCK:   -7.40 KCAL/MOL
REMARK 924 INTRA-LIGAND FREE ENERGY PREDICTED BY IDOCK:   -0.96 KCAL/MOL
REMARK 927      BINDING AFFINITY PREDICTED BY RF-SCORE:    0.00 PKD
ROOT
HETATM    1  N   UNL     1      -9.981   2.341  63.934  1.00  0.00    -0.171 N  
HETATM    2  C   UNL     1      -8.936   2.498  64.799  1.00  0.00    -0.125 C  
HETATM    3  H1  UNL     1     -10.492   3.155  63.594  1.00  0.00     0.000 HD 
HETATM    4  H2  UNL     1     -10.250   1.407  63.627  1.00  0.00     0.000 HD 
HETATM    5  O   UNL     1      -8.320   1.519  65.209  1.00  0.00    -0.075 OA 
ENDROOT
BRANCH   2   6
HETATM    6  C   UNL     1      -8.629   3.864  65.149  1.00  0.00    -0.114 A  
HETATM    7  C   UNL     1      -9.347   4.782  65.891  1.00  0.00    -0.160 A  
HETATM    8  C   UNL     1      -8.562   5.957  65.961  1.00  0.00    -0.142 A  
HETATM    9  C   UNL     1      -8.698   7.218  66.569  1.00  0.00    -0.141 A  
HETATM   10  C   UNL     1      -7.697   8.199  66.426  1.00  0.00    -0.092 A  
HETATM   11  C   UNL     1      -6.569   7.865  65.654  1.00  0.00    -0.042 A  
HETATM   12  O   UNL     1      -7.448   4.428  64.733  1.00  0.00    -0.070 OA 
HETATM   13  C   UNL     1      -7.416   5.695  65.228  1.00  0.00    -0.074 A  
HETATM   14  C   UNL     1      -6.394   6.614  65.042  1.00  0.00    -0.042 A  
BRANCH  10  15
HETATM   15  N   UNL     1      -7.836   9.448  66.997  1.00  0.00    -0.098 NA 
HETATM   16  C   UNL     1      -8.176   9.633  68.416  1.00  0.00    -0.106 C  
HETATM   17  N   UNL     1      -7.219  11.989  68.337  1.00  0.00    -0.085 NA 
HETATM   18  C   UNL     1      -7.233  10.683  69.044  1.00  0.00    -0.095 C  
HETATM   19  C   UNL     1      -7.759  10.686  66.202  1.00  0.00    -0.145 C  
HETATM   20  C   UNL     1      -6.863  11.725  66.920  1.00  0.00    -0.104 C  
BRANCH  17  21
HETATM   21  C   UNL     1      -8.509  12.692  68.430  1.00  0.00    -0.121 C  
BRANCH  21  22
HETATM   22  C   UNL     1      -8.426  14.164  67.999  1.00  0.00    -0.171 C  
BRANCH  22  23
HETATM   23  C   UNL     1      -9.700  14.682  67.327  1.00  0.00    -0.231 C  
BRANCH  23  24
HETATM   24  C   UNL     1     -10.912  13.819  67.674  1.00  0.00    -0.278 C  
BRANCH  24  25
HETATM   25  C   UNL     1     -11.709  14.383  68.798  1.00  0.00    -0.372 A  
HETATM   26  C   UNL     1     -12.034  15.712  68.984  1.00  0.00    -0.304 A  
HETATM   27  N   UNL     1     -12.751  15.815  70.144  1.00  0.00    -0.590 NA 
HETATM   28  H   UNL     1     -13.119  16.686  70.526  1.00  0.00     0.000 HD 
HETATM   29  C   UNL     1     -12.904  14.577  70.723  1.00  0.00    -0.361 A  
HETATM   30  C   UNL     1     -12.268  13.656  69.895  1.00  0.00    -0.367 A  
HETATM   31  C   UNL     1     -12.285  12.289  70.259  1.00  0.00    -0.342 A  
HETATM   32  C   UNL     1     -12.924  11.901  71.444  1.00  0.00    -0.385 A  
HETATM   33  C   UNL     1     -13.547  12.853  72.254  1.00  0.00    -0.611 A  
HETATM   34  C   UNL     1     -12.936  10.516  71.825  1.00  0.00    -0.476 C  
HETATM   35  N   UNL     1     -12.947   9.399  72.141  1.00  0.00    -0.411 NA 
HETATM   36  C   UNL     1     -13.551  14.210  71.908  1.00  0.00    -0.504 A  
ENDBRANCH  24  25
ENDBRANCH  23  24
ENDBRANCH  22  23
ENDBRANCH  21  22
ENDBRANCH  17  21
ENDBRANCH  10  15
ENDBRANCH   2   6
TORSDOF 7
ENDMDL
MODEL      143
REMARK 921   NORMALIZED FREE ENERGY PREDICTED BY IDOCK:   -5.03 KCAL/MOL
REMARK 922        TOTAL FREE ENERGY PREDICTED BY IDOCK:   -8.37 KCAL/MOL
REMARK 923 INTER-LIGAND FREE ENERGY PREDICTED BY IDOCK:   -7.00 KCAL/MOL
REMARK 924 INTRA-LIGAND FREE ENERGY PREDICTED BY IDOCK:   -1.37 KCAL/MOL
REMARK 927      BINDING AFFINITY PREDICTED BY RF-SCORE:    0.00 PKD
ROOT
HETATM    1  N   UNL     1     -10.941   4.119  64.619  1.00  0.00    -0.709 N  
HETATM    2  C   UNL     1      -9.630   4.274  64.969  1.00  0.00    -0.177 C  
HETATM    3  H1  UNL     1     -11.615   4.861  64.811  1.00  0.00     0.000 HD 
HETATM    4  H2  UNL     1     -11.248   3.260  64.164  1.00  0.00     0.000 HD 
HETATM    5  O   UNL     1      -8.820   3.381  64.738  1.00  0.00    -0.114 OA 
ENDROOT
BRANCH   2   6
HETATM    6  C   UNL     1      -9.305   5.536  65.587  1.00  0.00    -0.047 A  
HETATM    7  C   UNL     1      -8.322   6.457  65.279  1.00  0.00    -0.131 A  
HETATM    8  C   UNL     1      -8.478   7.540  66.177  1.00  0.00    -0.147 A  
HETATM    9  C   UNL     1      -7.837   8.775  66.378  1.00  0.00    -0.099 A  
HETATM   10  C   UNL     1      -8.251   9.644  67.407  1.00  0.00    -0.114 A  
HETATM   11  C   UNL     1      -9.323   9.223  68.217  1.00  0.00    -0.141 A  
HETATM   12  O   UNL     1     -10.044   5.987  66.653  1.00  0.00    -0.169 OA 
HETATM   13  C   UNL     1      -9.536   7.200  67.005  1.00  0.00    -0.159 A  
HETATM   14  C   UNL     1      -9.994   8.003  68.038  1.00  0.00    -0.216 A  
BRANCH  10  15
HETATM   15  N   UNL     1      -7.609  10.845  67.628  1.00  0.00    -0.095 NA 
HETATM   16  C   UNL     1      -7.840  11.653  68.835  1.00  0.00    -0.040 C  
HETATM   17  N   UNL     1      -5.613  12.829  68.472  1.00  0.00    -0.056 NA 
HETATM   18  C   UNL     1      -6.486  12.100  69.428  1.00  0.00    -0.110 C  
HETATM   19  C   UNL     1      -6.725  11.457  66.621  1.00  0.00    -0.112 C  
HETATM   20  C   UNL     1      -5.419  11.954  67.289  1.00  0.00    -0.121 C  
BRANCH  17  21
HETATM   21  C   UNL     1      -6.178  14.129  68.075  1.00  0.00    -0.145 C  
BRANCH  21  22
HETATM   22  C   UNL     1      -7.181  14.688  69.094  1.00  0.00    -0.142 C  
BRANCH  22  23
HETATM   23  C   UNL     1      -7.592  16.137  68.824  1.00  0.00    -0.193 C  
BRANCH  23  24
HETATM   24  C   UNL     1      -9.085  16.252  68.522  1.00  0.00    -0.216 C  
BRANCH  24  25
HETATM   25  C   UNL     1      -9.531  15.285  67.481  1.00  0.00    -0.202 A  
HETATM   26  C   UNL     1      -9.303  15.380  66.123  1.00  0.00    -0.332 A  
HETATM   27  N   UNL     1      -9.897  14.309  65.517  1.00  0.00    -0.521 NA 
HETATM   28  H   UNL     1      -9.888  14.128  64.513  1.00  0.00     0.000 HD 
HETATM   29  C   UNL     1     -10.511  13.509  66.453  1.00  0.00    -0.287 A  
HETATM   30  C   UNL     1     -10.290  14.091  67.698  1.00  0.00    -0.242 A  
HETATM   31  C   UNL     1     -10.813  13.456  68.848  1.00  0.00    -0.253 A  
HETATM   32  C   UNL     1     -11.549  12.273  68.706  1.00  0.00    -0.380 A  
HETATM   33  C   UNL     1     -11.756  11.719  67.440  1.00  0.00    -0.304 A  
HETATM   34  C   UNL     1     -12.091  11.628  69.869  1.00  0.00    -0.301 C  
HETATM   35  N   UNL     1     -12.536  11.104  70.804  1.00  0.00    -0.357 NA 
HETATM   36  C   UNL     1     -11.239  12.325  66.289  1.00  0.00    -0.367 A  
ENDBRANCH  24  25
ENDBRANCH  23  24
ENDBRANCH  22  23
ENDBRANCH  21  22
ENDBRANCH  17  21
ENDBRANCH  10  15
ENDBRANCH   2   6
TORSDOF 7
ENDMDL
MODEL      144
REMARK 921   NORMALIZED FREE ENERGY PREDICTED BY IDOCK:   -5.01 KCAL/MOL
REMARK 922        TOTAL FREE ENERGY PREDICTED BY IDOCK:   -8.34 KCAL/MOL
REMARK 923 INTER-LIGAND FREE ENERGY PREDICTED BY IDOCK:   -7.30 KCAL/MOL
REMARK 924 INTRA-LIGAND FREE ENERGY PREDICTED BY IDOCK:   -1.05 KCAL/MOL
REMARK 927      BINDING AFFINITY PREDICTED BY RF-SCORE:    0.00 PKD
ROOT
HETATM    1  N   UNL     1     -10.878  20.212  65.193  1.00  0.00     0.051 N  
HETATM    2  C   UNL     1     -10.263  19.760  66.326  1.00  0.00    -0.509 C  
HETATM    3  H1  UNL     1     -11.304  19.553  64.542  1.00  0.00     0.000 HD 
HETATM    4  H2  UNL     1     -10.911  21.213  64.999  1.00  0.00     0.000 HD 
HETATM    5  O   UNL     1      -9.751  20.553  67.110  1.00  0.00    -0.441 OA 
ENDROOT
BRANCH   2   6
HETATM    6  C   UNL     1     -10.295  18.329  66.510  1.00  0.00    -0.392 A  
HETATM    7  C   UNL     1     -10.104  17.568  67.648  1.00  0.00    -0.328 A  
HETATM    8  C   UNL     1     -10.290  16.216  67.273  1.00  0.00    -0.287 A  
HETATM    9  C   UNL     1     -10.263  14.979  67.941  1.00  0.00    -0.228 A  
HETATM   10  C   UNL     1     -10.488  13.777  67.242  1.00  0.00    -0.264 A  
HETATM   11  C   UNL     1     -10.737  13.869  65.859  1.00  0.00    -0.286 A  
HETATM   12  O   UNL     1     -10.562  17.507  65.443  1.00  0.00    -0.648 OA 
HETATM   13  C   UNL     1     -10.556  16.230  65.913  1.00  0.00    -0.297 A  
HETATM   14  C   UNL     1     -10.782  15.087  65.162  1.00  0.00    -0.434 A  
BRANCH  10  15
HETATM   15  N   UNL     1     -10.436  12.557  67.885  1.00  0.00    -0.212 NA 
HETATM   16  C   UNL     1     -11.545  11.592  67.838  1.00  0.00    -0.298 C  
HETATM   17  N   UNL     1      -9.937   9.716  68.446  1.00  0.00    -0.154 NA 
HETATM   18  C   UNL     1     -10.997  10.185  67.516  1.00  0.00    -0.255 C  
HETATM   19  C   UNL     1      -9.309  12.177  68.754  1.00  0.00     0.083 C  
HETATM   20  C   UNL     1      -8.854  10.731  68.436  1.00  0.00    -0.146 C  
BRANCH  17  21
HETATM   21  C   UNL     1     -10.443   9.505  69.812  1.00  0.00    -0.231 C  
BRANCH  21  22
HETATM   22  C   UNL     1      -9.338   9.150  70.816  1.00  0.00    -0.325 C  
BRANCH  22  23
HETATM   23  C   UNL     1      -9.341   7.681  71.244  1.00  0.00    -0.161 C  
BRANCH  23  24
HETATM   24  C   UNL     1      -8.164   6.916  70.641  1.00  0.00    -0.120 C  
BRANCH  24  25
HETATM   25  C   UNL     1      -8.601   5.852  69.695  1.00  0.00    -0.121 A  
HETATM   26  C   UNL     1      -9.002   4.574  70.029  1.00  0.00    -0.094 A  
HETATM   27  N   UNL     1      -9.297   3.906  68.872  1.00  0.00    -0.154 NA 
HETATM   28  H   UNL     1      -9.617   2.940  68.824  1.00  0.00     0.000 HD 
HETATM   29  C   UNL     1      -9.098   4.724  67.784  1.00  0.00    -0.116 A  
HETATM   30  C   UNL     1      -8.670   5.956  68.270  1.00  0.00    -0.112 A  
HETATM   31  C   UNL     1      -8.401   6.994  67.348  1.00  0.00    -0.122 A  
HETATM   32  C   UNL     1      -8.556   6.754  65.976  1.00  0.00    -0.149 A  
HETATM   33  C   UNL     1      -8.982   5.503  65.523  1.00  0.00    -0.133 A  
HETATM   34  C   UNL     1      -8.275   7.800  65.034  1.00  0.00    -0.120 C  
HETATM   35  N   UNL     1      -8.045   8.640  64.266  1.00  0.00    -0.152 NA 
HETATM   36  C   UNL     1      -9.263   4.464  66.419  1.00  0.00    -0.142 A  
ENDBRANCH  24  25
ENDBRANCH  23  24
ENDBRANCH  22  23
ENDBRANCH  21  22
ENDBRANCH  17  21
ENDBRANCH  10  15
ENDBRANCH   2   6
TORSDOF 7
ENDMDL
MODEL      145
REMARK 921   NORMALIZED FREE ENERGY PREDICTED BY IDOCK:   -5.01 KCAL/MOL
REMARK 922        TOTAL FREE ENERGY PREDICTED BY IDOCK:   -8.34 KCAL/MOL
REMARK 923 INTER-LIGAND FREE ENERGY PREDICTED BY IDOCK:   -7.01 KCAL/MOL
REMARK 924 INTRA-LIGAND FREE ENERGY PREDICTED BY IDOCK:   -1.33 KCAL/MOL
REMARK 927      BINDING AFFINITY PREDICTED BY RF-SCORE:    0.00 PKD
ROOT
HETATM    1  N   UNL     1      -7.624   3.767  65.044  1.00  0.00    -0.077 N  
HETATM    2  C   UNL     1      -7.443   4.706  64.070  1.00  0.00    -0.059 C  
HETATM    3  H1  UNL     1      -8.051   4.026  65.934  1.00  0.00     0.000 HD 
HETATM    4  H2  UNL     1      -7.333   2.803  64.882  1.00  0.00     0.000 HD 
HETATM    5  O   UNL     1      -6.931   4.395  62.999  1.00  0.00    -0.038 OA 
ENDROOT
BRANCH   2   6
HETATM    6  C   UNL     1      -7.912   6.031  64.399  1.00  0.00    -0.123 A  
HETATM    7  C   UNL     1      -8.558   6.497  65.528  1.00  0.00    -0.109 A  
HETATM    8  C   UNL     1      -8.748   7.888  65.347  1.00  0.00    -0.078 A  
HETATM    9  C   UNL     1      -9.303   8.931  66.109  1.00  0.00    -0.301 A  
HETATM   10  C   UNL     1      -9.344  10.247  65.609  1.00  0.00    -0.192 A  
HETATM   11  C   UNL     1      -8.811  10.468  64.325  1.00  0.00    -0.209 A  
HETATM   12  O   UNL     1      -7.718   7.064  63.516  1.00  0.00    -0.106 OA 
HETATM   13  C   UNL     1      -8.228   8.184  64.097  1.00  0.00    -0.080 A  
HETATM   14  C   UNL     1      -8.239   9.454  63.541  1.00  0.00    -0.168 A  
BRANCH  10  15
HETATM   15  N   UNL     1      -9.912  11.271  66.340  1.00  0.00    -0.208 NA 
HETATM   16  C   UNL     1      -9.888  11.298  67.810  1.00  0.00    -0.173 C  
HETATM   17  N   UNL     1     -10.277  13.812  67.769  1.00  0.00    -0.237 NA 
HETATM   18  C   UNL     1      -9.450  12.696  68.298  1.00  0.00    -0.203 C  
HETATM   19  C   UNL     1     -10.678  12.356  65.703  1.00  0.00    -0.264 C  
HETATM   20  C   UNL     1     -10.249  13.725  66.288  1.00  0.00    -0.297 C  
BRANCH  17  21
HETATM   21  C   UNL     1     -11.660  13.771  68.269  1.00  0.00    -0.338 C  
BRANCH  21  22
HETATM   22  C   UNL     1     -11.761  13.304  69.728  1.00  0.00    -0.354 C  
BRANCH  22  23
HETATM   23  C   UNL     1     -12.639  12.064  69.920  1.00  0.00     0.127 C  
BRANCH  23  24
HETATM   24  C   UNL     1     -12.413  11.420  71.287  1.00  0.00    -0.423 C  
BRANCH  24  25
HETATM   25  C   UNL     1     -12.602   9.943  71.257  1.00  0.00    -0.480 A  
HETATM   26  C   UNL     1     -13.719   9.251  71.682  1.00  0.00    -0.354 A  
HETATM   27  N   UNL     1     -13.482   7.916  71.510  1.00  0.00    -0.458 NA 
HETATM   28  H   UNL     1     -14.140   7.173  71.744  1.00  0.00     0.000 HD 
HETATM   29  C   UNL     1     -12.230   7.717  70.977  1.00  0.00    -0.215 A  
HETATM   30  C   UNL     1     -11.656   8.973  70.798  1.00  0.00    -0.313 A  
HETATM   31  C   UNL     1     -10.355   9.054  70.248  1.00  0.00    -0.243 A  
HETATM   32  C   UNL     1      -9.675   7.876  69.914  1.00  0.00    -0.176 A  
HETATM   33  C   UNL     1     -10.279   6.632  70.113  1.00  0.00    -0.215 A  
HETATM   34  C   UNL     1      -8.351   7.951  69.365  1.00  0.00    -0.132 C  
HETATM   35  N   UNL     1      -7.277   8.004  68.924  1.00  0.00    -0.074 NA 
HETATM   36  C   UNL     1     -11.569   6.529  70.646  1.00  0.00    -0.442 A  
ENDBRANCH  24  25
ENDBRANCH  23  24
ENDBRANCH  22  23
ENDBRANCH  21  22
ENDBRANCH  17  21
ENDBRANCH  10  15
ENDBRANCH   2   6
TORSDOF 7
ENDMDL
MODEL      146
REMARK 921   NORMALIZED FREE ENERGY PREDICTED BY IDOCK:   -5.01 KCAL/MOL
REMARK 922        TOTAL FREE ENERGY PREDICTED BY IDOCK:   -8.34 KCAL/MOL
REMARK 923 INTER-LIGAND FREE ENERGY PREDICTED BY IDOCK:   -7.13 KCAL/MOL
REMARK 924 INTRA-LIGAND FREE ENERGY PREDICTED BY IDOCK:   -1.21 KCAL/MOL
REMARK 927      BINDING AFFINITY PREDICTED BY RF-SCORE:    0.00 PKD
ROOT
HETATM    1  N   UNL     1     -10.530  18.579  65.900  1.00  0.00    -0.432 N  
HETATM    2  C   UNL     1     -10.637  18.413  67.251  1.00  0.00    -0.402 C  
HETATM    3  H1  UNL     1     -10.550  17.770  65.280  1.00  0.00     0.000 HD 
HETATM    4  H2  UNL     1     -10.429  19.516  65.509  1.00  0.00     0.000 HD 
HETATM    5  O   UNL     1     -10.613  19.388  67.997  1.00  0.00    -0.407 OA 
ENDROOT
BRANCH   2   6
HETATM    6  C   UNL     1     -10.795  17.048  67.690  1.00  0.00    -0.244 A  
HETATM    7  C   UNL     1     -10.311  15.872  67.152  1.00  0.00    -0.300 A  
HETATM    8  C   UNL     1     -10.729  14.826  68.009  1.00  0.00    -0.248 A  
HETATM    9  C   UNL     1     -10.555  13.431  68.045  1.00  0.00    -0.252 A  
HETATM   10  C   UNL     1     -11.136  12.658  69.070  1.00  0.00    -0.238 A  
HETATM   11  C   UNL     1     -11.892  13.338  70.044  1.00  0.00    -0.365 A  
HETATM   12  O   UNL     1     -11.517  16.775  68.826  1.00  0.00    -0.172 OA 
HETATM   13  C   UNL     1     -11.473  15.428  69.011  1.00  0.00    -0.337 A  
HETATM   14  C   UNL     1     -12.076  14.730  70.046  1.00  0.00    -0.380 A  
BRANCH  10  15
HETATM   15  N   UNL     1     -10.993  11.286  69.097  1.00  0.00    -0.227 NA 
HETATM   16  C   UNL     1     -10.450  10.527  67.960  1.00  0.00    -0.197 C  
HETATM   17  N   UNL     1      -9.871   8.604  69.522  1.00  0.00    -0.183 NA 
HETATM   18  C   UNL     1      -9.386   9.527  68.463  1.00  0.00    -0.137 C  
HETATM   19  C   UNL     1     -11.474  10.470  70.225  1.00  0.00    -0.333 C  
HETATM   20  C   UNL     1     -10.395   9.436  70.633  1.00  0.00    -0.284 C  
BRANCH  17  21
HETATM   21  C   UNL     1     -10.903   7.678  69.030  1.00  0.00    -0.040 C  
BRANCH  21  22
HETATM   22  C   UNL     1     -11.100   6.456  69.938  1.00  0.00    -0.444 C  
BRANCH  22  23
HETATM   23  C   UNL     1      -9.938   5.459  69.891  1.00  0.00    -0.294 C  
BRANCH  23  24
HETATM   24  C   UNL     1      -9.914   4.684  68.575  1.00  0.00    -0.130 C  
BRANCH  24  25
HETATM   25  C   UNL     1      -8.570   4.692  67.935  1.00  0.00    -0.106 A  
HETATM   26  C   UNL     1      -7.544   3.799  68.173  1.00  0.00    -0.065 A  
HETATM   27  N   UNL     1      -6.474   4.168  67.407  1.00  0.00    -0.041 NA 
HETATM   28  H   UNL     1      -5.577   3.683  67.387  1.00  0.00     0.000 HD 
HETATM   29  C   UNL     1      -6.778   5.287  66.668  1.00  0.00    -0.061 A  
HETATM   30  C   UNL     1      -8.091   5.635  66.971  1.00  0.00    -0.102 A  
HETATM   31  C   UNL     1      -8.663   6.759  66.331  1.00  0.00    -0.142 A  
HETATM   32  C   UNL     1      -7.893   7.500  65.425  1.00  0.00    -0.117 A  
HETATM   33  C   UNL     1      -6.575   7.127  65.148  1.00  0.00    -0.047 A  
HETATM   34  C   UNL     1      -8.464   8.648  64.779  1.00  0.00    -0.149 C  
HETATM   35  N   UNL     1      -8.917   9.581  64.256  1.00  0.00    -0.226 NA 
HETATM   36  C   UNL     1      -5.993   6.011  65.763  1.00  0.00    -0.029 A  
ENDBRANCH  24  25
ENDBRANCH  23  24
ENDBRANCH  22  23
ENDBRANCH  21  22
ENDBRANCH  17  21
ENDBRANCH  10  15
ENDBRANCH   2   6
TORSDOF 7
ENDMDL
MODEL      147
REMARK 921   NORMALIZED FREE ENERGY PREDICTED BY IDOCK:   -5.01 KCAL/MOL
REMARK 922        TOTAL FREE ENERGY PREDICTED BY IDOCK:   -8.34 KCAL/MOL
REMARK 923 INTER-LIGAND FREE ENERGY PREDICTED BY IDOCK:   -7.18 KCAL/MOL
REMARK 924 INTRA-LIGAND FREE ENERGY PREDICTED BY IDOCK:   -1.16 KCAL/MOL
REMARK 927      BINDING AFFINITY PREDICTED BY RF-SCORE:    0.00 PKD
ROOT
HETATM    1  N   UNL     1     -10.735  19.538  65.781  1.00  0.00    -0.473 N  
HETATM    2  C   UNL     1     -10.546  19.063  67.048  1.00  0.00    -0.461 C  
HETATM    3  H1  UNL     1     -10.661  18.910  64.981  1.00  0.00     0.000 HD 
HETATM    4  H2  UNL     1     -10.950  20.524  65.635  1.00  0.00     0.000 HD 
HETATM    5  O   UNL     1     -10.635  19.819  68.010  1.00  0.00    -0.418 OA 
ENDROOT
BRANCH   2   6
HETATM    6  C   UNL     1     -10.268  17.651  67.138  1.00  0.00    -0.342 A  
HETATM    7  C   UNL     1      -9.258  16.898  66.569  1.00  0.00    -0.295 A  
HETATM    8  C   UNL     1      -9.431  15.569  67.022  1.00  0.00    -0.238 A  
HETATM    9  C   UNL     1      -8.750  14.352  66.842  1.00  0.00    -0.218 A  
HETATM   10  C   UNL     1      -9.213  13.169  67.451  1.00  0.00    -0.213 A  
HETATM   11  C   UNL     1     -10.376  13.259  68.238  1.00  0.00    -0.252 A  
HETATM   12  O   UNL     1     -11.074  16.842  67.900  1.00  0.00    -0.301 OA 
HETATM   13  C   UNL     1     -10.561  15.583  67.824  1.00  0.00    -0.281 A  
HETATM   14  C   UNL     1     -11.075  14.458  68.450  1.00  0.00    -0.272 A  
BRANCH  10  15
HETATM   15  N   UNL     1      -8.565  11.966  67.255  1.00  0.00    -0.162 NA 
HETATM   16  C   UNL     1      -9.274  10.749  66.832  1.00  0.00    -0.156 C  
HETATM   17  N   UNL     1      -7.083   9.767  65.990  1.00  0.00    -0.097 NA 
HETATM   18  C   UNL     1      -8.502  10.073  65.677  1.00  0.00    -0.148 C  
HETATM   19  C   UNL     1      -7.135  11.788  67.559  1.00  0.00    -0.113 C  
HETATM   20  C   UNL     1      -6.433  11.038  66.400  1.00  0.00    -0.127 C  
BRANCH  17  21
HETATM   21  C   UNL     1      -6.946   8.747  67.042  1.00  0.00    -0.074 C  
BRANCH  21  22
HETATM   22  C   UNL     1      -6.504   7.379  66.502  1.00  0.00    -0.052 C  
BRANCH  22  23
HETATM   23  C   UNL     1      -7.646   6.553  65.905  1.00  0.00    -0.087 C  
BRANCH  23  24
HETATM   24  C   UNL     1      -8.204   5.551  66.914  1.00  0.00    -0.105 C  
BRANCH  24  25
HETATM   25  C   UNL     1      -9.383   6.083  67.651  1.00  0.00    -0.112 A  
HETATM   26  C   UNL     1     -10.686   6.121  67.195  1.00  0.00    -0.346 A  
HETATM   27  N   UNL     1     -11.456   6.707  68.160  1.00  0.00    -0.551 NA 
HETATM   28  H   UNL     1     -12.461   6.866  68.086  1.00  0.00     0.000 HD 
HETATM   29  C   UNL     1     -10.684   7.053  69.244  1.00  0.00    -0.225 A  
HETATM   30  C   UNL     1      -9.378   6.665  68.958  1.00  0.00    -0.133 A  
HETATM   31  C   UNL     1      -8.372   6.900  69.924  1.00  0.00    -0.139 A  
HETATM   32  C   UNL     1      -8.709   7.527  71.130  1.00  0.00    -0.136 A  
HETATM   33  C   UNL     1     -10.029   7.909  71.382  1.00  0.00    -0.208 A  
HETATM   34  C   UNL     1      -7.690   7.777  72.111  1.00  0.00    -0.094 C  
HETATM   35  N   UNL     1      -6.871   7.986  72.907  1.00  0.00    -0.086 NA 
HETATM   36  C   UNL     1     -11.042   7.677  70.444  1.00  0.00    -0.270 A  
ENDBRANCH  24  25
ENDBRANCH  23  24
ENDBRANCH  22  23
ENDBRANCH  21  22
ENDBRANCH  17  21
ENDBRANCH  10  15
ENDBRANCH   2   6
TORSDOF 7
ENDMDL
MODEL      148
REMARK 921   NORMALIZED FREE ENERGY PREDICTED BY IDOCK:   -5.01 KCAL/MOL
REMARK 922        TOTAL FREE ENERGY PREDICTED BY IDOCK:   -8.34 KCAL/MOL
REMARK 923 INTER-LIGAND FREE ENERGY PREDICTED BY IDOCK:   -7.47 KCAL/MOL
REMARK 924 INTRA-LIGAND FREE ENERGY PREDICTED BY IDOCK:   -0.87 KCAL/MOL
REMARK 927      BINDING AFFINITY PREDICTED BY RF-SCORE:    0.00 PKD
ROOT
HETATM    1  N   UNL     1      -7.171   7.579  70.857  1.00  0.00    -0.066 N  
HETATM    2  C   UNL     1      -6.232   8.183  70.071  1.00  0.00    -0.032 C  
HETATM    3  H1  UNL     1      -8.047   8.058  71.070  1.00  0.00     0.000 HD 
HETATM    4  H2  UNL     1      -6.997   6.648  71.233  1.00  0.00     0.000 HD 
HETATM    5  O   UNL     1      -5.179   7.608  69.815  1.00  0.00    -0.022 OA 
ENDROOT
BRANCH   2   6
HETATM    6  C   UNL     1      -6.593   9.490  69.577  1.00  0.00    -0.044 A  
HETATM    7  C   UNL     1      -6.294  10.746  70.067  1.00  0.00    -0.137 A  
HETATM    8  C   UNL     1      -6.861  11.682  69.170  1.00  0.00    -0.111 A  
HETATM    9  C   UNL     1      -6.900  13.085  69.077  1.00  0.00    -0.081 A  
HETATM   10  C   UNL     1      -7.586  13.719  68.023  1.00  0.00    -0.145 A  
HETATM   11  C   UNL     1      -8.226  12.895  67.079  1.00  0.00    -0.086 A  
HETATM   12  O   UNL     1      -7.343   9.605  68.433  1.00  0.00    -0.074 OA 
HETATM   13  C   UNL     1      -7.502  10.935  68.194  1.00  0.00    -0.091 A  
HETATM   14  C   UNL     1      -8.199  11.492  67.133  1.00  0.00    -0.161 A  
BRANCH  10  15
HETATM   15  N   UNL     1      -7.652  15.096  67.941  1.00  0.00    -0.127 NA 
HETATM   16  C   UNL     1      -7.493  15.964  69.117  1.00  0.00    -0.210 C  
HETATM   17  N   UNL     1      -6.886  17.911  67.596  1.00  0.00    -0.183 NA 
HETATM   18  C   UNL     1      -6.511  17.110  68.789  1.00  0.00    -0.185 C  
HETATM   19  C   UNL     1      -7.992  15.790  66.688  1.00  0.00    -0.197 C  
HETATM   20  C   UNL     1      -7.020  16.973  66.454  1.00  0.00    -0.232 C  
BRANCH  17  21
HETATM   21  C   UNL     1      -8.130  18.671  67.799  1.00  0.00    -0.251 C  
BRANCH  21  22
HETATM   22  C   UNL     1      -9.146  18.478  66.664  1.00  0.00    -0.306 C  
BRANCH  22  23
HETATM   23  C   UNL     1     -10.527  18.023  67.142  1.00  0.00    -0.377 C  
BRANCH  23  24
HETATM   24  C   UNL     1     -10.547  17.773  68.649  1.00  0.00    -0.200 C  
BRANCH  24  25
HETATM   25  C   UNL     1     -10.854  16.355  68.987  1.00  0.00    -0.331 A  
HETATM   26  C   UNL     1     -10.765  15.773  70.236  1.00  0.00    -0.329 A  
HETATM   27  N   UNL     1     -11.106  14.455  70.115  1.00  0.00    -0.468 NA 
HETATM   28  H   UNL     1     -11.125  13.786  70.883  1.00  0.00     0.000 HD 
HETATM   29  C   UNL     1     -11.420  14.160  68.808  1.00  0.00    -0.299 A  
HETATM   30  C   UNL     1     -11.279  15.336  68.077  1.00  0.00    -0.330 A  
HETATM   31  C   UNL     1     -11.554  15.312  66.690  1.00  0.00    -0.036 A  
HETATM   32  C   UNL     1     -11.944  14.109  66.087  1.00  0.00    -0.437 A  
HETATM   33  C   UNL     1     -12.069  12.946  66.850  1.00  0.00    -0.313 A  
HETATM   34  C   UNL     1     -12.215  14.075  64.678  1.00  0.00    -0.435 C  
HETATM   35  N   UNL     1     -12.432  14.039  63.537  1.00  0.00    -0.799 NA 
HETATM   36  C   UNL     1     -11.811  12.949  68.226  1.00  0.00    -0.372 A  
ENDBRANCH  24  25
ENDBRANCH  23  24
ENDBRANCH  22  23
ENDBRANCH  21  22
ENDBRANCH  17  21
ENDBRANCH  10  15
ENDBRANCH   2   6
TORSDOF 7
ENDMDL
MODEL      149
REMARK 921   NORMALIZED FREE ENERGY PREDICTED BY IDOCK:   -5.01 KCAL/MOL
REMARK 922        TOTAL FREE ENERGY PREDICTED BY IDOCK:   -8.34 KCAL/MOL
REMARK 923 INTER-LIGAND FREE ENERGY PREDICTED BY IDOCK:   -7.12 KCAL/MOL
REMARK 924 INTRA-LIGAND FREE ENERGY PREDICTED BY IDOCK:   -1.22 KCAL/MOL
REMARK 927      BINDING AFFINITY PREDICTED BY RF-SCORE:    0.00 PKD
ROOT
HETATM    1  N   UNL     1      -9.182   2.241  73.018  1.00  0.00    -0.076 N  
HETATM    2  C   UNL     1      -9.924   3.379  73.160  1.00  0.00    -0.137 C  
HETATM    3  H1  UNL     1      -8.627   2.092  72.176  1.00  0.00     0.000 HD 
HETATM    4  H2  UNL     1      -9.184   1.538  73.757  1.00  0.00     0.000 HD 
HETATM    5  O   UNL     1     -10.592   3.558  74.174  1.00  0.00    -0.182 OA 
ENDROOT
BRANCH   2   6
HETATM    6  C   UNL     1      -9.831   4.312  72.064  1.00  0.00    -0.175 A  
HETATM    7  C   UNL     1      -9.064   4.272  70.915  1.00  0.00    -0.186 A  
HETATM    8  C   UNL     1      -9.395   5.422  70.160  1.00  0.00    -0.193 A  
HETATM    9  C   UNL     1      -9.005   5.951  68.917  1.00  0.00    -0.118 A  
HETATM   10  C   UNL     1      -9.541   7.167  68.450  1.00  0.00    -0.137 A  
HETATM   11  C   UNL     1     -10.474   7.822  69.276  1.00  0.00    -0.221 A  
HETATM   12  O   UNL     1     -10.601   5.449  72.067  1.00  0.00    -0.215 OA 
HETATM   13  C   UNL     1     -10.330   6.116  70.911  1.00  0.00    -0.215 A  
HETATM   14  C   UNL     1     -10.895   7.319  70.516  1.00  0.00    -0.262 A  
BRANCH  10  15
HETATM   15  N   UNL     1      -9.142   7.706  67.243  1.00  0.00    -0.126 NA 
HETATM   16  C   UNL     1      -9.180   9.151  66.974  1.00  0.00    -0.135 C  
HETATM   17  N   UNL     1      -7.472   8.849  65.113  1.00  0.00    -0.095 NA 
HETATM   18  C   UNL     1      -7.844   9.598  66.341  1.00  0.00    -0.101 C  
HETATM   19  C   UNL     1      -8.747   6.863  66.101  1.00  0.00    -0.145 C  
HETATM   20  C   UNL     1      -7.445   7.406  65.462  1.00  0.00    -0.088 C  
BRANCH  17  21
HETATM   21  C   UNL     1      -8.398   9.101  63.998  1.00  0.00    -0.180 C  
BRANCH  21  22
HETATM   22  C   UNL     1      -8.357  10.551  63.496  1.00  0.00    -0.113 C  
BRANCH  22  23
HETATM   23  C   UNL     1      -9.737  11.135  63.185  1.00  0.00    -0.401 C  
BRANCH  23  24
HETATM   24  C   UNL     1     -10.735  10.852  64.306  1.00  0.00    -0.241 C  
BRANCH  24  25
HETATM   25  C   UNL     1     -11.385  12.091  64.816  1.00  0.00    -0.369 A  
HETATM   26  C   UNL     1     -12.652  12.540  64.499  1.00  0.00    -0.421 A  
HETATM   27  N   UNL     1     -12.858  13.723  65.153  1.00  0.00    -0.748 NA 
HETATM   28  H   UNL     1     -13.712  14.278  65.098  1.00  0.00     0.000 HD 
HETATM   29  C   UNL     1     -11.749  14.059  65.895  1.00  0.00    -0.366 A  
HETATM   30  C   UNL     1     -10.811  13.048  65.710  1.00  0.00    -0.292 A  
HETATM   31  C   UNL     1      -9.568  13.143  66.378  1.00  0.00    -0.259 A  
HETATM   32  C   UNL     1      -9.308  14.254  67.192  1.00  0.00    -0.233 A  
HETATM   33  C   UNL     1     -10.270  15.254  67.350  1.00  0.00    -0.243 A  
HETATM   34  C   UNL     1      -8.044  14.362  67.865  1.00  0.00    -0.151 C  
HETATM   35  N   UNL     1      -7.023  14.458  68.409  1.00  0.00    -0.100 NA 
HETATM   36  C   UNL     1     -11.511  15.174  66.705  1.00  0.00    -0.195 A  
ENDBRANCH  24  25
ENDBRANCH  23  24
ENDBRANCH  22  23
ENDBRANCH  21  22
ENDBRANCH  17  21
ENDBRANCH  10  15
ENDBRANCH   2   6
TORSDOF 7
ENDMDL
MODEL      150
REMARK 921   NORMALIZED FREE ENERGY PREDICTED BY IDOCK:   -5.00 KCAL/MOL
REMARK 922        TOTAL FREE ENERGY PREDICTED BY IDOCK:   -8.33 KCAL/MOL
REMARK 923 INTER-LIGAND FREE ENERGY PREDICTED BY IDOCK:   -7.52 KCAL/MOL
REMARK 924 INTRA-LIGAND FREE ENERGY PREDICTED BY IDOCK:   -0.81 KCAL/MOL
REMARK 927      BINDING AFFINITY PREDICTED BY RF-SCORE:    0.00 PKD
ROOT
HETATM    1  N   UNL     1      -9.650  20.527  66.769  1.00  0.00    -0.637 N  
HETATM    2  C   UNL     1     -10.431  19.660  66.060  1.00  0.00    -0.523 C  
HETATM    3  H1  UNL     1      -9.159  20.210  67.604  1.00  0.00     0.000 HD 
HETATM    4  H2  UNL     1      -9.558  21.495  66.461  1.00  0.00     0.000 HD 
HETATM    5  O   UNL     1     -11.022  20.041  65.054  1.00  0.00    -0.225 OA 
ENDROOT
BRANCH   2   6
HETATM    6  C   UNL     1     -10.472  18.312  66.573  1.00  0.00    -0.356 A  
HETATM    7  C   UNL     1     -10.025  17.128  66.019  1.00  0.00    -0.270 A  
HETATM    8  C   UNL     1     -10.274  16.109  66.969  1.00  0.00    -0.285 A  
HETATM    9  C   UNL     1     -10.043  14.724  67.036  1.00  0.00    -0.245 A  
HETATM   10  C   UNL     1     -10.441  13.981  68.165  1.00  0.00    -0.243 A  
HETATM   11  C   UNL     1     -11.076  14.679  69.209  1.00  0.00    -0.290 A  
HETATM   12  O   UNL     1     -11.013  18.068  67.811  1.00  0.00    -0.317 OA 
HETATM   13  C   UNL     1     -10.891  16.732  68.043  1.00  0.00    -0.341 A  
HETATM   14  C   UNL     1     -11.312  16.063  69.181  1.00  0.00    -0.352 A  
BRANCH  10  15
HETATM   15  N   UNL     1     -10.243  12.616  68.226  1.00  0.00    -0.235 NA 
HETATM   16  C   UNL     1      -9.097  11.956  67.583  1.00  0.00    -0.179 C  
HETATM   17  N   UNL     1      -9.377   9.960  69.135  1.00  0.00    -0.181 NA 
HETATM   18  C   UNL     1      -8.442  10.968  68.574  1.00  0.00    -0.153 C  
HETATM   19  C   UNL     1     -11.222  11.710  68.851  1.00  0.00    -0.246 C  
HETATM   20  C   UNL     1     -10.498  10.696  69.771  1.00  0.00    -0.143 C  
BRANCH  17  21
HETATM   21  C   UNL     1      -9.877   9.027  68.112  1.00  0.00    -0.166 C  
BRANCH  21  22
HETATM   22  C   UNL     1     -10.596   7.808  68.707  1.00  0.00    -0.161 C  
BRANCH  22  23
HETATM   23  C   UNL     1      -9.883   6.480  68.440  1.00  0.00    -0.137 C  
BRANCH  23  24
HETATM   24  C   UNL     1     -10.589   5.313  69.128  1.00  0.00    -0.167 C  
BRANCH  24  25
HETATM   25  C   UNL     1      -9.673   4.533  70.005  1.00  0.00    -0.283 A  
HETATM   26  C   UNL     1      -9.363   3.193  69.880  1.00  0.00    -0.158 A  
HETATM   27  N   UNL     1      -8.511   2.858  70.895  1.00  0.00    -0.057 NA 
HETATM   28  H   UNL     1      -8.122   1.928  71.046  1.00  0.00     0.000 HD 
HETATM   29  C   UNL     1      -8.254   3.954  71.685  1.00  0.00    -0.078 A  
HETATM   30  C   UNL     1      -8.963   5.024  71.146  1.00  0.00    -0.165 A  
HETATM   31  C   UNL     1      -8.864   6.289  71.770  1.00  0.00    -0.137 A  
HETATM   32  C   UNL     1      -8.072   6.431  72.917  1.00  0.00    -0.106 A  
HETATM   33  C   UNL     1      -7.379   5.334  73.435  1.00  0.00    -0.095 A  
HETATM   34  C   UNL     1      -7.976   7.710  73.561  1.00  0.00    -0.141 C  
HETATM   35  N   UNL     1      -7.896   8.741  74.091  1.00  0.00    -0.376 NA 
HETATM   36  C   UNL     1      -7.455   4.075  72.828  1.00  0.00    -0.073 A  
ENDBRANCH  24  25
ENDBRANCH  23  24
ENDBRANCH  22  23
ENDBRANCH  21  22
ENDBRANCH  17  21
ENDBRANCH  10  15
ENDBRANCH   2   6
TORSDOF 7
ENDMDL
MODEL      151
REMARK 921   NORMALIZED FREE ENERGY PREDICTED BY IDOCK:   -5.00 KCAL/MOL
REMARK 922        TOTAL FREE ENERGY PREDICTED BY IDOCK:   -8.33 KCAL/MOL
REMARK 923 INTER-LIGAND FREE ENERGY PREDICTED BY IDOCK:   -7.69 KCAL/MOL
REMARK 924 INTRA-LIGAND FREE ENERGY PREDICTED BY IDOCK:   -0.64 KCAL/MOL
REMARK 927      BINDING AFFINITY PREDICTED BY RF-SCORE:    0.00 PKD
ROOT
HETATM    1  N   UNL     1      -9.575   1.492  68.849  1.00  0.00    -0.128 N  
HETATM    2  C   UNL     1      -8.701   2.521  68.644  1.00  0.00    -0.090 C  
HETATM    3  H1  UNL     1     -10.458   1.656  69.332  1.00  0.00     0.000 HD 
HETATM    4  H2  UNL     1      -9.343   0.556  68.517  1.00  0.00     0.000 HD 
HETATM    5  O   UNL     1      -7.638   2.324  68.063  1.00  0.00    -0.054 OA 
ENDROOT
BRANCH   2   6
HETATM    6  C   UNL     1      -9.140   3.805  69.135  1.00  0.00    -0.137 A  
HETATM    7  C   UNL     1      -9.422   4.975  68.457  1.00  0.00    -0.185 A  
HETATM    8  C   UNL     1      -9.855   5.915  69.422  1.00  0.00    -0.207 A  
HETATM    9  C   UNL     1     -10.303   7.248  69.393  1.00  0.00    -0.212 A  
HETATM   10  C   UNL     1     -10.658   7.916  70.581  1.00  0.00    -0.219 A  
HETATM   11  C   UNL     1     -10.544   7.198  71.786  1.00  0.00    -0.230 A  
HETATM   12  O   UNL     1      -9.351   3.987  70.480  1.00  0.00    -0.119 OA 
HETATM   13  C   UNL     1      -9.783   5.267  70.645  1.00  0.00    -0.186 A  
HETATM   14  C   UNL     1     -10.111   5.864  71.853  1.00  0.00    -0.222 A  
BRANCH  10  15
HETATM   15  N   UNL     1     -11.072   9.233  70.562  1.00  0.00    -0.252 NA 
HETATM   16  C   UNL     1     -10.442  10.245  69.702  1.00  0.00    -0.253 C  
HETATM   17  N   UNL     1     -12.528  11.691  69.878  1.00  0.00    -0.121 NA 
HETATM   18  C   UNL     1     -11.533  11.061  68.973  1.00  0.00    -0.299 C  
HETATM   19  C   UNL     1     -12.106   9.741  71.480  1.00  0.00    -0.409 C  
HETATM   20  C   UNL     1     -13.125  10.613  70.706  1.00  0.00    -0.219 C  
BRANCH  17  21
HETATM   21  C   UNL     1     -11.932  12.734  70.729  1.00  0.00     0.008 C  
BRANCH  21  22
HETATM   22  C   UNL     1     -12.206  14.157  70.220  1.00  0.00    -0.416 C  
BRANCH  22  23
HETATM   23  C   UNL     1     -11.063  14.745  69.390  1.00  0.00    -0.302 C  
BRANCH  23  24
HETATM   24  C   UNL     1     -11.290  16.225  69.087  1.00  0.00    -0.291 C  
BRANCH  24  25
HETATM   25  C   UNL     1     -10.588  16.667  67.850  1.00  0.00    -0.342 A  
HETATM   26  C   UNL     1     -10.892  16.289  66.557  1.00  0.00    -0.105 A  
HETATM   27  N   UNL     1      -9.997  16.893  65.718  1.00  0.00    -0.558 NA 
HETATM   28  H   UNL     1      -9.988  16.787  64.703  1.00  0.00     0.000 HD 
HETATM   29  C   UNL     1      -9.111  17.662  66.435  1.00  0.00    -0.234 A  
HETATM   30  C   UNL     1      -9.463  17.547  67.778  1.00  0.00    -0.269 A  
HETATM   31  C   UNL     1      -8.708  18.256  68.741  1.00  0.00    -0.238 A  
HETATM   32  C   UNL     1      -7.623  19.039  68.326  1.00  0.00    -0.331 A  
HETATM   33  C   UNL     1      -7.294  19.126  66.971  1.00  0.00    -0.225 A  
HETATM   34  C   UNL     1      -6.847  19.753  69.300  1.00  0.00    -0.335 C  
HETATM   35  N   UNL     1      -6.212  20.330  70.082  1.00  0.00    -0.365 NA 
HETATM   36  C   UNL     1      -8.034  18.441  65.999  1.00  0.00    -0.146 A  
ENDBRANCH  24  25
ENDBRANCH  23  24
ENDBRANCH  22  23
ENDBRANCH  21  22
ENDBRANCH  17  21
ENDBRANCH  10  15
ENDBRANCH   2   6
TORSDOF 7
ENDMDL
MODEL      152
REMARK 921   NORMALIZED FREE ENERGY PREDICTED BY IDOCK:   -4.99 KCAL/MOL
REMARK 922        TOTAL FREE ENERGY PREDICTED BY IDOCK:   -8.30 KCAL/MOL
REMARK 923 INTER-LIGAND FREE ENERGY PREDICTED BY IDOCK:   -7.57 KCAL/MOL
REMARK 924 INTRA-LIGAND FREE ENERGY PREDICTED BY IDOCK:   -0.74 KCAL/MOL
REMARK 927      BINDING AFFINITY PREDICTED BY RF-SCORE:    0.00 PKD
ROOT
HETATM    1  N   UNL     1     -10.520  19.672  65.789  1.00  0.00    -0.493 N  
HETATM    2  C   UNL     1     -10.187  19.384  67.082  1.00  0.00    -0.412 C  
HETATM    3  H1  UNL     1     -10.840  18.932  65.164  1.00  0.00     0.000 HD 
HETATM    4  H2  UNL     1     -10.448  20.630  65.447  1.00  0.00     0.000 HD 
HETATM    5  O   UNL     1      -9.802  20.274  67.834  1.00  0.00    -0.385 OA 
ENDROOT
BRANCH   2   6
HETATM    6  C   UNL     1     -10.347  18.002  67.463  1.00  0.00    -0.385 A  
HETATM    7  C   UNL     1     -10.114  16.842  66.748  1.00  0.00    -0.294 A  
HETATM    8  C   UNL     1     -10.393  15.761  67.617  1.00  0.00    -0.281 A  
HETATM    9  C   UNL     1     -10.335  14.359  67.522  1.00  0.00    -0.251 A  
HETATM   10  C   UNL     1     -10.706  13.547  68.612  1.00  0.00    -0.253 A  
HETATM   11  C   UNL     1     -11.136  14.195  69.785  1.00  0.00    -0.142 A  
HETATM   12  O   UNL     1     -10.785  17.687  68.725  1.00  0.00    -0.257 OA 
HETATM   13  C   UNL     1     -10.811  16.328  68.810  1.00  0.00    -0.317 A  
HETATM   14  C   UNL     1     -11.196  15.591  69.919  1.00  0.00    -0.322 A  
BRANCH  10  15
HETATM   15  N   UNL     1     -10.678  12.170  68.517  1.00  0.00    -0.225 NA 
HETATM   16  C   UNL     1      -9.542  11.443  67.933  1.00  0.00    -0.177 C  
HETATM   17  N   UNL     1     -10.258   9.336  69.166  1.00  0.00    -0.199 NA 
HETATM   18  C   UNL     1      -9.145  10.270  68.856  1.00  0.00    -0.168 C  
HETATM   19  C   UNL     1     -11.831  11.336  68.897  1.00  0.00    -0.345 C  
HETATM   20  C   UNL     1     -11.361  10.136  69.755  1.00  0.00    -0.256 C  
BRANCH  17  21
HETATM   21  C   UNL     1     -10.722   8.601  67.978  1.00  0.00    -0.074 C  
BRANCH  21  22
HETATM   22  C   UNL     1      -9.577   7.967  67.176  1.00  0.00    -0.222 C  
BRANCH  22  23
HETATM   23  C   UNL     1      -9.809   6.494  66.828  1.00  0.00    -0.213 C  
BRANCH  23  24
HETATM   24  C   UNL     1      -8.566   5.649  67.098  1.00  0.00    -0.109 C  
BRANCH  24  25
HETATM   25  C   UNL     1      -8.896   4.330  67.705  1.00  0.00    -0.126 A  
HETATM   26  C   UNL     1      -9.247   3.180  67.025  1.00  0.00    -0.172 A  
HETATM   27  N   UNL     1      -9.495   2.201  67.947  1.00  0.00    -0.353 NA 
HETATM   28  H   UNL     1      -9.777   1.248  67.722  1.00  0.00     0.000 HD 
HETATM   29  C   UNL     1      -9.313   2.686  69.221  1.00  0.00    -0.118 A  
HETATM   30  C   UNL     1      -8.927   4.018  69.101  1.00  0.00    -0.167 A  
HETATM   31  C   UNL     1      -8.662   4.758  70.278  1.00  0.00    -0.121 A  
HETATM   32  C   UNL     1      -8.809   4.140  71.526  1.00  0.00    -0.149 A  
HETATM   33  C   UNL     1      -9.204   2.803  71.610  1.00  0.00    -0.181 A  
HETATM   34  C   UNL     1      -8.552   4.889  72.724  1.00  0.00    -0.115 C  
HETATM   35  N   UNL     1      -8.350   5.488  73.698  1.00  0.00    -0.112 NA 
HETATM   36  C   UNL     1      -9.462   2.049  70.458  1.00  0.00    -0.171 A  
ENDBRANCH  24  25
ENDBRANCH  23  24
ENDBRANCH  22  23
ENDBRANCH  21  22
ENDBRANCH  17  21
ENDBRANCH  10  15
ENDBRANCH   2   6
TORSDOF 7
ENDMDL
MODEL      153
REMARK 921   NORMALIZED FREE ENERGY PREDICTED BY IDOCK:   -4.96 KCAL/MOL
REMARK 922        TOTAL FREE ENERGY PREDICTED BY IDOCK:   -8.27 KCAL/MOL
REMARK 923 INTER-LIGAND FREE ENERGY PREDICTED BY IDOCK:   -7.54 KCAL/MOL
REMARK 924 INTRA-LIGAND FREE ENERGY PREDICTED BY IDOCK:   -0.73 KCAL/MOL
REMARK 927      BINDING AFFINITY PREDICTED BY RF-SCORE:    0.00 PKD
ROOT
HETATM    1  N   UNL     1     -11.037   6.048  71.000  1.00  0.00    -0.294 N  
HETATM    2  C   UNL     1     -10.534   6.132  69.733  1.00  0.00    -0.239 C  
HETATM    3  H1  UNL     1     -11.373   6.885  71.476  1.00  0.00     0.000 HD 
HETATM    4  H2  UNL     1     -11.078   5.144  71.471  1.00  0.00     0.000 HD 
HETATM    5  O   UNL     1     -10.130   5.124  69.161  1.00  0.00    -0.193 OA 
ENDROOT
BRANCH   2   6
HETATM    6  C   UNL     1     -10.544   7.454  69.156  1.00  0.00    -0.204 A  
HETATM    7  C   UNL     1     -10.581   8.696  69.761  1.00  0.00    -0.224 A  
HETATM    8  C   UNL     1     -10.528   9.659  68.725  1.00  0.00    -0.238 A  
HETATM    9  C   UNL     1     -10.506  11.064  68.664  1.00  0.00    -0.214 A  
HETATM   10  C   UNL     1     -10.459  11.730  67.424  1.00  0.00    -0.211 A  
HETATM   11  C   UNL     1     -10.439  10.936  66.262  1.00  0.00    -0.304 A  
HETATM   12  O   UNL     1     -10.498   7.605  67.792  1.00  0.00    -0.211 OA 
HETATM   13  C   UNL     1     -10.490   8.942  67.540  1.00  0.00    -0.269 A  
HETATM   14  C   UNL     1     -10.449   9.532  66.285  1.00  0.00    -0.137 A  
BRANCH  10  15
HETATM   15  N   UNL     1     -10.465  13.109  67.355  1.00  0.00    -0.241 NA 
HETATM   16  C   UNL     1      -9.366  13.873  66.747  1.00  0.00    -0.275 C  
HETATM   17  N   UNL     1     -10.927  15.855  66.416  1.00  0.00    -0.189 NA 
HETATM   18  C   UNL     1      -9.940  14.938  65.788  1.00  0.00    -0.347 C  
HETATM   19  C   UNL     1     -11.524  13.920  67.980  1.00  0.00    -0.307 C  
HETATM   20  C   UNL     1     -12.005  15.017  66.999  1.00  0.00     0.001 C  
BRANCH  17  21
HETATM   21  C   UNL     1     -10.319  16.714  67.444  1.00  0.00    -0.292 C  
BRANCH  21  22
HETATM   22  C   UNL     1     -10.994  18.089  67.558  1.00  0.00    -0.111 C  
BRANCH  22  23
HETATM   23  C   UNL     1     -10.592  19.066  66.450  1.00  0.00    -0.492 C  
BRANCH  23  24
HETATM   24  C   UNL     1      -9.517  20.043  66.923  1.00  0.00    -0.529 C  
BRANCH  24  25
HETATM   25  C   UNL     1      -8.174  19.723  66.366  1.00  0.00    -0.371 A  
HETATM   26  C   UNL     1      -7.526  20.398  65.350  1.00  0.00     0.033 A  
HETATM   27  N   UNL     1      -6.332  19.774  65.121  1.00  0.00    -0.254 NA 
HETATM   28  H   UNL     1      -5.649  20.062  64.420  1.00  0.00     0.000 HD 
HETATM   29  C   UNL     1      -6.181  18.702  65.969  1.00  0.00    -0.201 A  
HETATM   30  C   UNL     1      -7.319  18.649  66.770  1.00  0.00    -0.234 A  
HETATM   31  C   UNL     1      -7.415  17.632  67.748  1.00  0.00    -0.205 A  
HETATM   32  C   UNL     1      -6.378  16.699  67.875  1.00  0.00    -0.147 A  
HETATM   33  C   UNL     1      -5.253  16.778  67.051  1.00  0.00    -0.154 A  
HETATM   34  C   UNL     1      -6.475  15.659  68.860  1.00  0.00    -0.113 C  
HETATM   35  N   UNL     1      -6.548  14.811  69.651  1.00  0.00    -0.149 NA 
HETATM   36  C   UNL     1      -5.132  17.782  66.083  1.00  0.00    -0.221 A  
ENDBRANCH  24  25
ENDBRANCH  23  24
ENDBRANCH  22  23
ENDBRANCH  21  22
ENDBRANCH  17  21
ENDBRANCH  10  15
ENDBRANCH   2   6
TORSDOF 7
ENDMDL
MODEL      154
REMARK 921   NORMALIZED FREE ENERGY PREDICTED BY IDOCK:   -4.94 KCAL/MOL
REMARK 922        TOTAL FREE ENERGY PREDICTED BY IDOCK:   -8.24 KCAL/MOL
REMARK 923 INTER-LIGAND FREE ENERGY PREDICTED BY IDOCK:   -6.84 KCAL/MOL
REMARK 924 INTRA-LIGAND FREE ENERGY PREDICTED BY IDOCK:   -1.40 KCAL/MOL
REMARK 927      BINDING AFFINITY PREDICTED BY RF-SCORE:    0.00 PKD
ROOT
HETATM    1  N   UNL     1      -8.162  16.695  66.331  1.00  0.00    -0.294 N  
HETATM    2  C   UNL     1      -9.422  16.191  66.177  1.00  0.00    -0.327 C  
HETATM    3  H1  UNL     1      -7.481  16.205  66.910  1.00  0.00     0.000 HD 
HETATM    4  H2  UNL     1      -7.902  17.565  65.866  1.00  0.00     0.000 HD 
HETATM    5  O   UNL     1     -10.242  16.781  65.480  1.00  0.00    -0.567 OA 
ENDROOT
BRANCH   2   6
HETATM    6  C   UNL     1      -9.673  14.947  66.862  1.00  0.00    -0.240 A  
HETATM    7  C   UNL     1      -8.840  13.870  67.098  1.00  0.00    -0.236 A  
HETATM    8  C   UNL     1      -9.583  12.934  67.855  1.00  0.00    -0.215 A  
HETATM    9  C   UNL     1      -9.324  11.676  68.428  1.00  0.00    -0.191 A  
HETATM   10  C   UNL     1     -10.327  10.984  69.134  1.00  0.00    -0.188 A  
HETATM   11  C   UNL     1     -11.588  11.601  69.238  1.00  0.00    -0.385 A  
HETATM   12  O   UNL     1     -10.907  14.707  67.414  1.00  0.00    -0.286 OA 
HETATM   13  C   UNL     1     -10.845  13.486  68.012  1.00  0.00    -0.250 A  
HETATM   14  C   UNL     1     -11.880  12.860  68.690  1.00  0.00    -0.347 A  
BRANCH  10  15
HETATM   15  N   UNL     1     -10.087   9.737  69.675  1.00  0.00    -0.214 NA 
HETATM   16  C   UNL     1      -8.838   9.408  70.378  1.00  0.00    -0.249 C  
HETATM   17  N   UNL     1     -10.007   7.475  71.549  1.00  0.00    -0.177 NA 
HETATM   18  C   UNL     1      -9.163   8.688  71.705  1.00  0.00    -0.268 C  
HETATM   19  C   UNL     1     -11.021   8.612  69.493  1.00  0.00    -0.055 C  
HETATM   20  C   UNL     1     -11.246   7.883  70.841  1.00  0.00    -0.270 C  
BRANCH  17  21
HETATM   21  C   UNL     1      -9.316   6.401  70.818  1.00  0.00    -0.158 C  
BRANCH  21  22
HETATM   22  C   UNL     1     -10.191   5.157  70.607  1.00  0.00    -0.326 C  
BRANCH  22  23
HETATM   23  C   UNL     1      -9.551   4.099  69.704  1.00  0.00    -0.277 C  
BRANCH  23  24
HETATM   24  C   UNL     1      -8.038   4.285  69.602  1.00  0.00    -0.062 C  
BRANCH  24  25
HETATM   25  C   UNL     1      -7.561   4.304  68.192  1.00  0.00    -0.068 A  
HETATM   26  C   UNL     1      -6.740   3.369  67.593  1.00  0.00    -0.042 A  
HETATM   27  N   UNL     1      -6.519   3.764  66.303  1.00  0.00    -0.036 NA 
HETATM   28  H   UNL     1      -5.944   3.258  65.630  1.00  0.00     0.000 HD 
HETATM   29  C   UNL     1      -7.180   4.941  66.042  1.00  0.00    -0.076 A  
HETATM   30  C   UNL     1      -7.852   5.301  67.208  1.00  0.00    -0.100 A  
HETATM   31  C   UNL     1      -8.628   6.483  67.208  1.00  0.00    -0.111 A  
HETATM   32  C   UNL     1      -8.688   7.267  66.049  1.00  0.00    -0.168 A  
HETATM   33  C   UNL     1      -7.996   6.880  64.899  1.00  0.00    -0.124 A  
HETATM   34  C   UNL     1      -9.466   8.474  66.046  1.00  0.00    -0.186 C  
HETATM   35  N   UNL     1     -10.089   9.454  66.037  1.00  0.00    -0.283 NA 
HETATM   36  C   UNL     1      -7.230   5.708  64.873  1.00  0.00    -0.065 A  
ENDBRANCH  24  25
ENDBRANCH  23  24
ENDBRANCH  22  23
ENDBRANCH  21  22
ENDBRANCH  17  21
ENDBRANCH  10  15
ENDBRANCH   2   6
TORSDOF 7
ENDMDL
MODEL      155
REMARK 921   NORMALIZED FREE ENERGY PREDICTED BY IDOCK:   -4.92 KCAL/MOL
REMARK 922        TOTAL FREE ENERGY PREDICTED BY IDOCK:   -8.22 KCAL/MOL
REMARK 923 INTER-LIGAND FREE ENERGY PREDICTED BY IDOCK:   -7.26 KCAL/MOL
REMARK 924 INTRA-LIGAND FREE ENERGY PREDICTED BY IDOCK:   -0.95 KCAL/MOL
REMARK 927      BINDING AFFINITY PREDICTED BY RF-SCORE:    0.00 PKD
ROOT
HETATM    1  N   UNL     1     -11.533   2.914  73.575  1.00  0.00    -0.175 N  
HETATM    2  C   UNL     1     -10.286   3.462  73.669  1.00  0.00    -0.152 C  
HETATM    3  H1  UNL     1     -12.202   3.274  72.894  1.00  0.00     0.000 HD 
HETATM    4  H2  UNL     1     -11.796   2.142  74.187  1.00  0.00     0.000 HD 
HETATM    5  O   UNL     1      -9.481   3.029  74.487  1.00  0.00    -0.088 OA 
ENDROOT
BRANCH   2   6
HETATM    6  C   UNL     1     -10.015   4.534  72.741  1.00  0.00    -0.160 A  
HETATM    7  C   UNL     1     -10.880   5.342  72.029  1.00  0.00    -0.266 A  
HETATM    8  C   UNL     1     -10.083   6.258  71.303  1.00  0.00    -0.222 A  
HETATM    9  C   UNL     1     -10.332   7.331  70.429  1.00  0.00    -0.217 A  
HETATM   10  C   UNL     1      -9.270   8.053  69.852  1.00  0.00    -0.152 A  
HETATM   11  C   UNL     1      -7.961   7.655  70.183  1.00  0.00    -0.109 A  
HETATM   12  O   UNL     1      -8.718   4.890  72.468  1.00  0.00    -0.118 OA 
HETATM   13  C   UNL     1      -8.767   5.933  71.595  1.00  0.00    -0.136 A  
HETATM   14  C   UNL     1      -7.674   6.597  71.060  1.00  0.00    -0.097 A  
BRANCH  10  15
HETATM   15  N   UNL     1      -9.507   9.090  68.972  1.00  0.00    -0.154 NA 
HETATM   16  C   UNL     1      -8.924  10.428  69.153  1.00  0.00    -0.179 C  
HETATM   17  N   UNL     1      -9.275  10.914  66.680  1.00  0.00    -0.165 NA 
HETATM   18  C   UNL     1      -8.320  10.917  67.818  1.00  0.00    -0.117 C  
HETATM   19  C   UNL     1     -10.447   8.961  67.845  1.00  0.00    -0.223 C  
HETATM   20  C   UNL     1      -9.815   9.537  66.554  1.00  0.00    -0.240 C  
BRANCH  17  21
HETATM   21  C   UNL     1     -10.364  11.889  66.859  1.00  0.00    -0.210 C  
BRANCH  21  22
HETATM   22  C   UNL     1     -11.461  11.770  65.792  1.00  0.00    -0.258 C  
BRANCH  22  23
HETATM   23  C   UNL     1     -11.826  13.102  65.131  1.00  0.00    -0.392 C  
BRANCH  23  24
HETATM   24  C   UNL     1     -10.593  13.809  64.570  1.00  0.00    -0.405 C  
BRANCH  24  25
HETATM   25  C   UNL     1     -10.556  15.254  64.925  1.00  0.00    -0.379 A  
HETATM   26  C   UNL     1     -11.191  16.280  64.252  1.00  0.00     0.052 A  
HETATM   27  N   UNL     1     -10.883  17.454  64.881  1.00  0.00    -0.771 NA 
HETATM   28  H   UNL     1     -11.217  18.373  64.593  1.00  0.00     0.000 HD 
HETATM   29  C   UNL     1     -10.060  17.219  65.957  1.00  0.00    -0.262 A  
HETATM   30  C   UNL     1      -9.844  15.845  66.016  1.00  0.00    -0.366 A  
HETATM   31  C   UNL     1      -9.028  15.329  67.050  1.00  0.00    -0.254 A  
HETATM   32  C   UNL     1      -8.449  16.208  67.974  1.00  0.00    -0.168 A  
HETATM   33  C   UNL     1      -8.682  17.583  67.881  1.00  0.00    -0.247 A  
HETATM   34  C   UNL     1      -7.612  15.692  69.019  1.00  0.00    -0.187 C  
HETATM   35  N   UNL     1      -6.931  15.281  69.866  1.00  0.00    -0.161 NA 
HETATM   36  C   UNL     1      -9.494  18.114  66.872  1.00  0.00    -0.286 A  
ENDBRANCH  24  25
ENDBRANCH  23  24
ENDBRANCH  22  23
ENDBRANCH  21  22
ENDBRANCH  17  21
ENDBRANCH  10  15
ENDBRANCH   2   6
TORSDOF 7
ENDMDL
MODEL      156
REMARK 921   NORMALIZED FREE ENERGY PREDICTED BY IDOCK:   -4.92 KCAL/MOL
REMARK 922        TOTAL FREE ENERGY PREDICTED BY IDOCK:   -8.21 KCAL/MOL
REMARK 923 INTER-LIGAND FREE ENERGY PREDICTED BY IDOCK:   -7.24 KCAL/MOL
REMARK 924 INTRA-LIGAND FREE ENERGY PREDICTED BY IDOCK:   -0.97 KCAL/MOL
REMARK 927      BINDING AFFINITY PREDICTED BY RF-SCORE:    0.00 PKD
ROOT
HETATM    1  N   UNL     1     -13.316   7.701  71.264  1.00  0.00    -0.554 N  
HETATM    2  C   UNL     1     -12.054   7.203  71.102  1.00  0.00    -0.358 C  
HETATM    3  H1  UNL     1     -13.536   8.650  70.961  1.00  0.00     0.000 HD 
HETATM    4  H2  UNL     1     -14.040   7.122  71.689  1.00  0.00     0.000 HD 
HETATM    5  O   UNL     1     -11.790   6.061  71.466  1.00  0.00    -0.215 OA 
ENDROOT
BRANCH   2   6
HETATM    6  C   UNL     1     -11.117   8.100  70.471  1.00  0.00    -0.253 A  
HETATM    7  C   UNL     1     -10.774   9.402  70.782  1.00  0.00    -0.373 A  
HETATM    8  C   UNL     1      -9.770   9.792  69.865  1.00  0.00    -0.273 A  
HETATM    9  C   UNL     1      -8.999  10.950  69.657  1.00  0.00     0.395 A  
HETATM   10  C   UNL     1      -8.061  11.012  68.608  1.00  0.00    -0.149 A  
HETATM   11  C   UNL     1      -7.933   9.877  67.785  1.00  0.00    -0.105 A  
HETATM   12  O   UNL     1     -10.390   7.677  69.385  1.00  0.00    -0.205 OA 
HETATM   13  C   UNL     1      -9.578   8.708  69.024  1.00  0.00    -0.163 A  
HETATM   14  C   UNL     1      -8.677   8.701  67.970  1.00  0.00    -0.141 A  
BRANCH  10  15
HETATM   15  N   UNL     1      -7.321  12.155  68.380  1.00  0.00    -0.101 NA 
HETATM   16  C   UNL     1      -7.940  13.481  68.235  1.00  0.00    -0.147 C  
HETATM   17  N   UNL     1      -5.723  14.581  68.824  1.00  0.00    -0.083 NA 
HETATM   18  C   UNL     1      -7.181  14.508  69.103  1.00  0.00    -0.138 C  
HETATM   19  C   UNL     1      -5.865  12.114  68.160  1.00  0.00    -0.056 C  
HETATM   20  C   UNL     1      -5.168  13.215  68.997  1.00  0.00    -0.069 C  
BRANCH  17  21
HETATM   21  C   UNL     1      -5.434  15.097  67.477  1.00  0.00     0.109 C  
BRANCH  21  22
HETATM   22  C   UNL     1      -6.035  16.487  67.222  1.00  0.00    -0.200 C  
BRANCH  22  23
HETATM   23  C   UNL     1      -5.130  17.640  67.662  1.00  0.00    -0.128 C  
BRANCH  23  24
HETATM   24  C   UNL     1      -5.783  18.481  68.758  1.00  0.00    -0.200 C  
BRANCH  24  25
HETATM   25  C   UNL     1      -6.839  19.386  68.227  1.00  0.00    -0.309 A  
HETATM   26  C   UNL     1      -6.658  20.676  67.768  1.00  0.00    -0.323 A  
HETATM   27  N   UNL     1      -7.877  21.168  67.395  1.00  0.00    -0.559 NA 
HETATM   28  H   UNL     1      -8.037  22.103  67.019  1.00  0.00     0.000 HD 
HETATM   29  C   UNL     1      -8.857  20.225  67.598  1.00  0.00    -0.274 A  
HETATM   30  C   UNL     1      -8.234  19.091  68.112  1.00  0.00    -0.349 A  
HETATM   31  C   UNL     1      -9.024  17.955  68.404  1.00  0.00    -0.285 A  
HETATM   32  C   UNL     1     -10.407  18.003  68.185  1.00  0.00    -0.398 A  
HETATM   33  C   UNL     1     -11.000  19.160  67.674  1.00  0.00    -0.365 A  
HETATM   34  C   UNL     1     -11.216  16.857  68.490  1.00  0.00    -0.112 C  
HETATM   35  N   UNL     1     -11.877  15.935  68.737  1.00  0.00    -0.358 NA 
HETATM   36  C   UNL     1     -10.236  20.293  67.369  1.00  0.00    -0.494 A  
ENDBRANCH  24  25
ENDBRANCH  23  24
ENDBRANCH  22  23
ENDBRANCH  21  22
ENDBRANCH  17  21
ENDBRANCH  10  15
ENDBRANCH   2   6
TORSDOF 7
ENDMDL
MODEL      157
REMARK 921   NORMALIZED FREE ENERGY PREDICTED BY IDOCK:   -4.92 KCAL/MOL
REMARK 922        TOTAL FREE ENERGY PREDICTED BY IDOCK:   -8.21 KCAL/MOL
REMARK 923 INTER-LIGAND FREE ENERGY PREDICTED BY IDOCK:   -7.83 KCAL/MOL
REMARK 924 INTRA-LIGAND FREE ENERGY PREDICTED BY IDOCK:   -0.38 KCAL/MOL
REMARK 927      BINDING AFFINITY PREDICTED BY RF-SCORE:    0.00 PKD
ROOT
HETATM    1  N   UNL     1      -9.905   5.338  74.481  1.00  0.00    -0.184 N  
HETATM    2  C   UNL     1     -10.325   4.970  73.234  1.00  0.00    -0.191 C  
HETATM    3  H1  UNL     1      -9.657   6.308  74.673  1.00  0.00     0.000 HD 
HETATM    4  H2  UNL     1      -9.840   4.640  75.221  1.00  0.00     0.000 HD 
HETATM    5  O   UNL     1     -10.624   3.803  73.002  1.00  0.00    -0.168 OA 
ENDROOT
BRANCH   2   6
HETATM    6  C   UNL     1     -10.399   6.042  72.271  1.00  0.00    -0.192 A  
HETATM    7  C   UNL     1     -10.218   6.030  70.901  1.00  0.00    -0.259 A  
HETATM    8  C   UNL     1     -10.452   7.348  70.444  1.00  0.00    -0.230 A  
HETATM    9  C   UNL     1     -10.455   7.990  69.193  1.00  0.00    -0.217 A  
HETATM   10  C   UNL     1     -10.728   9.367  69.089  1.00  0.00    -0.197 A  
HETATM   11  C   UNL     1     -10.991  10.067  70.282  1.00  0.00    -0.377 A  
HETATM   12  O   UNL     1     -10.707   7.314  72.686  1.00  0.00    -0.236 OA 
HETATM   13  C   UNL     1     -10.735   8.099  71.574  1.00  0.00    -0.233 A  
HETATM   14  C   UNL     1     -11.008   9.458  71.547  1.00  0.00    -0.429 A  
BRANCH  10  15
HETATM   15  N   UNL     1     -10.706  10.009  67.867  1.00  0.00    -0.255 NA 
HETATM   16  C   UNL     1     -10.652  11.473  67.745  1.00  0.00    -0.192 C  
HETATM   17  N   UNL     1      -9.746  11.243  65.379  1.00  0.00    -0.222 NA 
HETATM   18  C   UNL     1      -9.573  11.871  66.714  1.00  0.00    -0.204 C  
HETATM   19  C   UNL     1     -10.842   9.276  66.596  1.00  0.00     0.148 C  
HETATM   20  C   UNL     1      -9.784   9.772  65.579  1.00  0.00    -0.312 C  
BRANCH  17  21
HETATM   21  C   UNL     1     -10.962  11.709  64.693  1.00  0.00    -0.301 C  
BRANCH  21  22
HETATM   22  C   UNL     1     -10.878  13.175  64.246  1.00  0.00    -0.430 C  
BRANCH  22  23
HETATM   23  C   UNL     1     -11.103  14.179  65.379  1.00  0.00    -0.321 C  
BRANCH  23  24
HETATM   24  C   UNL     1     -10.826  15.612  64.926  1.00  0.00    -0.438 C  
BRANCH  24  25
HETATM   25  C   UNL     1     -10.219  16.442  66.003  1.00  0.00    -0.373 A  
HETATM   26  C   UNL     1     -10.636  17.696  66.403  1.00  0.00    -0.208 A  
HETATM   27  N   UNL     1      -9.801  18.123  67.398  1.00  0.00    -0.302 NA 
HETATM   28  H   UNL     1      -9.877  19.020  67.877  1.00  0.00     0.000 HD 
HETATM   29  C   UNL     1      -8.844  17.171  67.661  1.00  0.00    -0.218 A  
HETATM   30  C   UNL     1      -9.086  16.099  66.806  1.00  0.00    -0.257 A  
HETATM   31  C   UNL     1      -8.241  14.967  66.878  1.00  0.00    -0.178 A  
HETATM   32  C   UNL     1      -7.179  14.959  67.791  1.00  0.00    -0.190 A  
HETATM   33  C   UNL     1      -6.960  16.055  68.629  1.00  0.00    -0.133 A  
HETATM   34  C   UNL     1      -6.311  13.817  67.862  1.00  0.00    -0.157 C  
HETATM   35  N   UNL     1      -5.602  12.899  67.922  1.00  0.00    -0.107 NA 
HETATM   36  C   UNL     1      -7.791  17.181  68.582  1.00  0.00    -0.265 A  
ENDBRANCH  24  25
ENDBRANCH  23  24
ENDBRANCH  22  23
ENDBRANCH  21  22
ENDBRANCH  17  21
ENDBRANCH  10  15
ENDBRANCH   2   6
TORSDOF 7
ENDMDL
MODEL      158
REMARK 921   NORMALIZED FREE ENERGY PREDICTED BY IDOCK:   -4.90 KCAL/MOL
REMARK 922        TOTAL FREE ENERGY PREDICTED BY IDOCK:   -8.19 KCAL/MOL
REMARK 923 INTER-LIGAND FREE ENERGY PREDICTED BY IDOCK:   -7.67 KCAL/MOL
REMARK 924 INTRA-LIGAND FREE ENERGY PREDICTED BY IDOCK:   -0.52 KCAL/MOL
REMARK 927      BINDING AFFINITY PREDICTED BY RF-SCORE:    0.00 PKD
ROOT
HETATM    1  N   UNL     1      -9.692  20.509  66.552  1.00  0.00    -0.646 N  
HETATM    2  C   UNL     1      -8.822  19.513  66.213  1.00  0.00    -0.361 C  
HETATM    3  H1  UNL     1     -10.571  20.286  67.017  1.00  0.00     0.000 HD 
HETATM    4  H2  UNL     1      -9.461  21.479  66.340  1.00  0.00     0.000 HD 
HETATM    5  O   UNL     1      -7.763  19.781  65.653  1.00  0.00    -0.367 OA 
ENDROOT
BRANCH   2   6
HETATM    6  C   UNL     1      -9.240  18.181  66.580  1.00  0.00    -0.281 A  
HETATM    7  C   UNL     1      -9.048  17.473  67.750  1.00  0.00    -0.249 A  
HETATM    8  C   UNL     1      -9.706  16.230  67.590  1.00  0.00    -0.234 A  
HETATM    9  C   UNL     1      -9.910  15.093  68.393  1.00  0.00    -0.223 A  
HETATM   10  C   UNL     1     -10.628  13.985  67.904  1.00  0.00    -0.244 A  
HETATM   11  C   UNL     1     -11.126  14.065  66.590  1.00  0.00    -0.312 A  
HETATM   12  O   UNL     1      -9.962  17.423  65.692  1.00  0.00    -0.559 OA 
HETATM   13  C   UNL     1     -10.239  16.243  66.311  1.00  0.00    -0.327 A  
HETATM   14  C   UNL     1     -10.952  15.187  65.764  1.00  0.00    -0.350 A  
BRANCH  10  15
HETATM   15  N   UNL     1     -10.808  12.855  68.676  1.00  0.00    -0.253 NA 
HETATM   16  C   UNL     1     -11.954  12.694  69.583  1.00  0.00    -0.286 C  
HETATM   17  N   UNL     1     -11.626  10.171  69.548  1.00  0.00    -0.168 NA 
HETATM   18  C   UNL     1     -12.582  11.297  69.385  1.00  0.00     0.181 C  
HETATM   19  C   UNL     1      -9.809  11.774  68.727  1.00  0.00    -0.087 C  
HETATM   20  C   UNL     1     -10.506  10.397  68.601  1.00  0.00    -0.196 C  
BRANCH  17  21
HETATM   21  C   UNL     1     -11.129  10.052  70.928  1.00  0.00    -0.314 C  
BRANCH  21  22
HETATM   22  C   UNL     1     -10.528   8.673  71.235  1.00  0.00    -0.311 C  
BRANCH  22  23
HETATM   23  C   UNL     1     -11.528   7.522  71.109  1.00  0.00    -0.295 C  
BRANCH  23  24
HETATM   24  C   UNL     1     -11.689   6.768  72.428  1.00  0.00    -0.255 C  
BRANCH  24  25
HETATM   25  C   UNL     1     -10.620   5.753  72.637  1.00  0.00    -0.261 A  
HETATM   26  C   UNL     1     -10.747   4.386  72.487  1.00  0.00    -0.090 A  
HETATM   27  N   UNL     1      -9.545   3.813  72.798  1.00  0.00    -0.125 NA 
HETATM   28  H   UNL     1      -9.355   2.811  72.774  1.00  0.00     0.000 HD 
HETATM   29  C   UNL     1      -8.630   4.778  73.146  1.00  0.00    -0.106 A  
HETATM   30  C   UNL     1      -9.273   6.008  73.046  1.00  0.00    -0.133 A  
HETATM   31  C   UNL     1      -8.544   7.183  73.344  1.00  0.00    -0.162 A  
HETATM   32  C   UNL     1      -7.205   7.079  73.746  1.00  0.00    -0.084 A  
HETATM   33  C   UNL     1      -6.593   5.827  73.842  1.00  0.00    -0.079 A  
HETATM   34  C   UNL     1      -6.463   8.267  74.060  1.00  0.00    -0.125 C  
HETATM   35  N   UNL     1      -5.856   9.223  74.319  1.00  0.00    -0.287 NA 
HETATM   36  C   UNL     1      -7.293   4.652  73.542  1.00  0.00    -0.082 A  
ENDBRANCH  24  25
ENDBRANCH  23  24
ENDBRANCH  22  23
ENDBRANCH  21  22
ENDBRANCH  17  21
ENDBRANCH  10  15
ENDBRANCH   2   6
TORSDOF 7
ENDMDL
MODEL      159
REMARK 921   NORMALIZED FREE ENERGY PREDICTED BY IDOCK:   -4.90 KCAL/MOL
REMARK 922        TOTAL FREE ENERGY PREDICTED BY IDOCK:   -8.19 KCAL/MOL
REMARK 923 INTER-LIGAND FREE ENERGY PREDICTED BY IDOCK:   -7.70 KCAL/MOL
REMARK 924 INTRA-LIGAND FREE ENERGY PREDICTED BY IDOCK:   -0.48 KCAL/MOL
REMARK 927      BINDING AFFINITY PREDICTED BY RF-SCORE:    0.00 PKD
ROOT
HETATM    1  N   UNL     1      -7.345   3.818  67.965  1.00  0.00    -0.061 N  
HETATM    2  C   UNL     1      -7.894   4.186  66.770  1.00  0.00    -0.097 C  
HETATM    3  H1  UNL     1      -7.292   4.487  68.733  1.00  0.00     0.000 HD 
HETATM    4  H2  UNL     1      -6.987   2.871  68.090  1.00  0.00     0.000 HD 
HETATM    5  O   UNL     1      -7.958   3.381  65.846  1.00  0.00    -0.091 OA 
ENDROOT
BRANCH   2   6
HETATM    6  C   UNL     1      -8.387   5.541  66.713  1.00  0.00    -0.108 A  
HETATM    7  C   UNL     1      -8.221   6.514  65.746  1.00  0.00    -0.135 A  
HETATM    8  C   UNL     1      -8.956   7.646  66.173  1.00  0.00    -0.197 A  
HETATM    9  C   UNL     1      -9.216   8.926  65.653  1.00  0.00    -0.268 A  
HETATM   10  C   UNL     1     -10.008   9.847  66.366  1.00  0.00    -0.244 A  
HETATM   11  C   UNL     1     -10.520   9.433  67.611  1.00  0.00    -0.328 A  
HETATM   12  O   UNL     1      -9.168   6.028  67.732  1.00  0.00    -0.111 OA 
HETATM   13  C   UNL     1      -9.507   7.304  67.398  1.00  0.00    -0.132 A  
HETATM   14  C   UNL     1     -10.291   8.160  68.156  1.00  0.00    -0.251 A  
BRANCH  10  15
HETATM   15  N   UNL     1     -10.245  11.115  65.875  1.00  0.00    -0.244 NA 
HETATM   16  C   UNL     1      -9.487  11.679  64.748  1.00  0.00    -0.063 C  
HETATM   17  N   UNL     1     -11.364  13.341  64.317  1.00  0.00    -0.379 NA 
HETATM   18  C   UNL     1     -10.460  12.317  63.733  1.00  0.00    -0.444 C  
HETATM   19  C   UNL     1     -11.203  12.036  66.511  1.00  0.00    -0.334 C  
HETATM   20  C   UNL     1     -12.098  12.701  65.437  1.00  0.00    -0.462 C  
BRANCH  17  21
HETATM   21  C   UNL     1     -10.636  14.533  64.781  1.00  0.00    -0.377 C  
BRANCH  21  22
HETATM   22  C   UNL     1     -11.265  15.177  66.025  1.00  0.00    -0.275 C  
BRANCH  22  23
HETATM   23  C   UNL     1     -10.345  15.183  67.248  1.00  0.00    -0.261 C  
BRANCH  23  24
HETATM   24  C   UNL     1      -8.875  15.072  66.849  1.00  0.00    -0.285 C  
BRANCH  24  25
HETATM   25  C   UNL     1      -7.954  15.405  67.970  1.00  0.00    -0.134 A  
HETATM   26  C   UNL     1      -7.521  14.542  68.958  1.00  0.00    -0.131 A  
HETATM   27  N   UNL     1      -6.711  15.243  69.808  1.00  0.00    -0.178 NA 
HETATM   28  H   UNL     1      -6.253  14.851  70.631  1.00  0.00     0.000 HD 
HETATM   29  C   UNL     1      -6.602  16.550  69.395  1.00  0.00    -0.213 A  
HETATM   30  C   UNL     1      -7.364  16.680  68.238  1.00  0.00    -0.179 A  
HETATM   31  C   UNL     1      -7.416  17.939  67.596  1.00  0.00    -0.208 A  
HETATM   32  C   UNL     1      -6.716  19.021  68.145  1.00  0.00    -0.256 A  
HETATM   33  C   UNL     1      -5.965  18.857  69.312  1.00  0.00    -0.255 A  
HETATM   34  C   UNL     1      -6.773  20.305  67.504  1.00  0.00    -0.248 C  
HETATM   35  N   UNL     1      -6.817  21.347  66.993  1.00  0.00    -0.526 NA 
HETATM   36  C   UNL     1      -5.892  17.617  69.958  1.00  0.00    -0.229 A  
ENDBRANCH  24  25
ENDBRANCH  23  24
ENDBRANCH  22  23
ENDBRANCH  21  22
ENDBRANCH  17  21
ENDBRANCH  10  15
ENDBRANCH   2   6
TORSDOF 7
ENDMDL
MODEL      160
REMARK 921   NORMALIZED FREE ENERGY PREDICTED BY IDOCK:   -4.89 KCAL/MOL
REMARK 922        TOTAL FREE ENERGY PREDICTED BY IDOCK:   -8.16 KCAL/MOL
REMARK 923 INTER-LIGAND FREE ENERGY PREDICTED BY IDOCK:   -7.50 KCAL/MOL
REMARK 924 INTRA-LIGAND FREE ENERGY PREDICTED BY IDOCK:   -0.66 KCAL/MOL
REMARK 927      BINDING AFFINITY PREDICTED BY RF-SCORE:    0.00 PKD
ROOT
HETATM    1  N   UNL     1      -9.448  20.560  66.562  1.00  0.00    -0.649 N  
HETATM    2  C   UNL     1      -8.444  19.640  66.462  1.00  0.00    -0.345 C  
HETATM    3  H1  UNL     1     -10.391  20.266  66.817  1.00  0.00     0.000 HD 
HETATM    4  H2  UNL     1      -9.255  21.545  66.380  1.00  0.00     0.000 HD 
HETATM    5  O   UNL     1      -7.310  19.993  66.155  1.00  0.00    -0.274 OA 
ENDROOT
BRANCH   2   6
HETATM    6  C   UNL     1      -8.826  18.281  66.761  1.00  0.00    -0.276 A  
HETATM    7  C   UNL     1      -8.835  17.596  67.961  1.00  0.00    -0.257 A  
HETATM    8  C   UNL     1      -9.344  16.303  67.693  1.00  0.00    -0.218 A  
HETATM    9  C   UNL     1      -9.625  15.158  68.459  1.00  0.00    -0.214 A  
HETATM   10  C   UNL     1     -10.133  13.992  67.853  1.00  0.00    -0.237 A  
HETATM   11  C   UNL     1     -10.343  14.024  66.462  1.00  0.00    -0.285 A  
HETATM   12  O   UNL     1      -9.280  17.461  65.758  1.00  0.00    -0.517 OA 
HETATM   13  C   UNL     1      -9.590  16.266  66.329  1.00  0.00    -0.308 A  
HETATM   14  C   UNL     1     -10.085  15.153  65.667  1.00  0.00    -0.392 A  
BRANCH  10  15
HETATM   15  N   UNL     1     -10.385  12.855  68.595  1.00  0.00    -0.223 NA 
HETATM   16  C   UNL     1     -11.719  12.541  69.129  1.00  0.00    -0.321 C  
HETATM   17  N   UNL     1     -11.064  10.091  69.322  1.00  0.00    -0.225 NA 
HETATM   18  C   UNL     1     -12.067  11.068  68.826  1.00  0.00    -0.114 C  
HETATM   19  C   UNL     1      -9.313  11.928  68.994  1.00  0.00     0.264 C  
HETATM   20  C   UNL     1      -9.751  10.465  68.738  1.00  0.00    -0.183 C  
BRANCH  17  21
HETATM   21  C   UNL     1     -10.992  10.056  70.791  1.00  0.00    -0.305 C  
BRANCH  21  22
HETATM   22  C   UNL     1     -10.449   8.728  71.337  1.00  0.00    -0.354 C  
BRANCH  22  23
HETATM   23  C   UNL     1     -11.250   7.503  70.889  1.00  0.00    -0.286 C  
BRANCH  23  24
HETATM   24  C   UNL     1     -10.361   6.268  70.751  1.00  0.00    -0.256 C  
BRANCH  24  25
HETATM   25  C   UNL     1      -9.225   6.488  69.814  1.00  0.00    -0.145 A  
HETATM   26  C   UNL     1      -8.041   7.138  70.102  1.00  0.00    -0.130 A  
HETATM   27  N   UNL     1      -7.277   7.148  68.968  1.00  0.00    -0.084 NA 
HETATM   28  H   UNL     1      -6.350   7.566  68.894  1.00  0.00     0.000 HD 
HETATM   29  C   UNL     1      -7.936   6.514  67.941  1.00  0.00    -0.109 A  
HETATM   30  C   UNL     1      -9.159   6.080  68.445  1.00  0.00    -0.112 A  
HETATM   31  C   UNL     1     -10.039   5.380  67.586  1.00  0.00    -0.217 A  
HETATM   32  C   UNL     1      -9.667   5.157  66.254  1.00  0.00    -0.188 A  
HETATM   33  C   UNL     1      -8.434   5.611  65.780  1.00  0.00    -0.140 A  
HETATM   34  C   UNL     1     -10.559   4.456  65.374  1.00  0.00    -0.161 C  
HETATM   35  N   UNL     1     -11.278   3.894  64.656  1.00  0.00    -0.147 NA 
HETATM   36  C   UNL     1      -7.544   6.297  66.615  1.00  0.00    -0.095 A  
ENDBRANCH  24  25
ENDBRANCH  23  24
ENDBRANCH  22  23
ENDBRANCH  21  22
ENDBRANCH  17  21
ENDBRANCH  10  15
ENDBRANCH   2   6
TORSDOF 7
ENDMDL
MODEL      161
REMARK 921   NORMALIZED FREE ENERGY PREDICTED BY IDOCK:   -4.86 KCAL/MOL
REMARK 922        TOTAL FREE ENERGY PREDICTED BY IDOCK:   -8.13 KCAL/MOL
REMARK 923 INTER-LIGAND FREE ENERGY PREDICTED BY IDOCK:   -7.77 KCAL/MOL
REMARK 924 INTRA-LIGAND FREE ENERGY PREDICTED BY IDOCK:   -0.36 KCAL/MOL
REMARK 927      BINDING AFFINITY PREDICTED BY RF-SCORE:    0.00 PKD
ROOT
HETATM    1  N   UNL     1     -12.399  15.325  63.825  1.00  0.00    -0.993 N  
HETATM    2  C   UNL     1     -12.218  13.972  63.816  1.00  0.00    -0.205 C  
HETATM    3  H1  UNL     1     -11.971  15.895  64.555  1.00  0.00     0.000 HD 
HETATM    4  H2  UNL     1     -12.964  15.767  63.100  1.00  0.00     0.000 HD 
HETATM    5  O   UNL     1     -12.733  13.286  62.938  1.00  0.00    -0.473 OA 
ENDROOT
BRANCH   2   6
HETATM    6  C   UNL     1     -11.385  13.457  64.875  1.00  0.00    -0.328 A  
HETATM    7  C   UNL     1     -11.367  12.214  65.478  1.00  0.00    -0.393 A  
HETATM    8  C   UNL     1     -10.319  12.232  66.427  1.00  0.00    -0.250 A  
HETATM    9  C   UNL     1      -9.770  11.307  67.333  1.00  0.00    -0.190 A  
HETATM   10  C   UNL     1      -8.698  11.667  68.172  1.00  0.00    -0.159 A  
HETATM   11  C   UNL     1      -8.207  12.982  68.066  1.00  0.00    -0.161 A  
HETATM   12  O   UNL     1     -10.413  14.253  65.428  1.00  0.00    -0.321 OA 
HETATM   13  C   UNL     1      -9.773  13.505  66.368  1.00  0.00    -0.289 A  
HETATM   14  C   UNL     1      -8.721  13.929  67.166  1.00  0.00    -0.233 A  
BRANCH  10  15
HETATM   15  N   UNL     1      -8.172  10.772  69.082  1.00  0.00    -0.146 NA 
HETATM   16  C   UNL     1      -8.774   9.453  69.328  1.00  0.00    -0.145 C  
HETATM   17  N   UNL     1      -6.562   8.621  70.270  1.00  0.00    -0.038 NA 
HETATM   18  C   UNL     1      -7.674   8.369  69.318  1.00  0.00    -0.098 C  
HETATM   19  C   UNL     1      -7.032  11.116  69.949  1.00  0.00     0.004 C  
HETATM   20  C   UNL     1      -6.002   9.960  69.958  1.00  0.00    -0.049 C  
BRANCH  17  21
HETATM   21  C   UNL     1      -6.998   8.552  71.674  1.00  0.00    -0.088 C  
BRANCH  21  22
HETATM   22  C   UNL     1      -8.475   8.159  71.828  1.00  0.00    -0.186 C  
BRANCH  22  23
HETATM   23  C   UNL     1      -8.716   7.064  72.869  1.00  0.00    -0.137 C  
BRANCH  23  24
HETATM   24  C   UNL     1      -9.382   5.835  72.251  1.00  0.00    -0.155 C  
BRANCH  24  25
HETATM   25  C   UNL     1     -10.233   6.179  71.079  1.00  0.00    -0.244 A  
HETATM   26  C   UNL     1     -11.412   6.898  71.106  1.00  0.00    -0.304 A  
HETATM   27  N   UNL     1     -11.893   6.971  69.828  1.00  0.00    -0.590 NA 
HETATM   28  H   UNL     1     -12.754   7.444  69.557  1.00  0.00     0.000 HD 
HETATM   29  C   UNL     1     -11.051   6.314  68.962  1.00  0.00    -0.378 A  
HETATM   30  C   UNL     1      -9.994   5.813  69.717  1.00  0.00    -0.250 A  
HETATM   31  C   UNL     1      -8.969   5.095  69.059  1.00  0.00    -0.123 A  
HETATM   32  C   UNL     1      -9.050   4.892  67.675  1.00  0.00    -0.126 A  
HETATM   33  C   UNL     1     -10.128   5.403  66.949  1.00  0.00    -0.240 A  
HETATM   34  C   UNL     1      -8.017   4.155  67.003  1.00  0.00    -0.097 C  
HETATM   35  N   UNL     1      -7.188   3.556  66.453  1.00  0.00    -0.063 NA 
HETATM   36  C   UNL     1     -11.149   6.126  67.579  1.00  0.00    -0.318 A  
ENDBRANCH  24  25
ENDBRANCH  23  24
ENDBRANCH  22  23
ENDBRANCH  21  22
ENDBRANCH  17  21
ENDBRANCH  10  15
ENDBRANCH   2   6
TORSDOF 7
ENDMDL
MODEL      162
REMARK 921   NORMALIZED FREE ENERGY PREDICTED BY IDOCK:   -4.84 KCAL/MOL
REMARK 922        TOTAL FREE ENERGY PREDICTED BY IDOCK:   -8.10 KCAL/MOL
REMARK 923 INTER-LIGAND FREE ENERGY PREDICTED BY IDOCK:   -7.27 KCAL/MOL
REMARK 924 INTRA-LIGAND FREE ENERGY PREDICTED BY IDOCK:   -0.83 KCAL/MOL
REMARK 927      BINDING AFFINITY PREDICTED BY RF-SCORE:    0.00 PKD
ROOT
HETATM    1  N   UNL     1      -6.013   4.284  66.297  1.00  0.00    -0.026 N  
HETATM    2  C   UNL     1      -6.140   5.631  66.116  1.00  0.00    -0.033 C  
HETATM    3  H1  UNL     1      -6.552   3.810  67.023  1.00  0.00     0.000 HD 
HETATM    4  H2  UNL     1      -5.378   3.749  65.705  1.00  0.00     0.000 HD 
HETATM    5  O   UNL     1      -5.492   6.201  65.243  1.00  0.00    -0.016 OA 
ENDROOT
BRANCH   2   6
HETATM    6  C   UNL     1      -7.082   6.282  66.994  1.00  0.00    -0.073 A  
HETATM    7  C   UNL     1      -7.497   7.599  67.045  1.00  0.00    -0.095 A  
HETATM    8  C   UNL     1      -8.468   7.684  68.071  1.00  0.00    -0.123 A  
HETATM    9  C   UNL     1      -9.277   8.705  68.603  1.00  0.00    -0.138 A  
HETATM   10  C   UNL     1     -10.161   8.443  69.668  1.00  0.00    -0.199 A  
HETATM   11  C   UNL     1     -10.195   7.129  70.172  1.00  0.00    -0.204 A  
HETATM   12  O   UNL     1      -7.732   5.555  67.960  1.00  0.00    -0.090 OA 
HETATM   13  C   UNL     1      -8.568   6.411  68.609  1.00  0.00    -0.123 A  
HETATM   14  C   UNL     1      -9.411   6.083  69.659  1.00  0.00    -0.167 A  
BRANCH  10  15
HETATM   15  N   UNL     1     -10.937   9.445  70.213  1.00  0.00    -0.249 NA 
HETATM   16  C   UNL     1     -10.916  10.825  69.703  1.00  0.00    -0.264 C  
HETATM   17  N   UNL     1     -13.195  11.246  70.752  1.00  0.00     0.087 NA 
HETATM   18  C   UNL     1     -12.363  11.335  69.525  1.00  0.00    -0.175 C  
HETATM   19  C   UNL     1     -11.764   9.230  71.413  1.00  0.00    -0.361 C  
HETATM   20  C   UNL     1     -13.176   9.831  71.202  1.00  0.00    -0.331 C  
BRANCH  17  21
HETATM   21  C   UNL     1     -12.721  12.141  71.820  1.00  0.00    -0.160 C  
BRANCH  21  22
HETATM   22  C   UNL     1     -12.168  13.472  71.290  1.00  0.00    -0.209 C  
BRANCH  22  23
HETATM   23  C   UNL     1     -13.227  14.360  70.632  1.00  0.00    -0.203 C  
BRANCH  23  24
HETATM   24  C   UNL     1     -12.614  15.638  70.061  1.00  0.00    -0.181 C  
BRANCH  24  25
HETATM   25  C   UNL     1     -11.333  15.384  69.346  1.00  0.00    -0.315 A  
HETATM   26  C   UNL     1     -10.077  15.795  69.746  1.00  0.00    -0.276 A  
HETATM   27  N   UNL     1      -9.176  15.384  68.803  1.00  0.00    -0.194 NA 
HETATM   28  H   UNL     1      -8.172  15.554  68.845  1.00  0.00     0.000 HD 
HETATM   29  C   UNL     1      -9.817  14.709  67.791  1.00  0.00    -0.216 A  
HETATM   30  C   UNL     1     -11.172  14.685  68.108  1.00  0.00    -0.304 A  
HETATM   31  C   UNL     1     -12.066  14.034  67.226  1.00  0.00    -0.405 A  
HETATM   32  C   UNL     1     -11.571  13.448  66.054  1.00  0.00    -0.375 A  
HETATM   33  C   UNL     1     -10.205  13.496  65.764  1.00  0.00    -0.305 A  
HETATM   34  C   UNL     1     -12.474  12.795  65.149  1.00  0.00    -0.501 C  
HETATM   35  N   UNL     1     -13.199  12.268  64.410  1.00  0.00    -0.749 NA 
HETATM   36  C   UNL     1      -9.302  14.126  66.628  1.00  0.00    -0.299 A  
ENDBRANCH  24  25
ENDBRANCH  23  24
ENDBRANCH  22  23
ENDBRANCH  21  22
ENDBRANCH  17  21
ENDBRANCH  10  15
ENDBRANCH   2   6
TORSDOF 7
ENDMDL
MODEL      163
REMARK 921   NORMALIZED FREE ENERGY PREDICTED BY IDOCK:   -4.83 KCAL/MOL
REMARK 922        TOTAL FREE ENERGY PREDICTED BY IDOCK:   -8.09 KCAL/MOL
REMARK 923 INTER-LIGAND FREE ENERGY PREDICTED BY IDOCK:   -7.54 KCAL/MOL
REMARK 924 INTRA-LIGAND FREE ENERGY PREDICTED BY IDOCK:   -0.55 KCAL/MOL
REMARK 927      BINDING AFFINITY PREDICTED BY RF-SCORE:    0.00 PKD
ROOT
HETATM    1  N   UNL     1      -9.688  20.509  66.538  1.00  0.00    -0.646 N  
HETATM    2  C   UNL     1      -8.773  19.574  66.148  1.00  0.00    -0.311 C  
HETATM    3  H1  UNL     1     -10.551  20.222  67.000  1.00  0.00     0.000 HD 
HETATM    4  H2  UNL     1      -9.509  21.498  66.367  1.00  0.00     0.000 HD 
HETATM    5  O   UNL     1      -7.735  19.920  65.591  1.00  0.00    -0.326 OA 
ENDROOT
BRANCH   2   6
HETATM    6  C   UNL     1      -9.120  18.208  66.459  1.00  0.00    -0.276 A  
HETATM    7  C   UNL     1      -8.886  17.462  67.597  1.00  0.00    -0.225 A  
HETATM    8  C   UNL     1      -9.480  16.195  67.387  1.00  0.00    -0.227 A  
HETATM    9  C   UNL     1      -9.620  15.016  68.141  1.00  0.00    -0.207 A  
HETATM   10  C   UNL     1     -10.283  13.893  67.608  1.00  0.00    -0.242 A  
HETATM   11  C   UNL     1     -10.792  14.003  66.300  1.00  0.00    -0.291 A  
HETATM   12  O   UNL     1      -9.808  17.452  65.542  1.00  0.00    -0.536 OA 
HETATM   13  C   UNL     1     -10.020  16.233  66.111  1.00  0.00    -0.334 A  
HETATM   14  C   UNL     1     -10.681  15.166  65.522  1.00  0.00    -0.379 A  
BRANCH  10  15
HETATM   15  N   UNL     1     -10.400  12.724  68.332  1.00  0.00    -0.241 NA 
HETATM   16  C   UNL     1     -11.539  12.459  69.224  1.00  0.00    -0.319 C  
HETATM   17  N   UNL     1     -11.065   9.964  69.087  1.00  0.00    -0.196 NA 
HETATM   18  C   UNL     1     -12.084  11.038  68.965  1.00  0.00    -0.215 C  
HETATM   19  C   UNL     1      -9.340  11.701  68.344  1.00  0.00    -0.191 C  
HETATM   20  C   UNL     1      -9.956  10.293  68.157  1.00  0.00    -0.146 C  
BRANCH  17  21
HETATM   21  C   UNL     1     -10.567   9.816  70.464  1.00  0.00    -0.312 C  
BRANCH  21  22
HETATM   22  C   UNL     1      -9.838   8.486  70.703  1.00  0.00    -0.218 C  
BRANCH  22  23
HETATM   23  C   UNL     1     -10.732   7.255  70.533  1.00  0.00    -0.249 C  
BRANCH  23  24
HETATM   24  C   UNL     1      -9.938   6.045  70.042  1.00  0.00    -0.227 C  
BRANCH  24  25
HETATM   25  C   UNL     1      -9.713   6.072  68.571  1.00  0.00    -0.142 A  
HETATM   26  C   UNL     1     -10.347   5.284  67.631  1.00  0.00    -0.146 A  
HETATM   27  N   UNL     1      -9.838   5.598  66.401  1.00  0.00    -0.184 NA 
HETATM   28  H   UNL     1     -10.127   5.166  65.524  1.00  0.00     0.000 HD 
HETATM   29  C   UNL     1      -8.883   6.581  66.516  1.00  0.00    -0.138 A  
HETATM   30  C   UNL     1      -8.788   6.906  67.866  1.00  0.00    -0.123 A  
HETATM   31  C   UNL     1      -7.873   7.909  68.262  1.00  0.00    -0.120 A  
HETATM   32  C   UNL     1      -7.079   8.537  67.293  1.00  0.00    -0.076 A  
HETATM   33  C   UNL     1      -7.196   8.182  65.947  1.00  0.00    -0.072 A  
HETATM   34  C   UNL     1      -6.141   9.549  67.689  1.00  0.00    -0.053 C  
HETATM   35  N   UNL     1      -5.377  10.366  68.003  1.00  0.00    -0.034 NA 
HETATM   36  C   UNL     1      -8.102   7.198  65.532  1.00  0.00    -0.135 A  
ENDBRANCH  24  25
ENDBRANCH  23  24
ENDBRANCH  22  23
ENDBRANCH  21  22
ENDBRANCH  17  21
ENDBRANCH  10  15
ENDBRANCH   2   6
TORSDOF 7
ENDMDL
MODEL      164
REMARK 921   NORMALIZED FREE ENERGY PREDICTED BY IDOCK:   -4.83 KCAL/MOL
REMARK 922        TOTAL FREE ENERGY PREDICTED BY IDOCK:   -8.08 KCAL/MOL
REMARK 923 INTER-LIGAND FREE ENERGY PREDICTED BY IDOCK:   -7.73 KCAL/MOL
REMARK 924 INTRA-LIGAND FREE ENERGY PREDICTED BY IDOCK:   -0.34 KCAL/MOL
REMARK 927      BINDING AFFINITY PREDICTED BY RF-SCORE:    0.00 PKD
ROOT
HETATM    1  N   UNL     1     -10.701   5.508  74.453  1.00  0.00    -0.265 N  
HETATM    2  C   UNL     1     -10.885   4.803  73.298  1.00  0.00    -0.281 C  
HETATM    3  H1  UNL     1     -10.235   6.415  74.432  1.00  0.00     0.000 HD 
HETATM    4  H2  UNL     1     -11.030   5.126  75.339  1.00  0.00     0.000 HD 
HETATM    5  O   UNL     1     -11.445   3.712  73.323  1.00  0.00    -0.139 OA 
ENDROOT
BRANCH   2   6
HETATM    6  C   UNL     1     -10.399   5.448  72.102  1.00  0.00    -0.213 A  
HETATM    7  C   UNL     1     -11.086   6.060  71.071  1.00  0.00    -0.348 A  
HETATM    8  C   UNL     1     -10.116   6.566  70.174  1.00  0.00    -0.204 A  
HETATM    9  C   UNL     1     -10.147   7.294  68.971  1.00  0.00    -0.186 A  
HETATM   10  C   UNL     1      -8.954   7.637  68.306  1.00  0.00    -0.127 A  
HETATM   11  C   UNL     1      -7.743   7.222  68.891  1.00  0.00    -0.116 A  
HETATM   12  O   UNL     1      -9.048   5.527  71.868  1.00  0.00    -0.138 OA 
HETATM   13  C   UNL     1      -8.886   6.204  70.699  1.00  0.00    -0.143 A  
HETATM   14  C   UNL     1      -7.674   6.504  70.096  1.00  0.00    -0.102 A  
BRANCH  10  15
HETATM   15  N   UNL     1      -8.978   8.328  67.110  1.00  0.00    -0.136 NA 
HETATM   16  C   UNL     1      -9.094   9.792  67.048  1.00  0.00    -0.138 C  
HETATM   17  N   UNL     1      -8.109   9.769  64.702  1.00  0.00    -0.139 NA 
HETATM   18  C   UNL     1      -8.044  10.356  66.066  1.00  0.00    -0.143 C  
HETATM   19  C   UNL     1      -8.994   7.639  65.809  1.00  0.00    -0.053 C  
HETATM   20  C   UNL     1      -7.978   8.298  64.844  1.00  0.00    -0.144 C  
BRANCH  17  21
HETATM   21  C   UNL     1      -9.354  10.118  63.999  1.00  0.00    -0.287 C  
BRANCH  21  22
HETATM   22  C   UNL     1     -10.169  11.202  64.719  1.00  0.00    -0.365 C  
BRANCH  22  23
HETATM   23  C   UNL     1     -10.956  12.113  63.772  1.00  0.00    -0.494 C  
BRANCH  23  24
HETATM   24  C   UNL     1     -12.044  12.889  64.511  1.00  0.00    -0.473 C  
BRANCH  24  25
HETATM   25  C   UNL     1     -11.769  14.352  64.555  1.00  0.00    -0.430 A  
HETATM   26  C   UNL     1     -12.449  15.334  63.863  1.00  0.00     0.352 A  
HETATM   27  N   UNL     1     -11.871  16.537  64.158  1.00  0.00    -1.131 NA 
HETATM   28  H   UNL     1     -12.173  17.436  63.782  1.00  0.00     0.000 HD 
HETATM   29  C   UNL     1     -10.824  16.364  65.033  1.00  0.00    -0.273 A  
HETATM   30  C   UNL     1     -10.741  15.002  65.308  1.00  0.00    -0.406 A  
HETATM   31  C   UNL     1      -9.742  14.549  66.201  1.00  0.00    -0.340 A  
HETATM   32  C   UNL     1      -8.856  15.473  66.769  1.00  0.00    -0.297 A  
HETATM   33  C   UNL     1      -8.964  16.832  66.466  1.00  0.00    -0.304 A  
HETATM   34  C   UNL     1      -7.833  15.018  67.668  1.00  0.00    -0.168 C  
HETATM   35  N   UNL     1      -7.000  14.657  68.392  1.00  0.00    -0.105 NA 
HETATM   36  C   UNL     1      -9.953  17.304  65.593  1.00  0.00     0.003 A  
ENDBRANCH  24  25
ENDBRANCH  23  24
ENDBRANCH  22  23
ENDBRANCH  21  22
ENDBRANCH  17  21
ENDBRANCH  10  15
ENDBRANCH   2   6
TORSDOF 7
ENDMDL
MODEL      165
REMARK 921   NORMALIZED FREE ENERGY PREDICTED BY IDOCK:   -4.82 KCAL/MOL
REMARK 922        TOTAL FREE ENERGY PREDICTED BY IDOCK:   -8.07 KCAL/MOL
REMARK 923 INTER-LIGAND FREE ENERGY PREDICTED BY IDOCK:   -7.21 KCAL/MOL
REMARK 924 INTRA-LIGAND FREE ENERGY PREDICTED BY IDOCK:   -0.87 KCAL/MOL
REMARK 927      BINDING AFFINITY PREDICTED BY RF-SCORE:    0.00 PKD
ROOT
HETATM    1  N   UNL     1     -10.549   4.219  64.444  1.00  0.00    -0.487 N  
HETATM    2  C   UNL     1      -9.492   4.302  65.305  1.00  0.00    -0.173 C  
HETATM    3  H1  UNL     1     -11.127   5.039  64.262  1.00  0.00     0.000 HD 
HETATM    4  H2  UNL     1     -10.760   3.334  63.983  1.00  0.00     0.000 HD 
HETATM    5  O   UNL     1      -8.795   3.316  65.525  1.00  0.00    -0.124 OA 
ENDROOT
BRANCH   2   6
HETATM    6  C   UNL     1      -9.273   5.606  65.883  1.00  0.00    -0.132 A  
HETATM    7  C   UNL     1      -8.132   6.385  65.931  1.00  0.00    -0.124 A  
HETATM    8  C   UNL     1      -8.487   7.592  66.578  1.00  0.00    -0.133 A  
HETATM    9  C   UNL     1      -7.818   8.783  66.914  1.00  0.00    -0.101 A  
HETATM   10  C   UNL     1      -8.488   9.820  67.591  1.00  0.00    -0.122 A  
HETATM   11  C   UNL     1      -9.842   9.613  67.915  1.00  0.00    -0.182 A  
HETATM   12  O   UNL     1     -10.309   6.265  66.497  1.00  0.00    -0.170 OA 
HETATM   13  C   UNL     1      -9.825   7.466  66.916  1.00  0.00    -0.216 A  
HETATM   14  C   UNL     1     -10.545   8.443  67.586  1.00  0.00    -0.265 A  
BRANCH  10  15
HETATM   15  N   UNL     1      -7.830  10.980  67.949  1.00  0.00    -0.108 NA 
HETATM   16  C   UNL     1      -6.364  11.094  67.927  1.00  0.00    -0.054 C  
HETATM   17  N   UNL     1      -6.564  13.628  67.808  1.00  0.00    -0.161 NA 
HETATM   18  C   UNL     1      -5.955  12.406  67.223  1.00  0.00    -0.134 C  
HETATM   19  C   UNL     1      -8.545  12.154  68.480  1.00  0.00    -0.079 C  
HETATM   20  C   UNL     1      -8.037  13.444  67.790  1.00  0.00    -0.173 C  
BRANCH  17  21
HETATM   21  C   UNL     1      -6.087  13.893  69.175  1.00  0.00    -0.096 C  
BRANCH  21  22
HETATM   22  C   UNL     1      -6.338  15.338  69.631  1.00  0.00    -0.154 C  
BRANCH  22  23
HETATM   23  C   UNL     1      -5.694  16.391  68.726  1.00  0.00    -0.121 C  
BRANCH  23  24
HETATM   24  C   UNL     1      -5.778  17.788  69.339  1.00  0.00    -0.221 C  
BRANCH  24  25
HETATM   25  C   UNL     1      -6.696  18.685  68.586  1.00  0.00    -0.283 A  
HETATM   26  C   UNL     1      -6.367  19.896  68.008  1.00  0.00    -0.231 A  
HETATM   27  N   UNL     1      -7.496  20.414  67.437  1.00  0.00    -0.306 NA 
HETATM   28  H   UNL     1      -7.542  21.303  66.941  1.00  0.00     0.000 HD 
HETATM   29  C   UNL     1      -8.561  19.565  67.627  1.00  0.00    -0.314 A  
HETATM   30  C   UNL     1      -8.088  18.465  68.338  1.00  0.00    -0.327 A  
HETATM   31  C   UNL     1      -8.990  17.425  68.660  1.00  0.00    -0.255 A  
HETATM   32  C   UNL     1     -10.332  17.532  68.273  1.00  0.00    -0.379 A  
HETATM   33  C   UNL     1     -10.774  18.653  67.566  1.00  0.00    -0.447 A  
HETATM   34  C   UNL     1     -11.254  16.484  68.606  1.00  0.00    -0.297 C  
HETATM   35  N   UNL     1     -12.008  15.642  68.876  1.00  0.00    -0.343 NA 
HETATM   36  C   UNL     1      -9.896  19.690  67.227  1.00  0.00    -0.492 A  
ENDBRANCH  24  25
ENDBRANCH  23  24
ENDBRANCH  22  23
ENDBRANCH  21  22
ENDBRANCH  17  21
ENDBRANCH  10  15
ENDBRANCH   2   6
TORSDOF 7
ENDMDL
MODEL      166
REMARK 921   NORMALIZED FREE ENERGY PREDICTED BY IDOCK:   -4.82 KCAL/MOL
REMARK 922        TOTAL FREE ENERGY PREDICTED BY IDOCK:   -8.07 KCAL/MOL
REMARK 923 INTER-LIGAND FREE ENERGY PREDICTED BY IDOCK:   -7.13 KCAL/MOL
REMARK 924 INTRA-LIGAND FREE ENERGY PREDICTED BY IDOCK:   -0.94 KCAL/MOL
REMARK 927      BINDING AFFINITY PREDICTED BY RF-SCORE:    0.00 PKD
ROOT
HETATM    1  N   UNL     1      -9.882  20.783  66.910  1.00  0.00    -0.604 N  
HETATM    2  C   UNL     1      -8.817  19.929  66.878  1.00  0.00    -0.342 C  
HETATM    3  H1  UNL     1     -10.830  20.426  66.791  1.00  0.00     0.000 HD 
HETATM    4  H2  UNL     1      -9.729  21.781  67.053  1.00  0.00     0.000 HD 
HETATM    5  O   UNL     1      -7.676  20.359  67.021  1.00  0.00    -0.306 OA 
ENDROOT
BRANCH   2   6
HETATM    6  C   UNL     1      -9.151  18.538  66.690  1.00  0.00    -0.305 A  
HETATM    7  C   UNL     1      -8.703  17.412  67.353  1.00  0.00    -0.227 A  
HETATM    8  C   UNL     1      -9.389  16.307  66.797  1.00  0.00    -0.258 A  
HETATM    9  C   UNL     1      -9.413  14.921  67.031  1.00  0.00    -0.239 A  
HETATM   10  C   UNL     1     -10.233  14.073  66.260  1.00  0.00    -0.296 A  
HETATM   11  C   UNL     1     -11.017  14.670  65.255  1.00  0.00    -0.374 A  
HETATM   12  O   UNL     1     -10.063  18.177  65.729  1.00  0.00    -0.563 OA 
HETATM   13  C   UNL     1     -10.200  16.825  65.799  1.00  0.00    -0.291 A  
HETATM   14  C   UNL     1     -11.028  16.051  65.001  1.00  0.00    -0.393 A  
BRANCH  10  15
HETATM   15  N   UNL     1     -10.241  12.708  66.466  1.00  0.00    -0.239 NA 
HETATM   16  C   UNL     1      -9.061  11.866  66.217  1.00  0.00    -0.188 C  
HETATM   17  N   UNL     1     -10.013  10.079  67.757  1.00  0.00    -0.163 NA 
HETATM   18  C   UNL     1      -8.836  10.919  67.415  1.00  0.00    -0.133 C  
HETATM   19  C   UNL     1     -11.463  11.981  66.849  1.00  0.00    -0.337 C  
HETATM   20  C   UNL     1     -11.156  10.993  68.001  1.00  0.00    -0.286 C  
BRANCH  17  21
HETATM   21  C   UNL     1     -10.336   9.108  66.699  1.00  0.00    -0.218 C  
BRANCH  21  22
HETATM   22  C   UNL     1     -10.639   7.704  67.242  1.00  0.00    -0.388 C  
BRANCH  22  23
HETATM   23  C   UNL     1     -10.698   7.632  68.770  1.00  0.00    -0.106 C  
BRANCH  23  24
HETATM   24  C   UNL     1      -9.508   6.865  69.345  1.00  0.00    -0.148 C  
BRANCH  24  25
HETATM   25  C   UNL     1      -8.327   7.741  69.578  1.00  0.00    -0.129 A  
HETATM   26  C   UNL     1      -7.994   8.368  70.763  1.00  0.00    -0.106 A  
HETATM   27  N   UNL     1      -6.856   9.096  70.552  1.00  0.00    -0.063 NA 
HETATM   28  H   UNL     1      -6.388   9.662  71.259  1.00  0.00     0.000 HD 
HETATM   29  C   UNL     1      -6.433   8.957  69.250  1.00  0.00    -0.042 A  
HETATM   30  C   UNL     1      -7.332   8.103  68.616  1.00  0.00    -0.089 A  
HETATM   31  C   UNL     1      -7.120   7.781  67.255  1.00  0.00    -0.086 A  
HETATM   32  C   UNL     1      -6.026   8.338  66.579  1.00  0.00    -0.045 A  
HETATM   33  C   UNL     1      -5.147   9.195  67.245  1.00  0.00    -0.036 A  
HETATM   34  C   UNL     1      -5.811   8.023  65.195  1.00  0.00    -0.044 C  
HETATM   35  N   UNL     1      -5.632   7.776  64.074  1.00  0.00    -0.044 NA 
HETATM   36  C   UNL     1      -5.333   9.520  68.595  1.00  0.00    -0.037 A  
ENDBRANCH  24  25
ENDBRANCH  23  24
ENDBRANCH  22  23
ENDBRANCH  21  22
ENDBRANCH  17  21
ENDBRANCH  10  15
ENDBRANCH   2   6
TORSDOF 7
ENDMDL
MODEL      167
REMARK 921   NORMALIZED FREE ENERGY PREDICTED BY IDOCK:   -4.78 KCAL/MOL
REMARK 922        TOTAL FREE ENERGY PREDICTED BY IDOCK:   -8.02 KCAL/MOL
REMARK 923 INTER-LIGAND FREE ENERGY PREDICTED BY IDOCK:   -7.98 KCAL/MOL
REMARK 924 INTRA-LIGAND FREE ENERGY PREDICTED BY IDOCK:   -0.04 KCAL/MOL
REMARK 927      BINDING AFFINITY PREDICTED BY RF-SCORE:    0.00 PKD
ROOT
HETATM    1  N   UNL     1     -13.017   7.279  70.768  1.00  0.00    -0.592 N  
HETATM    2  C   UNL     1     -11.715   6.897  70.618  1.00  0.00    -0.367 C  
HETATM    3  H1  UNL     1     -13.299   8.235  70.553  1.00  0.00     0.000 HD 
HETATM    4  H2  UNL     1     -13.710   6.606  71.095  1.00  0.00     0.000 HD 
HETATM    5  O   UNL     1     -11.375   5.746  70.876  1.00  0.00    -0.213 OA 
ENDROOT
BRANCH   2   6
HETATM    6  C   UNL     1     -10.826   7.923  70.129  1.00  0.00    -0.243 A  
HETATM    7  C   UNL     1     -11.029   9.280  69.966  1.00  0.00    -0.254 A  
HETATM    8  C   UNL     1      -9.810   9.824  69.495  1.00  0.00    -0.230 A  
HETATM    9  C   UNL     1      -9.349  11.109  69.161  1.00  0.00     0.019 A  
HETATM   10  C   UNL     1      -8.034  11.306  68.696  1.00  0.00    -0.145 A  
HETATM   11  C   UNL     1      -7.212  10.169  68.579  1.00  0.00    -0.080 A  
HETATM   12  O   UNL     1      -9.547   7.598  69.753  1.00  0.00    -0.163 OA 
HETATM   13  C   UNL     1      -8.939   8.753  69.369  1.00  0.00    -0.145 A  
HETATM   14  C   UNL     1      -7.634   8.873  68.914  1.00  0.00    -0.087 A  
BRANCH  10  15
HETATM   15  N   UNL     1      -7.583  12.561  68.340  1.00  0.00    -0.124 NA 
HETATM   16  C   UNL     1      -8.362  13.781  68.599  1.00  0.00    -0.067 C  
HETATM   17  N   UNL     1      -6.239  15.172  68.426  1.00  0.00    -0.101 NA 
HETATM   18  C   UNL     1      -7.450  14.857  69.227  1.00  0.00    -0.177 C  
HETATM   19  C   UNL     1      -6.337  12.759  67.580  1.00  0.00    -0.153 C  
HETATM   20  C   UNL     1      -5.503  13.901  68.213  1.00  0.00    -0.111 C  
BRANCH  17  21
HETATM   21  C   UNL     1      -6.566  15.810  67.141  1.00  0.00    -0.048 C  
BRANCH  21  22
HETATM   22  C   UNL     1      -7.918  15.358  66.570  1.00  0.00     0.074 C  
BRANCH  22  23
HETATM   23  C   UNL     1      -8.976  16.464  66.543  1.00  0.00    -0.311 C  
BRANCH  23  24
HETATM   24  C   UNL     1     -10.373  15.914  66.827  1.00  0.00    -0.298 C  
BRANCH  24  25
HETATM   25  C   UNL     1     -11.034  15.382  65.604  1.00  0.00    -0.330 A  
HETATM   26  C   UNL     1     -11.769  16.109  64.688  1.00  0.00    -0.010 A  
HETATM   27  N   UNL     1     -12.224  15.248  63.730  1.00  0.00    -0.962 NA 
HETATM   28  H   UNL     1     -12.797  15.516  62.930  1.00  0.00     0.000 HD 
HETATM   29  C   UNL     1     -11.800  13.967  63.997  1.00  0.00    -0.337 A  
HETATM   30  C   UNL     1     -11.042  14.021  65.164  1.00  0.00    -0.341 A  
HETATM   31  C   UNL     1     -10.471  12.826  65.660  1.00  0.00    -0.297 A  
HETATM   32  C   UNL     1     -10.695  11.622  64.979  1.00  0.00    -0.351 A  
HETATM   33  C   UNL     1     -11.466  11.603  63.814  1.00  0.00    -0.457 A  
HETATM   34  C   UNL     1     -10.126  10.404  65.483  1.00  0.00    -0.283 C  
HETATM   35  N   UNL     1      -9.674   9.414  65.887  1.00  0.00    -0.272 NA 
HETATM   36  C   UNL     1     -12.032  12.776  63.300  1.00  0.00    -0.522 A  
ENDBRANCH  24  25
ENDBRANCH  23  24
ENDBRANCH  22  23
ENDBRANCH  21  22
ENDBRANCH  17  21
ENDBRANCH  10  15
ENDBRANCH   2   6
TORSDOF 7
ENDMDL
MODEL      168
REMARK 921   NORMALIZED FREE ENERGY PREDICTED BY IDOCK:   -4.77 KCAL/MOL
REMARK 922        TOTAL FREE ENERGY PREDICTED BY IDOCK:   -8.00 KCAL/MOL
REMARK 923 INTER-LIGAND FREE ENERGY PREDICTED BY IDOCK:   -7.09 KCAL/MOL
REMARK 924 INTRA-LIGAND FREE ENERGY PREDICTED BY IDOCK:   -0.91 KCAL/MOL
REMARK 927      BINDING AFFINITY PREDICTED BY RF-SCORE:    0.00 PKD
ROOT
HETATM    1  N   UNL     1      -9.446   1.705  66.944  1.00  0.00    -0.357 N  
HETATM    2  C   UNL     1      -8.526   2.499  66.321  1.00  0.00    -0.099 C  
HETATM    3  H1  UNL     1     -10.120   2.112  67.592  1.00  0.00     0.000 HD 
HETATM    4  H2  UNL     1      -9.460   0.702  66.759  1.00  0.00     0.000 HD 
HETATM    5  O   UNL     1      -7.715   2.010  65.541  1.00  0.00    -0.070 OA 
ENDROOT
BRANCH   2   6
HETATM    6  C   UNL     1      -8.612   3.903  66.640  1.00  0.00    -0.111 A  
HETATM    7  C   UNL     1      -7.616   4.846  66.812  1.00  0.00    -0.088 A  
HETATM    8  C   UNL     1      -8.259   6.080  67.067  1.00  0.00    -0.105 A  
HETATM    9  C   UNL     1      -7.836   7.401  67.300  1.00  0.00    -0.114 A  
HETATM   10  C   UNL     1      -8.771   8.427  67.538  1.00  0.00    -0.136 A  
HETATM   11  C   UNL     1     -10.134   8.074  67.536  1.00  0.00    -0.281 A  
HETATM   12  O   UNL     1      -9.841   4.493  66.805  1.00  0.00    -0.193 OA 
HETATM   13  C   UNL     1      -9.618   5.811  67.065  1.00  0.00    -0.135 A  
HETATM   14  C   UNL     1     -10.593   6.769  67.296  1.00  0.00    -0.390 A  
BRANCH  10  15
HETATM   15  N   UNL     1      -8.362   9.720  67.794  1.00  0.00    -0.114 NA 
HETATM   16  C   UNL     1      -6.962  10.147  67.651  1.00  0.00    -0.085 C  
HETATM   17  N   UNL     1      -7.722  12.566  67.444  1.00  0.00    -0.161 NA 
HETATM   18  C   UNL     1      -6.900  11.474  66.863  1.00  0.00    -0.138 C  
HETATM   19  C   UNL     1      -9.279  10.740  68.331  1.00  0.00    -0.164 C  
HETATM   20  C   UNL     1      -9.116  12.067  67.551  1.00  0.00    -0.177 C  
BRANCH  17  21
HETATM   21  C   UNL     1      -7.222  13.007  68.757  1.00  0.00    -0.082 C  
BRANCH  21  22
HETATM   22  C   UNL     1      -6.938  14.515  68.819  1.00  0.00    -0.104 C  
BRANCH  22  23
HETATM   23  C   UNL     1      -7.850  15.274  69.785  1.00  0.00    -0.057 C  
BRANCH  23  24
HETATM   24  C   UNL     1      -8.820  16.191  69.042  1.00  0.00    -0.251 C  
BRANCH  24  25
HETATM   25  C   UNL     1     -10.180  15.598  68.916  1.00  0.00    -0.214 A  
HETATM   26  C   UNL     1     -10.723  15.028  67.781  1.00  0.00    -0.278 A  
HETATM   27  N   UNL     1     -11.997  14.629  68.075  1.00  0.00    -0.540 NA 
HETATM   28  H   UNL     1     -12.631  14.177  67.417  1.00  0.00     0.000 HD 
HETATM   29  C   UNL     1     -12.301  14.924  69.383  1.00  0.00    -0.133 A  
HETATM   30  C   UNL     1     -11.176  15.525  69.941  1.00  0.00    -0.322 A  
HETATM   31  C   UNL     1     -11.219  15.923  71.297  1.00  0.00    -0.325 A  
HETATM   32  C   UNL     1     -12.390  15.718  72.037  1.00  0.00    -0.534 A  
HETATM   33  C   UNL     1     -13.503  15.117  71.445  1.00  0.00    -0.561 A  
HETATM   34  C   UNL     1     -12.444  16.129  73.412  1.00  0.00    -0.555 C  
HETATM   35  N   UNL     1     -12.496  16.463  74.523  1.00  0.00    -0.784 NA 
HETATM   36  C   UNL     1     -13.479  14.706  70.106  1.00  0.00     0.569 A  
ENDBRANCH  24  25
ENDBRANCH  23  24
ENDBRANCH  22  23
ENDBRANCH  21  22
ENDBRANCH  17  21
ENDBRANCH  10  15
ENDBRANCH   2   6
TORSDOF 7
ENDMDL
MODEL      169
REMARK 921   NORMALIZED FREE ENERGY PREDICTED BY IDOCK:   -4.74 KCAL/MOL
REMARK 922        TOTAL FREE ENERGY PREDICTED BY IDOCK:   -7.95 KCAL/MOL
REMARK 923 INTER-LIGAND FREE ENERGY PREDICTED BY IDOCK:   -7.05 KCAL/MOL
REMARK 924 INTRA-LIGAND FREE ENERGY PREDICTED BY IDOCK:   -0.90 KCAL/MOL
REMARK 927      BINDING AFFINITY PREDICTED BY RF-SCORE:    0.00 PKD
ROOT
HETATM    1  N   UNL     1      -8.797   2.384  74.250  1.00  0.00    -0.073 N  
HETATM    2  C   UNL     1      -8.321   2.772  73.031  1.00  0.00    -0.071 C  
HETATM    3  H1  UNL     1      -9.441   2.984  74.764  1.00  0.00     0.000 HD 
HETATM    4  H2  UNL     1      -8.508   1.490  74.648  1.00  0.00     0.000 HD 
HETATM    5  O   UNL     1      -7.545   2.049  72.412  1.00  0.00    -0.042 OA 
ENDROOT
BRANCH   2   6
HETATM    6  C   UNL     1      -8.813   4.042  72.556  1.00  0.00    -0.106 A  
HETATM    7  C   UNL     1      -8.699   4.640  71.316  1.00  0.00    -0.139 A  
HETATM    8  C   UNL     1      -9.405   5.864  71.383  1.00  0.00    -0.165 A  
HETATM    9  C   UNL     1      -9.691   6.907  70.484  1.00  0.00    -0.177 A  
HETATM   10  C   UNL     1     -10.440   8.028  70.894  1.00  0.00    -0.202 A  
HETATM   11  C   UNL     1     -10.882   8.057  72.230  1.00  0.00    -0.369 A  
HETATM   12  O   UNL     1      -9.534   4.854  73.396  1.00  0.00    -0.132 OA 
HETATM   13  C   UNL     1      -9.888   5.955  72.679  1.00  0.00    -0.164 A  
HETATM   14  C   UNL     1     -10.626   7.029  73.152  1.00  0.00    -0.350 A  
BRANCH  10  15
HETATM   15  N   UNL     1     -10.700   9.068  70.025  1.00  0.00    -0.226 NA 
HETATM   16  C   UNL     1     -11.826   9.994  70.219  1.00  0.00    -0.216 C  
HETATM   17  N   UNL     1     -10.662  11.714  68.748  1.00  0.00    -0.212 NA 
HETATM   18  C   UNL     1     -11.338  11.449  70.044  1.00  0.00    -0.176 C  
HETATM   19  C   UNL     1      -9.932   9.262  68.783  1.00  0.00    -0.181 C  
HETATM   20  C   UNL     1      -9.539  10.751  68.626  1.00  0.00    -0.187 C  
BRANCH  17  21
HETATM   21  C   UNL     1     -11.579  11.595  67.602  1.00  0.00    -0.279 C  
BRANCH  21  22
HETATM   22  C   UNL     1     -11.903  12.945  66.947  1.00  0.00    -0.444 C  
BRANCH  22  23
HETATM   23  C   UNL     1     -11.011  14.093  67.426  1.00  0.00    -0.306 C  
BRANCH  23  24
HETATM   24  C   UNL     1      -9.881  14.378  66.438  1.00  0.00    -0.309 C  
BRANCH  24  25
HETATM   25  C   UNL     1      -8.638  14.844  67.114  1.00  0.00    -0.248 A  
HETATM   26  C   UNL     1      -7.599  14.049  67.555  1.00  0.00    -0.180 A  
HETATM   27  N   UNL     1      -6.666  14.858  68.141  1.00  0.00    -0.117 NA 
HETATM   28  H   UNL     1      -5.793  14.534  68.556  1.00  0.00     0.000 HD 
HETATM   29  C   UNL     1      -7.073  16.171  68.093  1.00  0.00    -0.131 A  
HETATM   30  C   UNL     1      -8.305  16.195  67.445  1.00  0.00    -0.191 A  
HETATM   31  C   UNL     1      -8.947  17.440  67.252  1.00  0.00    -0.241 A  
HETATM   32  C   UNL     1      -8.340  18.609  67.728  1.00  0.00    -0.285 A  
HETATM   33  C   UNL     1      -7.105  18.548  68.379  1.00  0.00    -0.287 A  
HETATM   34  C   UNL     1      -8.992  19.875  67.544  1.00  0.00    -0.339 C  
HETATM   35  N   UNL     1      -9.515  20.902  67.403  1.00  0.00    -0.336 NA 
HETATM   36  C   UNL     1      -6.447  17.327  68.573  1.00  0.00    -0.170 A  
ENDBRANCH  24  25
ENDBRANCH  23  24
ENDBRANCH  22  23
ENDBRANCH  21  22
ENDBRANCH  17  21
ENDBRANCH  10  15
ENDBRANCH   2   6
TORSDOF 7
ENDMDL
MODEL      170
REMARK 921   NORMALIZED FREE ENERGY PREDICTED BY IDOCK:   -4.69 KCAL/MOL
REMARK 922        TOTAL FREE ENERGY PREDICTED BY IDOCK:   -7.88 KCAL/MOL
REMARK 923 INTER-LIGAND FREE ENERGY PREDICTED BY IDOCK:   -7.60 KCAL/MOL
REMARK 924 INTRA-LIGAND FREE ENERGY PREDICTED BY IDOCK:   -0.28 KCAL/MOL
REMARK 927      BINDING AFFINITY PREDICTED BY RF-SCORE:    0.00 PKD
ROOT
HETATM    1  N   UNL     1      -8.223   4.340  67.758  1.00  0.00    -0.094 N  
HETATM    2  C   UNL     1      -7.453   5.198  68.491  1.00  0.00    -0.074 C  
HETATM    3  H1  UNL     1      -8.987   4.698  67.186  1.00  0.00     0.000 HD 
HETATM    4  H2  UNL     1      -8.032   3.338  67.784  1.00  0.00     0.000 HD 
HETATM    5  O   UNL     1      -6.534   4.768  69.180  1.00  0.00    -0.037 OA 
ENDROOT
BRANCH   2   6
HETATM    6  C   UNL     1      -7.798   6.593  68.363  1.00  0.00    -0.107 A  
HETATM    7  C   UNL     1      -8.700   7.220  67.525  1.00  0.00    -0.121 A  
HETATM    8  C   UNL     1      -8.674   8.597  67.849  1.00  0.00    -0.137 A  
HETATM    9  C   UNL     1      -9.350   9.745  67.401  1.00  0.00    -0.155 A  
HETATM   10  C   UNL     1      -9.065  11.011  67.949  1.00  0.00    -0.147 A  
HETATM   11  C   UNL     1      -8.081  11.074  68.954  1.00  0.00    -0.135 A  
HETATM   12  O   UNL     1      -7.194   7.524  69.171  1.00  0.00    -0.079 OA 
HETATM   13  C   UNL     1      -7.728   8.734  68.853  1.00  0.00    -0.095 A  
HETATM   14  C   UNL     1      -7.394   9.948  69.434  1.00  0.00    -0.091 A  
BRANCH  10  15
HETATM   15  N   UNL     1      -9.706  12.146  67.495  1.00  0.00    -0.183 NA 
HETATM   16  C   UNL     1     -10.222  12.264  66.123  1.00  0.00    -0.239 C  
HETATM   17  N   UNL     1     -11.801  14.111  66.878  1.00  0.00    -0.412 NA 
HETATM   18  C   UNL     1     -11.663  12.820  66.155  1.00  0.00    -0.403 C  
HETATM   19  C   UNL     1      -9.824  13.361  68.319  1.00  0.00    -0.235 C  
HETATM   20  C   UNL     1     -11.270  13.913  68.249  1.00  0.00    -0.272 C  
BRANCH  17  21
HETATM   21  C   UNL     1     -11.101  15.212  66.199  1.00  0.00    -0.311 C  
BRANCH  21  22
HETATM   22  C   UNL     1     -10.330  16.123  67.165  1.00  0.00    -0.291 C  
BRANCH  22  23
HETATM   23  C   UNL     1      -9.802  17.405  66.515  1.00  0.00    -0.310 C  
BRANCH  23  24
HETATM   24  C   UNL     1      -8.295  17.333  66.271  1.00  0.00    -0.289 C  
BRANCH  24  25
HETATM   25  C   UNL     1      -7.644  18.671  66.343  1.00  0.00    -0.284 A  
HETATM   26  C   UNL     1      -7.610  19.620  65.341  1.00  0.00     0.106 A  
HETATM   27  N   UNL     1      -6.894  20.692  65.797  1.00  0.00    -0.449 NA 
HETATM   28  H   UNL     1      -6.710  21.539  65.260  1.00  0.00     0.000 HD 
HETATM   29  C   UNL     1      -6.458  20.465  67.081  1.00  0.00    -0.220 A  
HETATM   30  C   UNL     1      -6.921  19.207  67.455  1.00  0.00    -0.226 A  
HETATM   31  C   UNL     1      -6.617  18.727  68.751  1.00  0.00    -0.282 A  
HETATM   32  C   UNL     1      -5.849  19.519  69.614  1.00  0.00    -0.290 A  
HETATM   33  C   UNL     1      -5.395  20.775  69.204  1.00  0.00    -0.383 A  
HETATM   34  C   UNL     1      -5.528  19.034  70.927  1.00  0.00    -0.225 C  
HETATM   35  N   UNL     1      -5.261  18.647  71.989  1.00  0.00    -0.732 NA 
HETATM   36  C   UNL     1      -5.693  21.273  67.929  1.00  0.00    -0.394 A  
ENDBRANCH  24  25
ENDBRANCH  23  24
ENDBRANCH  22  23
ENDBRANCH  21  22
ENDBRANCH  17  21
ENDBRANCH  10  15
ENDBRANCH   2   6
TORSDOF 7
ENDMDL
MODEL      171
REMARK 921   NORMALIZED FREE ENERGY PREDICTED BY IDOCK:   -4.65 KCAL/MOL
REMARK 922        TOTAL FREE ENERGY PREDICTED BY IDOCK:   -7.83 KCAL/MOL
REMARK 923 INTER-LIGAND FREE ENERGY PREDICTED BY IDOCK:   -7.11 KCAL/MOL
REMARK 924 INTRA-LIGAND FREE ENERGY PREDICTED BY IDOCK:   -0.72 KCAL/MOL
REMARK 927      BINDING AFFINITY PREDICTED BY RF-SCORE:    0.00 PKD
ROOT
HETATM    1  N   UNL     1      -9.039   2.451  63.494  1.00  0.00    -0.092 N  
HETATM    2  C   UNL     1      -8.243   2.833  64.535  1.00  0.00    -0.086 C  
HETATM    3  H1  UNL     1      -9.648   3.129  63.038  1.00  0.00     0.000 HD 
HETATM    4  H2  UNL     1      -9.023   1.484  63.171  1.00  0.00     0.000 HD 
HETATM    5  O   UNL     1      -7.509   2.017  65.084  1.00  0.00    -0.063 OA 
ENDROOT
BRANCH   2   6
HETATM    6  C   UNL     1      -8.329   4.228  64.894  1.00  0.00    -0.108 A  
HETATM    7  C   UNL     1      -9.338   4.930  65.526  1.00  0.00    -0.163 A  
HETATM    8  C   UNL     1      -8.884   6.262  65.669  1.00  0.00    -0.086 A  
HETATM    9  C   UNL     1      -9.401   7.442  66.232  1.00  0.00    -0.166 A  
HETATM   10  C   UNL     1      -8.666   8.643  66.193  1.00  0.00    -0.156 A  
HETATM   11  C   UNL     1      -7.404   8.610  65.570  1.00  0.00    -0.084 A  
HETATM   12  O   UNL     1      -7.283   5.073  64.614  1.00  0.00    -0.060 OA 
HETATM   13  C   UNL     1      -7.628   6.302  65.085  1.00  0.00    -0.092 A  
HETATM   14  C   UNL     1      -6.851   7.448  65.007  1.00  0.00    -0.050 A  
BRANCH  10  15
HETATM   15  N   UNL     1      -9.180   9.811  66.720  1.00  0.00    -0.146 NA 
HETATM   16  C   UNL     1      -8.335  10.974  67.031  1.00  0.00    -0.137 C  
HETATM   17  N   UNL     1     -10.381  12.484  66.936  1.00  0.00    -0.228 NA 
HETATM   18  C   UNL     1      -8.989  12.257  66.470  1.00  0.00    -0.161 C  
HETATM   19  C   UNL     1     -10.595   9.940  67.107  1.00  0.00    -0.228 C  
HETATM   20  C   UNL     1     -11.172  11.278  66.583  1.00  0.00    -0.177 C  
BRANCH  17  21
HETATM   21  C   UNL     1     -10.453  12.752  68.381  1.00  0.00    -0.243 C  
BRANCH  21  22
HETATM   22  C   UNL     1     -11.567  13.738  68.757  1.00  0.00    -0.363 C  
BRANCH  22  23
HETATM   23  C   UNL     1     -11.486  15.074  68.014  1.00  0.00    -0.357 C  
BRANCH  23  24
HETATM   24  C   UNL     1     -10.299  15.911  68.488  1.00  0.00    -0.232 C  
BRANCH  24  25
HETATM   25  C   UNL     1      -9.960  17.006  67.538  1.00  0.00    -0.274 A  
HETATM   26  C   UNL     1     -10.456  17.163  66.258  1.00  0.00    -0.260 A  
HETATM   27  N   UNL     1      -9.877  18.274  65.712  1.00  0.00    -0.483 NA 
HETATM   28  H   UNL     1     -10.061  18.624  64.772  1.00  0.00     0.000 HD 
HETATM   29  C   UNL     1      -9.010  18.852  66.610  1.00  0.00    -0.323 A  
HETATM   30  C   UNL     1      -9.048  18.083  67.770  1.00  0.00    -0.262 A  
HETATM   31  C   UNL     1      -8.246  18.470  68.869  1.00  0.00    -0.203 A  
HETATM   32  C   UNL     1      -7.427  19.601  68.758  1.00  0.00    -0.364 A  
HETATM   33  C   UNL     1      -7.409  20.347  67.577  1.00  0.00    -0.356 A  
HETATM   34  C   UNL     1      -6.602  19.993  69.866  1.00  0.00    -0.281 C  
HETATM   35  N   UNL     1      -5.930  20.314  70.757  1.00  0.00    -0.478 NA 
HETATM   36  C   UNL     1      -8.202  19.987  66.480  1.00  0.00    -0.347 A  
ENDBRANCH  24  25
ENDBRANCH  23  24
ENDBRANCH  22  23
ENDBRANCH  21  22
ENDBRANCH  17  21
ENDBRANCH  10  15
ENDBRANCH   2   6
TORSDOF 7
ENDMDL
MODEL      172
REMARK 921   NORMALIZED FREE ENERGY PREDICTED BY IDOCK:   -4.65 KCAL/MOL
REMARK 922        TOTAL FREE ENERGY PREDICTED BY IDOCK:   -7.82 KCAL/MOL
REMARK 923 INTER-LIGAND FREE ENERGY PREDICTED BY IDOCK:   -6.97 KCAL/MOL
REMARK 924 INTRA-LIGAND FREE ENERGY PREDICTED BY IDOCK:   -0.86 KCAL/MOL
REMARK 927      BINDING AFFINITY PREDICTED BY RF-SCORE:    0.00 PKD
ROOT
HETATM    1  N   UNL     1      -9.761   2.972  66.382  1.00  0.00    -0.397 N  
HETATM    2  C   UNL     1      -8.825   3.435  67.262  1.00  0.00    -0.134 C  
HETATM    3  H1  UNL     1     -10.332   3.628  65.849  1.00  0.00     0.000 HD 
HETATM    4  H2  UNL     1      -9.888   1.968  66.256  1.00  0.00     0.000 HD 
HETATM    5  O   UNL     1      -8.137   2.646  67.903  1.00  0.00    -0.062 OA 
ENDROOT
BRANCH   2   6
HETATM    6  C   UNL     1      -8.715   4.871  67.343  1.00  0.00    -0.103 A  
HETATM    7  C   UNL     1      -7.725   5.665  67.888  1.00  0.00    -0.093 A  
HETATM    8  C   UNL     1      -8.100   7.009  67.655  1.00  0.00    -0.114 A  
HETATM    9  C   UNL     1      -7.536   8.269  67.925  1.00  0.00    -0.102 A  
HETATM   10  C   UNL     1      -8.203   9.452  67.553  1.00  0.00    -0.117 A  
HETATM   11  C   UNL     1      -9.447   9.319  66.907  1.00  0.00    -0.211 A  
HETATM   12  O   UNL     1      -9.701   5.663  66.807  1.00  0.00    -0.136 OA 
HETATM   13  C   UNL     1      -9.322   6.956  67.001  1.00  0.00    -0.145 A  
HETATM   14  C   UNL     1     -10.034   8.079  66.610  1.00  0.00    -0.326 A  
BRANCH  10  15
HETATM   15  N   UNL     1      -7.669  10.692  67.839  1.00  0.00    -0.099 NA 
HETATM   16  C   UNL     1      -6.261  10.875  68.223  1.00  0.00    -0.049 C  
HETATM   17  N   UNL     1      -6.390  13.320  67.532  1.00  0.00    -0.243 NA 
HETATM   18  C   UNL     1      -5.648  12.038  67.414  1.00  0.00    -0.120 C  
HETATM   19  C   UNL     1      -8.496  11.910  67.885  1.00  0.00    -0.154 C  
HETATM   20  C   UNL     1      -7.794  13.061  67.123  1.00  0.00    -0.063 C  
BRANCH  17  21
HETATM   21  C   UNL     1      -6.336  13.877  68.893  1.00  0.00    -0.094 C  
BRANCH  21  22
HETATM   22  C   UNL     1      -7.533  14.781  69.223  1.00  0.00    -0.162 C  
BRANCH  22  23
HETATM   23  C   UNL     1      -7.311  16.253  68.865  1.00  0.00    -0.198 C  
BRANCH  23  24
HETATM   24  C   UNL     1      -8.614  17.048  68.916  1.00  0.00    -0.196 C  
BRANCH  24  25
HETATM   25  C   UNL     1      -9.270  17.151  67.583  1.00  0.00    -0.238 A  
HETATM   26  C   UNL     1      -9.216  18.231  66.725  1.00  0.00    -0.288 A  
HETATM   27  N   UNL     1      -9.970  17.936  65.623  1.00  0.00    -0.510 NA 
HETATM   28  H   UNL     1     -10.107  18.558  64.828  1.00  0.00     0.000 HD 
HETATM   29  C   UNL     1     -10.518  16.680  65.741  1.00  0.00    -0.311 A  
HETATM   30  C   UNL     1     -10.089  16.158  66.958  1.00  0.00    -0.270 A  
HETATM   31  C   UNL     1     -10.506  14.857  67.325  1.00  0.00    -0.263 A  
HETATM   32  C   UNL     1     -11.348  14.137  66.468  1.00  0.00    -0.348 A  
HETATM   33  C   UNL     1     -11.764  14.694  65.257  1.00  0.00    -0.346 A  
HETATM   34  C   UNL     1     -11.783  12.820  66.840  1.00  0.00    -0.380 C  
HETATM   35  N   UNL     1     -12.143  11.756  67.135  1.00  0.00    -0.465 NA 
HETATM   36  C   UNL     1     -11.355  15.976  64.869  1.00  0.00    -0.232 A  
ENDBRANCH  24  25
ENDBRANCH  23  24
ENDBRANCH  22  23
ENDBRANCH  21  22
ENDBRANCH  17  21
ENDBRANCH  10  15
ENDBRANCH   2   6
TORSDOF 7
ENDMDL
MODEL      173
REMARK 921   NORMALIZED FREE ENERGY PREDICTED BY IDOCK:   -4.64 KCAL/MOL
REMARK 922        TOTAL FREE ENERGY PREDICTED BY IDOCK:   -7.82 KCAL/MOL
REMARK 923 INTER-LIGAND FREE ENERGY PREDICTED BY IDOCK:   -7.38 KCAL/MOL
REMARK 924 INTRA-LIGAND FREE ENERGY PREDICTED BY IDOCK:   -0.45 KCAL/MOL
REMARK 927      BINDING AFFINITY PREDICTED BY RF-SCORE:    0.00 PKD
ROOT
HETATM    1  N   UNL     1     -10.791  18.400  67.517  1.00  0.00    -0.357 N  
HETATM    2  C   UNL     1     -10.254  17.448  66.698  1.00  0.00    -0.324 C  
HETATM    3  H1  UNL     1     -11.352  18.126  68.323  1.00  0.00     0.000 HD 
HETATM    4  H2  UNL     1     -10.631  19.388  67.321  1.00  0.00     0.000 HD 
HETATM    5  O   UNL     1      -9.579  17.778  65.728  1.00  0.00    -0.519 OA 
ENDROOT
BRANCH   2   6
HETATM    6  C   UNL     1     -10.526  16.084  67.081  1.00  0.00    -0.308 A  
HETATM    7  C   UNL     1     -10.449  15.468  68.315  1.00  0.00    -0.242 A  
HETATM    8  C   UNL     1     -10.871  14.129  68.132  1.00  0.00    -0.258 A  
HETATM    9  C   UNL     1     -11.044  13.010  68.966  1.00  0.00    -0.281 A  
HETATM   10  C   UNL     1     -11.484  11.780  68.440  1.00  0.00    -0.294 A  
HETATM   11  C   UNL     1     -11.737  11.721  67.057  1.00  0.00    -0.247 A  
HETATM   12  O   UNL     1     -10.949  15.181  66.137  1.00  0.00    -0.333 OA 
HETATM   13  C   UNL     1     -11.154  13.999  66.781  1.00  0.00    -0.306 A  
HETATM   14  C   UNL     1     -11.585  12.819  66.196  1.00  0.00    -0.431 A  
BRANCH  10  15
HETATM   15  N   UNL     1     -11.630  10.671  69.249  1.00  0.00    -0.278 NA 
HETATM   16  C   UNL     1     -10.759   9.491  69.135  1.00  0.00    -0.210 C  
HETATM   17  N   UNL     1     -11.373   8.810  71.508  1.00  0.00    -0.280 NA 
HETATM   18  C   UNL     1     -10.277   9.063  70.538  1.00  0.00    -0.219 C  
HETATM   19  C   UNL     1     -12.737  10.544  70.212  1.00  0.00    -0.188 C  
HETATM   20  C   UNL     1     -12.202  10.039  71.575  1.00  0.00    -0.405 C  
BRANCH  17  21
HETATM   21  C   UNL     1     -12.193   7.645  71.135  1.00  0.00    -0.285 C  
BRANCH  21  22
HETATM   22  C   UNL     1     -11.821   6.373  71.910  1.00  0.00    -0.380 C  
BRANCH  22  23
HETATM   23  C   UNL     1     -10.639   6.556  72.864  1.00  0.00    -0.267 C  
BRANCH  23  24
HETATM   24  C   UNL     1     -10.439   5.331  73.756  1.00  0.00    -0.304 C  
BRANCH  24  25
HETATM   25  C   UNL     1      -9.205   4.572  73.411  1.00  0.00    -0.119 A  
HETATM   26  C   UNL     1      -9.035   3.204  73.494  1.00  0.00    -0.082 A  
HETATM   27  N   UNL     1      -7.755   2.912  73.113  1.00  0.00    -0.054 NA 
HETATM   28  H   UNL     1      -7.357   1.974  73.082  1.00  0.00     0.000 HD 
HETATM   29  C   UNL     1      -7.081   4.063  72.779  1.00  0.00    -0.058 A  
HETATM   30  C   UNL     1      -7.968   5.122  72.947  1.00  0.00    -0.102 A  
HETATM   31  C   UNL     1      -7.525   6.434  72.659  1.00  0.00    -0.091 A  
HETATM   32  C   UNL     1      -6.207   6.636  72.229  1.00  0.00    -0.045 A  
HETATM   33  C   UNL     1      -5.341   5.550  72.077  1.00  0.00    -0.017 A  
HETATM   34  C   UNL     1      -5.748   7.966  71.944  1.00  0.00    -0.035 C  
HETATM   35  N   UNL     1      -5.368   9.039  71.716  1.00  0.00    -0.046 NA 
HETATM   36  C   UNL     1      -5.762   4.243  72.347  1.00  0.00    -0.011 A  
ENDBRANCH  24  25
ENDBRANCH  23  24
ENDBRANCH  22  23
ENDBRANCH  21  22
ENDBRANCH  17  21
ENDBRANCH  10  15
ENDBRANCH   2   6
TORSDOF 7
ENDMDL
MODEL      174
REMARK 921   NORMALIZED FREE ENERGY PREDICTED BY IDOCK:   -4.63 KCAL/MOL
REMARK 922        TOTAL FREE ENERGY PREDICTED BY IDOCK:   -7.80 KCAL/MOL
REMARK 923 INTER-LIGAND FREE ENERGY PREDICTED BY IDOCK:   -6.82 KCAL/MOL
REMARK 924 INTRA-LIGAND FREE ENERGY PREDICTED BY IDOCK:   -0.99 KCAL/MOL
REMARK 927      BINDING AFFINITY PREDICTED BY RF-SCORE:    0.00 PKD
ROOT
HETATM    1  N   UNL     1     -10.708   5.902  67.130  1.00  0.00    -0.318 N  
HETATM    2  C   UNL     1      -9.575   6.224  67.821  1.00  0.00    -0.117 C  
HETATM    3  H1  UNL     1     -11.246   6.629  66.659  1.00  0.00     0.000 HD 
HETATM    4  H2  UNL     1     -11.017   4.931  67.084  1.00  0.00     0.000 HD 
HETATM    5  O   UNL     1      -8.927   5.349  68.387  1.00  0.00    -0.108 OA 
ENDROOT
BRANCH   2   6
HETATM    6  C   UNL     1      -9.220   7.622  67.801  1.00  0.00    -0.136 A  
HETATM    7  C   UNL     1      -8.023   8.248  68.093  1.00  0.00    -0.123 A  
HETATM    8  C   UNL     1      -8.217   9.631  67.868  1.00  0.00    -0.106 A  
HETATM    9  C   UNL     1      -7.413  10.782  67.951  1.00  0.00    -0.090 A  
HETATM   10  C   UNL     1      -7.942  12.054  67.657  1.00  0.00    -0.150 A  
HETATM   11  C   UNL     1      -9.297  12.120  67.282  1.00  0.00    -0.183 A  
HETATM   12  O   UNL     1     -10.154   8.559  67.432  1.00  0.00    -0.194 OA 
HETATM   13  C   UNL     1      -9.539   9.773  67.477  1.00  0.00    -0.150 A  
HETATM   14  C   UNL     1     -10.126  10.992  67.177  1.00  0.00    -0.227 A  
BRANCH  10  15
HETATM   15  N   UNL     1      -7.167  13.191  67.764  1.00  0.00    -0.130 NA 
HETATM   16  C   UNL     1      -7.742  14.544  67.731  1.00  0.00    -0.156 C  
HETATM   17  N   UNL     1      -5.669  15.452  68.893  1.00  0.00    -0.097 NA 
HETATM   18  C   UNL     1      -7.153  15.387  68.883  1.00  0.00    -0.131 C  
HETATM   19  C   UNL     1      -5.696  13.133  67.812  1.00  0.00    -0.129 C  
HETATM   20  C   UNL     1      -5.162  14.057  68.934  1.00  0.00    -0.076 C  
BRANCH  17  21
HETATM   21  C   UNL     1      -5.130  16.171  67.728  1.00  0.00    -0.130 C  
BRANCH  21  22
HETATM   22  C   UNL     1      -5.664  17.605  67.604  1.00  0.00    -0.142 C  
BRANCH  22  23
HETATM   23  C   UNL     1      -5.802  18.089  66.159  1.00  0.00    -0.231 C  
BRANCH  23  24
HETATM   24  C   UNL     1      -6.951  19.084  66.004  1.00  0.00    -0.287 C  
BRANCH  24  25
HETATM   25  C   UNL     1      -8.050  18.839  66.978  1.00  0.00    -0.266 A  
HETATM   26  C   UNL     1      -8.305  19.563  68.126  1.00  0.00    -0.324 A  
HETATM   27  N   UNL     1      -9.382  19.001  68.752  1.00  0.00    -0.364 NA 
HETATM   28  H   UNL     1      -9.787  19.335  69.626  1.00  0.00     0.000 HD 
HETATM   29  C   UNL     1      -9.841  17.920  68.036  1.00  0.00    -0.320 A  
HETATM   30  C   UNL     1      -9.030  17.799  66.911  1.00  0.00    -0.265 A  
HETATM   31  C   UNL     1      -9.296  16.759  65.990  1.00  0.00    -0.245 A  
HETATM   32  C   UNL     1     -10.353  15.873  66.239  1.00  0.00    -0.324 A  
HETATM   33  C   UNL     1     -11.143  16.021  67.381  1.00  0.00    -0.167 A  
HETATM   34  C   UNL     1     -10.622  14.809  65.313  1.00  0.00    -0.395 C  
HETATM   35  N   UNL     1     -10.843  13.944  64.571  1.00  0.00    -0.395 NA 
HETATM   36  C   UNL     1     -10.903  17.049  68.301  1.00  0.00    -0.341 A  
ENDBRANCH  24  25
ENDBRANCH  23  24
ENDBRANCH  22  23
ENDBRANCH  21  22
ENDBRANCH  17  21
ENDBRANCH  10  15
ENDBRANCH   2   6
TORSDOF 7
ENDMDL
MODEL      175
REMARK 921   NORMALIZED FREE ENERGY PREDICTED BY IDOCK:   -4.63 KCAL/MOL
REMARK 922        TOTAL FREE ENERGY PREDICTED BY IDOCK:   -7.80 KCAL/MOL
REMARK 923 INTER-LIGAND FREE ENERGY PREDICTED BY IDOCK:   -6.54 KCAL/MOL
REMARK 924 INTRA-LIGAND FREE ENERGY PREDICTED BY IDOCK:   -1.26 KCAL/MOL
REMARK 927      BINDING AFFINITY PREDICTED BY RF-SCORE:    0.00 PKD
ROOT
HETATM    1  N   UNL     1     -10.533  18.719  66.717  1.00  0.00    -0.404 N  
HETATM    2  C   UNL     1     -10.313  18.245  67.979  1.00  0.00    -0.391 C  
HETATM    3  H1  UNL     1     -10.816  18.083  65.972  1.00  0.00     0.000 HD 
HETATM    4  H2  UNL     1     -10.415  19.713  66.520  1.00  0.00     0.000 HD 
HETATM    5  O   UNL     1      -9.973  19.011  68.876  1.00  0.00    -0.410 OA 
ENDROOT
BRANCH   2   6
HETATM    6  C   UNL     1     -10.530  16.829  68.149  1.00  0.00    -0.332 A  
HETATM    7  C   UNL     1     -10.376  16.026  69.262  1.00  0.00    -0.251 A  
HETATM    8  C   UNL     1     -10.771  14.721  68.885  1.00  0.00    -0.253 A  
HETATM    9  C   UNL     1     -10.873  13.478  69.536  1.00  0.00     0.060 A  
HETATM   10  C   UNL     1     -11.306  12.333  68.839  1.00  0.00    -0.287 A  
HETATM   11  C   UNL     1     -11.625  12.487  67.476  1.00  0.00    -0.424 A  
HETATM   12  O   UNL     1     -10.975  16.074  67.092  1.00  0.00    -0.289 OA 
HETATM   13  C   UNL     1     -11.117  14.798  67.546  1.00  0.00    -0.319 A  
HETATM   14  C   UNL     1     -11.546  13.713  66.797  1.00  0.00    -0.393 A  
BRANCH  10  15
HETATM   15  N   UNL     1     -11.383  11.104  69.463  1.00  0.00    -0.265 NA 
HETATM   16  C   UNL     1     -10.188  10.333  69.835  1.00  0.00    -0.202 C  
HETATM   17  N   UNL     1     -11.558   9.037  71.543  1.00  0.00    -0.316 NA 
HETATM   18  C   UNL     1     -10.326   9.828  71.288  1.00  0.00     0.103 C  
HETATM   19  C   UNL     1     -12.669  10.429  69.707  1.00  0.00     0.200 C  
HETATM   20  C   UNL     1     -12.717   9.878  71.154  1.00  0.00    -0.366 C  
BRANCH  17  21
HETATM   21  C   UNL     1     -11.568   7.761  70.810  1.00  0.00    -0.255 C  
BRANCH  21  22
HETATM   22  C   UNL     1     -11.985   6.568  71.682  1.00  0.00    -0.387 C  
BRANCH  22  23
HETATM   23  C   UNL     1     -10.942   6.177  72.732  1.00  0.00    -0.294 C  
BRANCH  23  24
HETATM   24  C   UNL     1      -9.683   5.598  72.089  1.00  0.00    -0.178 C  
BRANCH  24  25
HETATM   25  C   UNL     1      -8.485   6.452  72.315  1.00  0.00    -0.110 A  
HETATM   26  C   UNL     1      -7.809   6.616  73.508  1.00  0.00    -0.092 A  
HETATM   27  N   UNL     1      -6.787   7.499  73.298  1.00  0.00    -0.066 NA 
HETATM   28  H   UNL     1      -6.126   7.804  74.012  1.00  0.00     0.000 HD 
HETATM   29  C   UNL     1      -6.778   7.919  71.989  1.00  0.00    -0.061 A  
HETATM   30  C   UNL     1      -7.828   7.271  71.343  1.00  0.00    -0.096 A  
HETATM   31  C   UNL     1      -8.037   7.521  69.967  1.00  0.00    -0.127 A  
HETATM   32  C   UNL     1      -7.199   8.420  69.295  1.00  0.00    -0.063 A  
HETATM   33  C   UNL     1      -6.159   9.058  69.976  1.00  0.00    -0.037 A  
HETATM   34  C   UNL     1      -7.413   8.686  67.901  1.00  0.00    -0.097 C  
HETATM   35  N   UNL     1      -7.583   8.909  66.774  1.00  0.00    -0.086 NA 
HETATM   36  C   UNL     1      -5.927   8.817  71.336  1.00  0.00    -0.052 A  
ENDBRANCH  24  25
ENDBRANCH  23  24
ENDBRANCH  22  23
ENDBRANCH  21  22
ENDBRANCH  17  21
ENDBRANCH  10  15
ENDBRANCH   2   6
TORSDOF 7
ENDMDL
MODEL      176
REMARK 921   NORMALIZED FREE ENERGY PREDICTED BY IDOCK:   -4.63 KCAL/MOL
REMARK 922        TOTAL FREE ENERGY PREDICTED BY IDOCK:   -7.80 KCAL/MOL
REMARK 923 INTER-LIGAND FREE ENERGY PREDICTED BY IDOCK:   -6.55 KCAL/MOL
REMARK 924 INTRA-LIGAND FREE ENERGY PREDICTED BY IDOCK:   -1.24 KCAL/MOL
REMARK 927      BINDING AFFINITY PREDICTED BY RF-SCORE:    0.00 PKD
ROOT
HETATM    1  N   UNL     1      -7.319   3.484  72.406  1.00  0.00    -0.048 N  
HETATM    2  C   UNL     1      -7.928   4.264  73.346  1.00  0.00    -0.090 C  
HETATM    3  H1  UNL     1      -7.396   3.718  71.416  1.00  0.00     0.000 HD 
HETATM    4  H2  UNL     1      -6.784   2.664  72.694  1.00  0.00     0.000 HD 
HETATM    5  O   UNL     1      -7.834   3.982  74.537  1.00  0.00    -0.083 OA 
ENDROOT
BRANCH   2   6
HETATM    6  C   UNL     1      -8.638   5.408  72.828  1.00  0.00    -0.119 A  
HETATM    7  C   UNL     1      -8.268   6.335  71.872  1.00  0.00    -0.110 A  
HETATM    8  C   UNL     1      -9.360   7.220  71.714  1.00  0.00    -0.161 A  
HETATM    9  C   UNL     1      -9.636   8.337  70.906  1.00  0.00    -0.196 A  
HETATM   10  C   UNL     1     -10.863   9.020  71.013  1.00  0.00    -0.276 A  
HETATM   11  C   UNL     1     -11.790   8.540  71.957  1.00  0.00    -0.429 A  
HETATM   12  O   UNL     1      -9.898   5.697  73.289  1.00  0.00    -0.162 OA 
HETATM   13  C   UNL     1     -10.328   6.796  72.611  1.00  0.00    -0.201 A  
HETATM   14  C   UNL     1     -11.555   7.422  72.773  1.00  0.00    -0.255 A  
BRANCH  10  15
HETATM   15  N   UNL     1     -11.129  10.134  70.243  1.00  0.00    -0.296 NA 
HETATM   16  C   UNL     1     -12.298  10.995  70.478  1.00  0.00    -0.373 C  
HETATM   17  N   UNL     1     -11.145  12.896  69.241  1.00  0.00    -0.183 NA 
HETATM   18  C   UNL     1     -11.862  12.477  70.473  1.00  0.00    -0.055 C  
HETATM   19  C   UNL     1     -10.319  10.481  69.062  1.00  0.00    -0.213 C  
HETATM   20  C   UNL     1      -9.980  11.992  69.074  1.00  0.00     0.137 C  
BRANCH  17  21
HETATM   21  C   UNL     1     -12.009  12.863  68.050  1.00  0.00    -0.275 C  
BRANCH  21  22
HETATM   22  C   UNL     1     -11.635  13.923  67.004  1.00  0.00    -0.394 C  
BRANCH  22  23
HETATM   23  C   UNL     1     -10.873  13.362  65.801  1.00  0.00    -0.283 C  
BRANCH  23  24
HETATM   24  C   UNL     1     -11.117  11.864  65.628  1.00  0.00    -0.362 C  
BRANCH  24  25
HETATM   25  C   UNL     1      -9.973  11.174  64.972  1.00  0.00    -0.325 A  
HETATM   26  C   UNL     1      -9.207  11.665  63.934  1.00  0.00     0.131 A  
HETATM   27  N   UNL     1      -8.279  10.716  63.605  1.00  0.00    -0.343 NA 
HETATM   28  H   UNL     1      -7.582  10.814  62.867  1.00  0.00     0.000 HD 
HETATM   29  C   UNL     1      -8.421   9.610  64.409  1.00  0.00    -0.181 A  
HETATM   30  C   UNL     1      -9.471   9.871  65.285  1.00  0.00    -0.331 A  
HETATM   31  C   UNL     1      -9.823   8.887  66.238  1.00  0.00    -0.355 A  
HETATM   32  C   UNL     1      -9.121   7.675  66.267  1.00  0.00    -0.204 A  
HETATM   33  C   UNL     1      -8.076   7.444  65.369  1.00  0.00    -0.133 A  
HETATM   34  C   UNL     1      -9.480   6.668  67.225  1.00  0.00    -0.133 C  
HETATM   35  N   UNL     1      -9.767   5.847  67.995  1.00  0.00    -0.116 NA 
HETATM   36  C   UNL     1      -7.704   8.408  64.424  1.00  0.00    -0.133 A  
ENDBRANCH  24  25
ENDBRANCH  23  24
ENDBRANCH  22  23
ENDBRANCH  21  22
ENDBRANCH  17  21
ENDBRANCH  10  15
ENDBRANCH   2   6
TORSDOF 7
ENDMDL
MODEL      177
REMARK 921   NORMALIZED FREE ENERGY PREDICTED BY IDOCK:   -4.62 KCAL/MOL
REMARK 922        TOTAL FREE ENERGY PREDICTED BY IDOCK:   -7.79 KCAL/MOL
REMARK 923 INTER-LIGAND FREE ENERGY PREDICTED BY IDOCK:   -7.41 KCAL/MOL
REMARK 924 INTRA-LIGAND FREE ENERGY PREDICTED BY IDOCK:   -0.38 KCAL/MOL
REMARK 927      BINDING AFFINITY PREDICTED BY RF-SCORE:    0.00 PKD
ROOT
HETATM    1  N   UNL     1     -10.666   2.229  63.964  1.00  0.00    -0.415 N  
HETATM    2  C   UNL     1      -9.466   2.595  64.503  1.00  0.00    -0.140 C  
HETATM    3  H1  UNL     1     -11.481   2.832  64.071  1.00  0.00     0.000 HD 
HETATM    4  H2  UNL     1     -10.747   1.350  63.453  1.00  0.00     0.000 HD 
HETATM    5  O   UNL     1      -8.484   1.869  64.375  1.00  0.00    -0.078 OA 
ENDROOT
BRANCH   2   6
HETATM    6  C   UNL     1      -9.461   3.866  65.186  1.00  0.00    -0.170 A  
HETATM    7  C   UNL     1      -8.653   4.973  65.013  1.00  0.00    -0.149 A  
HETATM    8  C   UNL     1      -9.111   5.961  65.915  1.00  0.00    -0.135 A  
HETATM    9  C   UNL     1      -8.751   7.287  66.218  1.00  0.00    -0.162 A  
HETATM   10  C   UNL     1      -9.432   8.009  67.217  1.00  0.00    -0.155 A  
HETATM   11  C   UNL     1     -10.478   7.351  67.892  1.00  0.00    -0.265 A  
HETATM   12  O   UNL     1     -10.381   4.115  66.174  1.00  0.00    -0.143 OA 
HETATM   13  C   UNL     1     -10.162   5.384  66.612  1.00  0.00    -0.243 A  
HETATM   14  C   UNL     1     -10.873   6.034  67.609  1.00  0.00    -0.386 A  
BRANCH  10  15
HETATM   15  N   UNL     1      -9.066   9.300  67.539  1.00  0.00    -0.121 NA 
HETATM   16  C   UNL     1      -7.816   9.908  67.059  1.00  0.00    -0.102 C  
HETATM   17  N   UNL     1      -8.789  12.224  67.462  1.00  0.00    -0.173 NA 
HETATM   18  C   UNL     1      -8.104  11.320  66.503  1.00  0.00    -0.160 C  
HETATM   19  C   UNL     1      -9.849  10.127  68.474  1.00  0.00    -0.154 C  
HETATM   20  C   UNL     1     -10.038  11.551  67.896  1.00  0.00    -0.189 C  
BRANCH  17  21
HETATM   21  C   UNL     1      -7.944  12.556  68.621  1.00  0.00    -0.029 C  
BRANCH  21  22
HETATM   22  C   UNL     1      -7.480  14.020  68.630  1.00  0.00    -0.125 C  
BRANCH  22  23
HETATM   23  C   UNL     1      -7.597  14.712  67.270  1.00  0.00    -0.173 C  
BRANCH  23  24
HETATM   24  C   UNL     1      -7.907  16.201  67.421  1.00  0.00    -0.180 C  
BRANCH  24  25
HETATM   25  C   UNL     1      -9.074  16.625  66.599  1.00  0.00    -0.277 A  
HETATM   26  C   UNL     1      -9.554  17.912  66.461  1.00  0.00    -0.313 A  
HETATM   27  N   UNL     1     -10.650  17.871  65.645  1.00  0.00    -0.587 NA 
HETATM   28  H   UNL     1     -11.205  18.682  65.373  1.00  0.00     0.000 HD 
HETATM   29  C   UNL     1     -10.899  16.579  65.242  1.00  0.00    -0.221 A  
HETATM   30  C   UNL     1      -9.920  15.774  65.819  1.00  0.00    -0.389 A  
HETATM   31  C   UNL     1      -9.939  14.385  65.554  1.00  0.00    -0.359 A  
HETATM   32  C   UNL     1     -10.946  13.854  64.737  1.00  0.00    -0.407 A  
HETATM   33  C   UNL     1     -11.916  14.690  64.180  1.00  0.00    -0.316 A  
HETATM   34  C   UNL     1     -10.977  12.443  64.473  1.00  0.00    -0.316 C  
HETATM   35  N   UNL     1     -11.011  11.302  64.259  1.00  0.00    -0.333 NA 
HETATM   36  C   UNL     1     -11.910  16.070  64.421  1.00  0.00    -0.042 A  
ENDBRANCH  24  25
ENDBRANCH  23  24
ENDBRANCH  22  23
ENDBRANCH  21  22
ENDBRANCH  17  21
ENDBRANCH  10  15
ENDBRANCH   2   6
TORSDOF 7
ENDMDL
MODEL      178
REMARK 921   NORMALIZED FREE ENERGY PREDICTED BY IDOCK:   -4.61 KCAL/MOL
REMARK 922        TOTAL FREE ENERGY PREDICTED BY IDOCK:   -7.78 KCAL/MOL
REMARK 923 INTER-LIGAND FREE ENERGY PREDICTED BY IDOCK:   -6.45 KCAL/MOL
REMARK 924 INTRA-LIGAND FREE ENERGY PREDICTED BY IDOCK:   -1.33 KCAL/MOL
REMARK 927      BINDING AFFINITY PREDICTED BY RF-SCORE:    0.00 PKD
ROOT
HETATM    1  N   UNL     1      -6.513   1.783  66.769  1.00  0.00    -0.023 N  
HETATM    2  C   UNL     1      -7.815   2.088  66.492  1.00  0.00    -0.075 C  
HETATM    3  H1  UNL     1      -6.006   2.299  67.488  1.00  0.00     0.000 HD 
HETATM    4  H2  UNL     1      -6.046   1.036  66.255  1.00  0.00     0.000 HD 
HETATM    5  O   UNL     1      -8.424   1.467  65.626  1.00  0.00    -0.087 OA 
ENDROOT
BRANCH   2   6
HETATM    6  C   UNL     1      -8.380   3.146  67.293  1.00  0.00    -0.085 A  
HETATM    7  C   UNL     1      -8.805   4.411  66.937  1.00  0.00    -0.114 A  
HETATM    8  C   UNL     1      -9.317   5.018  68.108  1.00  0.00    -0.156 A  
HETATM    9  C   UNL     1      -9.909   6.256  68.419  1.00  0.00    -0.141 A  
HETATM   10  C   UNL     1     -10.308   6.553  69.736  1.00  0.00    -0.195 A  
HETATM   11  C   UNL     1     -10.087   5.568  70.718  1.00  0.00    -0.277 A  
HETATM   12  O   UNL     1      -8.580   2.953  68.638  1.00  0.00    -0.065 OA 
HETATM   13  C   UNL     1      -9.145   4.092  69.124  1.00  0.00    -0.136 A  
HETATM   14  C   UNL     1      -9.510   4.319  70.442  1.00  0.00    -0.245 A  
BRANCH  10  15
HETATM   15  N   UNL     1     -10.864   7.776  70.054  1.00  0.00    -0.248 NA 
HETATM   16  C   UNL     1     -12.264   7.918  70.481  1.00  0.00     0.201 C  
HETATM   17  N   UNL     1     -11.706  10.152  71.563  1.00  0.00    -0.301 NA 
HETATM   18  C   UNL     1     -12.337   8.818  71.734  1.00  0.00    -0.351 C  
HETATM   19  C   UNL     1     -10.126   9.040  69.886  1.00  0.00    -0.201 C  
HETATM   20  C   UNL     1     -10.300   9.930  71.141  1.00  0.00     0.189 C  
BRANCH  17  21
HETATM   21  C   UNL     1     -12.419  10.990  70.586  1.00  0.00    -0.373 C  
BRANCH  21  22
HETATM   22  C   UNL     1     -11.714  12.325  70.307  1.00  0.00    -0.223 C  
BRANCH  22  23
HETATM   23  C   UNL     1     -12.268  13.072  69.091  1.00  0.00    -0.106 C  
BRANCH  23  24
HETATM   24  C   UNL     1     -11.151  13.706  68.262  1.00  0.00    -0.281 C  
BRANCH  24  25
HETATM   25  C   UNL     1     -11.234  13.338  66.822  1.00  0.00    -0.331 A  
HETATM   26  C   UNL     1     -11.976  13.985  65.853  1.00  0.00    -0.408 A  
HETATM   27  N   UNL     1     -11.801  13.321  64.671  1.00  0.00    -0.360 NA 
HETATM   28  H   UNL     1     -12.235  13.582  63.786  1.00  0.00     0.000 HD 
HETATM   29  C   UNL     1     -10.955  12.250  64.844  1.00  0.00    -0.302 A  
HETATM   30  C   UNL     1     -10.576  12.240  66.184  1.00  0.00    -0.281 A  
HETATM   31  C   UNL     1      -9.689  11.233  66.632  1.00  0.00    -0.222 A  
HETATM   32  C   UNL     1      -9.230  10.268  65.726  1.00  0.00    -0.215 A  
HETATM   33  C   UNL     1      -9.637  10.304  64.390  1.00  0.00    -0.378 A  
HETATM   34  C   UNL     1      -8.338   9.237  66.177  1.00  0.00    -0.119 C  
HETATM   35  N   UNL     1      -7.619   8.398  66.535  1.00  0.00    -0.087 NA 
HETATM   36  C   UNL     1     -10.506  11.298  63.923  1.00  0.00    -0.452 A  
ENDBRANCH  24  25
ENDBRANCH  23  24
ENDBRANCH  22  23
ENDBRANCH  21  22
ENDBRANCH  17  21
ENDBRANCH  10  15
ENDBRANCH   2   6
TORSDOF 7
ENDMDL
MODEL      179
REMARK 921   NORMALIZED FREE ENERGY PREDICTED BY IDOCK:   -4.61 KCAL/MOL
REMARK 922        TOTAL FREE ENERGY PREDICTED BY IDOCK:   -7.77 KCAL/MOL
REMARK 923 INTER-LIGAND FREE ENERGY PREDICTED BY IDOCK:   -6.98 KCAL/MOL
REMARK 924 INTRA-LIGAND FREE ENERGY PREDICTED BY IDOCK:   -0.79 KCAL/MOL
REMARK 927      BINDING AFFINITY PREDICTED BY RF-SCORE:    0.00 PKD
ROOT
HETATM    1  N   UNL     1      -9.691  20.504  66.552  1.00  0.00    -0.646 N  
HETATM    2  C   UNL     1      -8.820  19.518  66.183  1.00  0.00    -0.309 C  
HETATM    3  H1  UNL     1     -10.566  20.267  67.018  1.00  0.00     0.000 HD 
HETATM    4  H2  UNL     1      -9.464  21.480  66.361  1.00  0.00     0.000 HD 
HETATM    5  O   UNL     1      -7.766  19.803  65.623  1.00  0.00    -0.367 OA 
ENDROOT
BRANCH   2   6
HETATM    6  C   UNL     1      -9.232  18.178  66.522  1.00  0.00    -0.281 A  
HETATM    7  C   UNL     1      -9.021  17.438  67.669  1.00  0.00    -0.233 A  
HETATM    8  C   UNL     1      -9.681  16.200  67.488  1.00  0.00    -0.233 A  
HETATM    9  C   UNL     1      -9.871  15.042  68.263  1.00  0.00    -0.219 A  
HETATM   10  C   UNL     1     -10.597  13.947  67.757  1.00  0.00    -0.246 A  
HETATM   11  C   UNL     1     -11.117  14.061  66.454  1.00  0.00    -0.316 A  
HETATM   12  O   UNL     1      -9.969  17.442  65.626  1.00  0.00    -0.559 OA 
HETATM   13  C   UNL     1     -10.235  16.246  66.218  1.00  0.00    -0.327 A  
HETATM   14  C   UNL     1     -10.957  15.204  65.656  1.00  0.00    -0.359 A  
BRANCH  10  15
HETATM   15  N   UNL     1     -10.764  12.796  68.502  1.00  0.00    -0.248 NA 
HETATM   16  C   UNL     1     -11.887  12.616  69.434  1.00  0.00    -0.296 C  
HETATM   17  N   UNL     1     -11.575  10.093  69.320  1.00  0.00    -0.118 NA 
HETATM   18  C   UNL     1     -12.528  11.228  69.213  1.00  0.00     0.065 C  
HETATM   19  C   UNL     1      -9.770  11.709  68.497  1.00  0.00    -0.184 C  
HETATM   20  C   UNL     1     -10.478  10.340  68.351  1.00  0.00    -0.200 C  
BRANCH  17  21
HETATM   21  C   UNL     1     -11.043   9.933  70.682  1.00  0.00    -0.340 C  
BRANCH  21  22
HETATM   22  C   UNL     1     -10.177   8.676  70.848  1.00  0.00    -0.261 C  
BRANCH  22  23
HETATM   23  C   UNL     1      -9.655   8.471  72.272  1.00  0.00    -0.377 C  
BRANCH  23  24
HETATM   24  C   UNL     1      -8.128   8.454  72.316  1.00  0.00    -0.186 C  
BRANCH  24  25
HETATM   25  C   UNL     1      -7.564   7.116  71.983  1.00  0.00    -0.090 A  
HETATM   26  C   UNL     1      -7.215   6.129  72.883  1.00  0.00    -0.092 A  
HETATM   27  N   UNL     1      -6.714   5.070  72.177  1.00  0.00    -0.050 NA 
HETATM   28  H   UNL     1      -6.377   4.202  72.592  1.00  0.00     0.000 HD 
HETATM   29  C   UNL     1      -6.729   5.344  70.830  1.00  0.00    -0.047 A  
HETATM   30  C   UNL     1      -7.266   6.619  70.676  1.00  0.00    -0.074 A  
HETATM   31  C   UNL     1      -7.404   7.146  69.370  1.00  0.00    -0.090 A  
HETATM   32  C   UNL     1      -6.985   6.383  68.273  1.00  0.00    -0.080 A  
HETATM   33  C   UNL     1      -6.445   5.109  68.464  1.00  0.00    -0.040 A  
HETATM   34  C   UNL     1      -7.113   6.916  66.946  1.00  0.00    -0.075 C  
HETATM   35  N   UNL     1      -7.210   7.342  65.870  1.00  0.00    -0.072 NA 
HETATM   36  C   UNL     1      -6.308   4.564  69.747  1.00  0.00    -0.027 A  
ENDBRANCH  24  25
ENDBRANCH  23  24
ENDBRANCH  22  23
ENDBRANCH  21  22
ENDBRANCH  17  21
ENDBRANCH  10  15
ENDBRANCH   2   6
TORSDOF 7
ENDMDL
MODEL      180
REMARK 921   NORMALIZED FREE ENERGY PREDICTED BY IDOCK:   -4.59 KCAL/MOL
REMARK 922        TOTAL FREE ENERGY PREDICTED BY IDOCK:   -7.75 KCAL/MOL
REMARK 923 INTER-LIGAND FREE ENERGY PREDICTED BY IDOCK:   -6.91 KCAL/MOL
REMARK 924 INTRA-LIGAND FREE ENERGY PREDICTED BY IDOCK:   -0.84 KCAL/MOL
REMARK 927      BINDING AFFINITY PREDICTED BY RF-SCORE:    0.00 PKD
ROOT
HETATM    1  N   UNL     1     -11.236   4.582  65.244  1.00  0.00    -0.973 N  
HETATM    2  C   UNL     1     -10.057   4.539  65.932  1.00  0.00    -0.258 C  
HETATM    3  H1  UNL     1     -11.584   5.468  64.878  1.00  0.00     0.000 HD 
HETATM    4  H2  UNL     1     -11.769   3.726  65.095  1.00  0.00     0.000 HD 
HETATM    5  O   UNL     1      -9.638   3.473  66.372  1.00  0.00    -0.175 OA 
ENDROOT
BRANCH   2   6
HETATM    6  C   UNL     1      -9.376   5.804  66.063  1.00  0.00    -0.117 A  
HETATM    7  C   UNL     1      -9.785   6.985  66.653  1.00  0.00    -0.226 A  
HETATM    8  C   UNL     1      -8.708   7.896  66.538  1.00  0.00    -0.162 A  
HETATM    9  C   UNL     1      -8.470   9.222  66.942  1.00  0.00    -0.128 A  
HETATM   10  C   UNL     1      -7.248   9.857  66.647  1.00  0.00    -0.091 A  
HETATM   11  C   UNL     1      -6.288   9.114  65.935  1.00  0.00    -0.060 A  
HETATM   12  O   UNL     1      -8.105   5.952  65.564  1.00  0.00    -0.117 OA 
HETATM   13  C   UNL     1      -7.709   7.221  65.854  1.00  0.00    -0.097 A  
HETATM   14  C   UNL     1      -6.486   7.785  65.526  1.00  0.00    -0.042 A  
BRANCH  10  15
HETATM   15  N   UNL     1      -7.018  11.167  67.015  1.00  0.00    -0.114 NA 
HETATM   16  C   UNL     1      -8.098  12.161  67.110  1.00  0.00    -0.175 C  
HETATM   17  N   UNL     1      -6.652  13.585  68.644  1.00  0.00    -0.090 NA 
HETATM   18  C   UNL     1      -7.974  12.940  68.438  1.00  0.00    -0.137 C  
HETATM   19  C   UNL     1      -5.660  11.691  67.239  1.00  0.00    -0.104 C  
HETATM   20  C   UNL     1      -5.618  12.525  68.543  1.00  0.00    -0.055 C  
BRANCH  17  21
HETATM   21  C   UNL     1      -6.395  14.661  67.673  1.00  0.00    -0.111 C  
BRANCH  21  22
HETATM   22  C   UNL     1      -7.680  15.277  67.101  1.00  0.00    -0.238 C  
BRANCH  22  23
HETATM   23  C   UNL     1      -8.089  16.588  67.778  1.00  0.00    -0.170 C  
BRANCH  23  24
HETATM   24  C   UNL     1      -9.575  16.884  67.581  1.00  0.00    -0.248 C  
BRANCH  24  25
HETATM   25  C   UNL     1     -10.386  16.553  68.785  1.00  0.00    -0.286 A  
HETATM   26  C   UNL     1     -10.700  17.410  69.821  1.00  0.00     0.442 A  
HETATM   27  N   UNL     1     -11.435  16.713  70.739  1.00  0.00    -0.464 NA 
HETATM   28  H   UNL     1     -11.800  17.101  71.609  1.00  0.00     0.000 HD 
HETATM   29  C   UNL     1     -11.612  15.414  70.324  1.00  0.00    -0.320 A  
HETATM   30  C   UNL     1     -10.972  15.285  69.095  1.00  0.00    -0.251 A  
HETATM   31  C   UNL     1     -11.010  14.035  68.435  1.00  0.00    -0.269 A  
HETATM   32  C   UNL     1     -11.674  12.959  69.039  1.00  0.00    -0.375 A  
HETATM   33  C   UNL     1     -12.300  13.121  70.277  1.00  0.00    -0.319 A  
HETATM   34  C   UNL     1     -11.708  11.684  68.379  1.00  0.00    -0.307 C  
HETATM   35  N   UNL     1     -11.736  10.648  67.854  1.00  0.00    -0.456 NA 
HETATM   36  C   UNL     1     -12.283  14.353  70.942  1.00  0.00    -0.413 A  
ENDBRANCH  24  25
ENDBRANCH  23  24
ENDBRANCH  22  23
ENDBRANCH  21  22
ENDBRANCH  17  21
ENDBRANCH  10  15
ENDBRANCH   2   6
TORSDOF 7
ENDMDL
MODEL      181
REMARK 921   NORMALIZED FREE ENERGY PREDICTED BY IDOCK:   -4.58 KCAL/MOL
REMARK 922        TOTAL FREE ENERGY PREDICTED BY IDOCK:   -7.73 KCAL/MOL
REMARK 923 INTER-LIGAND FREE ENERGY PREDICTED BY IDOCK:   -6.52 KCAL/MOL
REMARK 924 INTRA-LIGAND FREE ENERGY PREDICTED BY IDOCK:   -1.21 KCAL/MOL
REMARK 927      BINDING AFFINITY PREDICTED BY RF-SCORE:    0.00 PKD
ROOT
HETATM    1  N   UNL     1      -9.744  19.825  65.465  1.00  0.00     0.051 N  
HETATM    2  C   UNL     1      -9.883  19.503  66.785  1.00  0.00    -0.382 C  
HETATM    3  H1  UNL     1      -9.760  19.094  64.754  1.00  0.00     0.000 HD 
HETATM    4  H2  UNL     1      -9.623  20.800  65.190  1.00  0.00     0.000 HD 
HETATM    5  O   UNL     1      -9.864  20.382  67.640  1.00  0.00    -0.415 OA 
ENDROOT
BRANCH   2   6
HETATM    6  C   UNL     1     -10.068  18.098  67.057  1.00  0.00    -0.351 A  
HETATM    7  C   UNL     1      -9.599  16.986  66.385  1.00  0.00    -0.301 A  
HETATM    8  C   UNL     1     -10.041  15.853  67.108  1.00  0.00    -0.264 A  
HETATM    9  C   UNL     1      -9.891  14.460  66.979  1.00  0.00    -0.252 A  
HETATM   10  C   UNL     1     -10.494  13.581  67.900  1.00  0.00    -0.250 A  
HETATM   11  C   UNL     1     -11.247  14.153  68.943  1.00  0.00    -0.294 A  
HETATM   12  O   UNL     1     -10.805  17.704  68.147  1.00  0.00    -0.349 OA 
HETATM   13  C   UNL     1     -10.785  16.343  68.170  1.00  0.00    -0.336 A  
HETATM   14  C   UNL     1     -11.409  15.538  69.109  1.00  0.00    -0.333 A  
BRANCH  10  15
HETATM   15  N   UNL     1     -10.374  12.213  67.763  1.00  0.00    -0.202 NA 
HETATM   16  C   UNL     1      -9.858  11.585  66.538  1.00  0.00    -0.202 C  
HETATM   17  N   UNL     1      -9.291   9.483  67.855  1.00  0.00    -0.132 NA 
HETATM   18  C   UNL     1      -8.805  10.516  66.904  1.00  0.00    -0.137 C  
HETATM   19  C   UNL     1     -10.853  11.278  68.796  1.00  0.00    -0.208 C  
HETATM   20  C   UNL     1      -9.787  10.188  69.064  1.00  0.00    -0.205 C  
BRANCH  17  21
HETATM   21  C   UNL     1     -10.345   8.637  67.273  1.00  0.00    -0.296 C  
BRANCH  21  22
HETATM   22  C   UNL     1     -10.513   7.296  68.002  1.00  0.00    -0.249 C  
BRANCH  22  23
HETATM   23  C   UNL     1      -9.364   6.314  67.758  1.00  0.00    -0.113 C  
BRANCH  23  24
HETATM   24  C   UNL     1      -9.415   5.723  66.351  1.00  0.00    -0.172 C  
BRANCH  24  25
HETATM   25  C   UNL     1      -8.119   5.855  65.631  1.00  0.00    -0.124 A  
HETATM   26  C   UNL     1      -7.057   4.973  65.688  1.00  0.00    -0.067 A  
HETATM   27  N   UNL     1      -6.051   5.469  64.907  1.00  0.00    -0.022 NA 
HETATM   28  H   UNL     1      -5.147   5.020  64.768  1.00  0.00     0.000 HD 
HETATM   29  C   UNL     1      -6.433   6.660  64.335  1.00  0.00    -0.038 A  
HETATM   30  C   UNL     1      -7.731   6.924  64.764  1.00  0.00    -0.115 A  
HETATM   31  C   UNL     1      -8.372   8.100  64.308  1.00  0.00    -0.038 A  
HETATM   32  C   UNL     1      -7.684   8.972  63.454  1.00  0.00    -0.124 A  
HETATM   33  C   UNL     1      -6.380   8.679  63.048  1.00  0.00    -0.090 A  
HETATM   34  C   UNL     1      -8.325  10.172  62.996  1.00  0.00    -0.169 C  
HETATM   35  N   UNL     1      -8.836  11.147  62.625  1.00  0.00    -0.294 NA 
HETATM   36  C   UNL     1      -5.730   7.516  63.479  1.00  0.00    -0.045 A  
ENDBRANCH  24  25
ENDBRANCH  23  24
ENDBRANCH  22  23
ENDBRANCH  21  22
ENDBRANCH  17  21
ENDBRANCH  10  15
ENDBRANCH   2   6
TORSDOF 7
ENDMDL
MODEL      182
REMARK 921   NORMALIZED FREE ENERGY PREDICTED BY IDOCK:   -4.56 KCAL/MOL
REMARK 922        TOTAL FREE ENERGY PREDICTED BY IDOCK:   -7.71 KCAL/MOL
REMARK 923 INTER-LIGAND FREE ENERGY PREDICTED BY IDOCK:   -6.60 KCAL/MOL
REMARK 924 INTRA-LIGAND FREE ENERGY PREDICTED BY IDOCK:   -1.11 KCAL/MOL
REMARK 927      BINDING AFFINITY PREDICTED BY RF-SCORE:    0.00 PKD
ROOT
HETATM    1  N   UNL     1     -10.411  15.864  65.277  1.00  0.00    -0.367 N  
HETATM    2  C   UNL     1     -11.096  14.717  64.994  1.00  0.00    -0.405 C  
HETATM    3  H1  UNL     1      -9.616  15.843  65.916  1.00  0.00     0.000 HD 
HETATM    4  H2  UNL     1     -10.694  16.744  64.847  1.00  0.00     0.000 HD 
HETATM    5  O   UNL     1     -12.051  14.742  64.225  1.00  0.00    -0.474 OA 
ENDROOT
BRANCH   2   6
HETATM    6  C   UNL     1     -10.595  13.529  65.641  1.00  0.00    -0.284 A  
HETATM    7  C   UNL     1     -10.119  13.340  66.924  1.00  0.00    -0.250 A  
HETATM    8  C   UNL     1      -9.801  11.966  67.046  1.00  0.00    -0.206 A  
HETATM    9  C   UNL     1      -9.309  11.139  68.072  1.00  0.00    -0.166 A  
HETATM   10  C   UNL     1      -9.088   9.766  67.847  1.00  0.00    -0.121 A  
HETATM   11  C   UNL     1      -9.375   9.266  66.562  1.00  0.00    -0.231 A  
HETATM   12  O   UNL     1     -10.559  12.340  64.954  1.00  0.00    -0.273 OA 
HETATM   13  C   UNL     1     -10.075  11.400  65.811  1.00  0.00    -0.246 A  
HETATM   14  C   UNL     1      -9.877  10.059  65.519  1.00  0.00    -0.373 A  
BRANCH  10  15
HETATM   15  N   UNL     1      -8.580   8.953  68.840  1.00  0.00    -0.134 NA 
HETATM   16  C   UNL     1      -7.767   7.763  68.547  1.00  0.00    -0.118 C  
HETATM   17  N   UNL     1      -6.805   7.841  70.901  1.00  0.00    -0.042 NA 
HETATM   18  C   UNL     1      -6.512   7.755  69.447  1.00  0.00    -0.035 C  
HETATM   19  C   UNL     1      -8.903   9.160  70.262  1.00  0.00    -0.213 C  
HETATM   20  C   UNL     1      -7.618   9.064  71.120  1.00  0.00    -0.102 C  
BRANCH  17  21
HETATM   21  C   UNL     1      -7.508   6.649  71.403  1.00  0.00    -0.088 C  
BRANCH  21  22
HETATM   22  C   UNL     1      -8.342   6.927  72.662  1.00  0.00    -0.117 C  
BRANCH  22  23
HETATM   23  C   UNL     1      -8.788   5.661  73.398  1.00  0.00    -0.123 C  
BRANCH  23  24
HETATM   24  C   UNL     1     -10.035   5.049  72.763  1.00  0.00    -0.200 C  
BRANCH  24  25
HETATM   25  C   UNL     1      -9.748   3.762  72.071  1.00  0.00    -0.236 A  
HETATM   26  C   UNL     1      -9.540   2.537  72.674  1.00  0.00    -0.105 A  
HETATM   27  N   UNL     1      -9.283   1.621  71.693  1.00  0.00    -0.081 NA 
HETATM   28  H   UNL     1      -9.090   0.633  71.855  1.00  0.00     0.000 HD 
HETATM   29  C   UNL     1      -9.321   2.220  70.456  1.00  0.00    -0.128 A  
HETATM   30  C   UNL     1      -9.621   3.565  70.660  1.00  0.00    -0.247 A  
HETATM   31  C   UNL     1      -9.731   4.416  69.536  1.00  0.00    -0.280 A  
HETATM   32  C   UNL     1      -9.521   3.892  68.254  1.00  0.00    -0.212 A  
HETATM   33  C   UNL     1      -9.216   2.540  68.085  1.00  0.00    -0.256 A  
HETATM   34  C   UNL     1      -9.621   4.753  67.109  1.00  0.00    -0.167 C  
HETATM   35  N   UNL     1      -9.697   5.445  66.179  1.00  0.00    -0.158 NA 
HETATM   36  C   UNL     1      -9.113   1.677  69.183  1.00  0.00    -0.161 A  
ENDBRANCH  24  25
ENDBRANCH  23  24
ENDBRANCH  22  23
ENDBRANCH  21  22
ENDBRANCH  17  21
ENDBRANCH  10  15
ENDBRANCH   2   6
TORSDOF 7
ENDMDL
MODEL      183
REMARK 921   NORMALIZED FREE ENERGY PREDICTED BY IDOCK:   -4.55 KCAL/MOL
REMARK 922        TOTAL FREE ENERGY PREDICTED BY IDOCK:   -7.69 KCAL/MOL
REMARK 923 INTER-LIGAND FREE ENERGY PREDICTED BY IDOCK:   -6.92 KCAL/MOL
REMARK 924 INTRA-LIGAND FREE ENERGY PREDICTED BY IDOCK:   -0.77 KCAL/MOL
REMARK 927      BINDING AFFINITY PREDICTED BY RF-SCORE:    0.00 PKD
ROOT
HETATM    1  N   UNL     1      -9.319  20.098  66.150  1.00  0.00    -0.590 N  
HETATM    2  C   UNL     1     -10.424  19.490  65.628  1.00  0.00    -0.322 C  
HETATM    3  H1  UNL     1      -8.588  19.541  66.593  1.00  0.00     0.000 HD 
HETATM    4  H2  UNL     1      -9.224  21.112  66.098  1.00  0.00     0.000 HD 
HETATM    5  O   UNL     1     -11.304  20.159  65.095  1.00  0.00    -0.103 OA 
ENDROOT
BRANCH   2   6
HETATM    6  C   UNL     1     -10.444  18.051  65.739  1.00  0.00    -0.198 A  
HETATM    7  C   UNL     1      -9.895  17.219  66.696  1.00  0.00    -0.299 A  
HETATM    8  C   UNL     1     -10.253  15.896  66.344  1.00  0.00    -0.311 A  
HETATM    9  C   UNL     1     -10.041  14.620  66.895  1.00  0.00    -0.255 A  
HETATM   10  C   UNL     1     -10.543  13.467  66.261  1.00  0.00    -0.288 A  
HETATM   11  C   UNL     1     -11.257  13.648  65.061  1.00  0.00    -0.329 A  
HETATM   12  O   UNL     1     -11.100  17.301  64.795  1.00  0.00    -0.954 OA 
HETATM   13  C   UNL     1     -10.978  15.998  65.167  1.00  0.00    -0.348 A  
HETATM   14  C   UNL     1     -11.497  14.907  64.487  1.00  0.00    -0.328 A  
BRANCH  10  15
HETATM   15  N   UNL     1     -10.315  12.210  66.782  1.00  0.00    -0.212 NA 
HETATM   16  C   UNL     1      -9.373  11.261  66.169  1.00  0.00    -0.211 C  
HETATM   17  N   UNL     1      -9.198  10.010  68.378  1.00  0.00    -0.129 NA 
HETATM   18  C   UNL     1      -8.463  10.655  67.259  1.00  0.00    -0.126 C  
HETATM   19  C   UNL     1     -11.078  11.687  67.929  1.00  0.00    -0.247 C  
HETATM   20  C   UNL     1     -10.119  11.025  68.949  1.00  0.00    -0.199 C  
BRANCH  17  21
HETATM   21  C   UNL     1      -9.940   8.814  67.947  1.00  0.00    -0.187 C  
BRANCH  21  22
HETATM   22  C   UNL     1     -10.466   7.975  69.120  1.00  0.00    -0.217 C  
BRANCH  22  23
HETATM   23  C   UNL     1     -11.476   6.902  68.706  1.00  0.00     0.110 C  
BRANCH  23  24
HETATM   24  C   UNL     1     -10.831   5.518  68.638  1.00  0.00    -0.088 C  
BRANCH  24  25
HETATM   25  C   UNL     1     -10.104   5.293  67.358  1.00  0.00    -0.228 A  
HETATM   26  C   UNL     1     -10.469   5.769  66.114  1.00  0.00     0.034 A  
HETATM   27  N   UNL     1      -9.555   5.318  65.203  1.00  0.00    -0.362 NA 
HETATM   28  H   UNL     1      -9.581   5.519  64.204  1.00  0.00     0.000 HD 
HETATM   29  C   UNL     1      -8.594   4.555  65.826  1.00  0.00    -0.116 A  
HETATM   30  C   UNL     1      -8.908   4.528  67.182  1.00  0.00    -0.112 A  
HETATM   31  C   UNL     1      -8.063   3.811  68.061  1.00  0.00    -0.085 A  
HETATM   32  C   UNL     1      -6.948   3.137  67.547  1.00  0.00    -0.050 A  
HETATM   33  C   UNL     1      -6.667   3.180  66.179  1.00  0.00    -0.048 A  
HETATM   34  C   UNL     1      -6.093   2.399  68.432  1.00  0.00    -0.025 C  
HETATM   35  N   UNL     1      -5.398   1.796  69.142  1.00  0.00    -0.012 NA 
HETATM   36  C   UNL     1      -7.484   3.892  65.293  1.00  0.00    -0.080 A  
ENDBRANCH  24  25
ENDBRANCH  23  24
ENDBRANCH  22  23
ENDBRANCH  21  22
ENDBRANCH  17  21
ENDBRANCH  10  15
ENDBRANCH   2   6
TORSDOF 7
ENDMDL
MODEL      184
REMARK 921   NORMALIZED FREE ENERGY PREDICTED BY IDOCK:   -4.55 KCAL/MOL
REMARK 922        TOTAL FREE ENERGY PREDICTED BY IDOCK:   -7.68 KCAL/MOL
REMARK 923 INTER-LIGAND FREE ENERGY PREDICTED BY IDOCK:   -7.85 KCAL/MOL
REMARK 924 INTRA-LIGAND FREE ENERGY PREDICTED BY IDOCK:    0.17 KCAL/MOL
REMARK 927      BINDING AFFINITY PREDICTED BY RF-SCORE:    0.00 PKD
ROOT
HETATM    1  N   UNL     1     -12.398  16.390  74.360  1.00  0.00    -0.711 N  
HETATM    2  C   UNL     1     -13.226  16.179  73.294  1.00  0.00    -0.464 C  
HETATM    3  H1  UNL     1     -11.424  16.092  74.320  1.00  0.00     0.000 HD 
HETATM    4  H2  UNL     1     -12.756  16.846  75.199  1.00  0.00     0.000 HD 
HETATM    5  O   UNL     1     -14.398  16.537  73.342  1.00  0.00     0.028 OA 
ENDROOT
BRANCH   2   6
HETATM    6  C   UNL     1     -12.609  15.545  72.154  1.00  0.00    -0.398 A  
HETATM    7  C   UNL     1     -13.017  14.461  71.402  1.00  0.00    -0.405 A  
HETATM    8  C   UNL     1     -12.060  14.291  70.373  1.00  0.00    -0.409 A  
HETATM    9  C   UNL     1     -11.902  13.411  69.287  1.00  0.00    -0.385 A  
HETATM   10  C   UNL     1     -10.788  13.514  68.432  1.00  0.00    -0.267 A  
HETATM   11  C   UNL     1      -9.848  14.525  68.712  1.00  0.00    -0.220 A  
HETATM   12  O   UNL     1     -11.428  16.037  71.654  1.00  0.00    -0.417 OA 
HETATM   13  C   UNL     1     -11.102  15.271  70.577  1.00  0.00    -0.306 A  
HETATM   14  C   UNL     1      -9.979  15.427  69.779  1.00  0.00    -0.251 A  
BRANCH  10  15
HETATM   15  N   UNL     1     -10.612  12.637  67.381  1.00  0.00    -0.223 NA 
HETATM   16  C   UNL     1     -11.692  12.308  66.439  1.00  0.00    -0.365 C  
HETATM   17  N   UNL     1      -9.968  11.555  64.727  1.00  0.00    -0.251 NA 
HETATM   18  C   UNL     1     -11.164  12.396  64.991  1.00  0.00    -0.312 C  
HETATM   19  C   UNL     1      -9.359  11.886  67.190  1.00  0.00    -0.180 C  
HETATM   20  C   UNL     1      -8.923  11.947  65.705  1.00  0.00     0.046 C  
BRANCH  17  21
HETATM   21  C   UNL     1     -10.261  10.116  64.822  1.00  0.00    -0.051 C  
BRANCH  21  22
HETATM   22  C   UNL     1      -9.129   9.312  65.478  1.00  0.00    -0.275 C  
BRANCH  22  23
HETATM   23  C   UNL     1      -9.597   8.408  66.621  1.00  0.00    -0.294 C  
BRANCH  23  24
HETATM   24  C   UNL     1      -9.638   9.157  67.951  1.00  0.00    -0.168 C  
BRANCH  24  25
HETATM   25  C   UNL     1     -10.289   8.364  69.031  1.00  0.00    -0.231 A  
HETATM   26  C   UNL     1     -11.457   8.686  69.693  1.00  0.00     0.332 A  
HETATM   27  N   UNL     1     -11.697   7.716  70.625  1.00  0.00    -0.432 NA 
HETATM   28  H   UNL     1     -12.495   7.703  71.260  1.00  0.00     0.000 HD 
HETATM   29  C   UNL     1     -10.709   6.760  70.587  1.00  0.00    -0.235 A  
HETATM   30  C   UNL     1      -9.815   7.135  69.588  1.00  0.00    -0.162 A  
HETATM   31  C   UNL     1      -8.696   6.308  69.331  1.00  0.00    -0.128 A  
HETATM   32  C   UNL     1      -8.509   5.148  70.094  1.00  0.00    -0.102 A  
HETATM   33  C   UNL     1      -9.424   4.805  71.092  1.00  0.00    -0.218 A  
HETATM   34  C   UNL     1      -7.370   4.309  69.845  1.00  0.00    -0.049 C  
HETATM   35  N   UNL     1      -6.450   3.628  69.652  1.00  0.00    -0.032 NA 
HETATM   36  C   UNL     1     -10.543   5.604  71.357  1.00  0.00    -0.317 A  
ENDBRANCH  24  25
ENDBRANCH  23  24
ENDBRANCH  22  23
ENDBRANCH  21  22
ENDBRANCH  17  21
ENDBRANCH  10  15
ENDBRANCH   2   6
TORSDOF 7
ENDMDL
MODEL      185
REMARK 921   NORMALIZED FREE ENERGY PREDICTED BY IDOCK:   -4.53 KCAL/MOL
REMARK 922        TOTAL FREE ENERGY PREDICTED BY IDOCK:   -7.65 KCAL/MOL
REMARK 923 INTER-LIGAND FREE ENERGY PREDICTED BY IDOCK:   -5.65 KCAL/MOL
REMARK 924 INTRA-LIGAND FREE ENERGY PREDICTED BY IDOCK:   -2.01 KCAL/MOL
REMARK 927      BINDING AFFINITY PREDICTED BY RF-SCORE:    0.00 PKD
ROOT
HETATM    1  N   UNL     1     -12.591  15.603  68.852  1.00  0.00    -0.272 N  
HETATM    2  C   UNL     1     -11.381  15.117  69.259  1.00  0.00    -0.300 C  
HETATM    3  H1  UNL     1     -13.019  15.260  67.992  1.00  0.00     0.000 HD 
HETATM    4  H2  UNL     1     -13.068  16.311  69.410  1.00  0.00     0.000 HD 
HETATM    5  O   UNL     1     -10.866  15.529  70.293  1.00  0.00    -0.299 OA 
ENDROOT
BRANCH   2   6
HETATM    6  C   UNL     1     -10.808  14.104  68.405  1.00  0.00    -0.254 A  
HETATM    7  C   UNL     1      -9.641  13.376  68.537  1.00  0.00    -0.141 A  
HETATM    8  C   UNL     1      -9.585  12.487  67.437  1.00  0.00    -0.192 A  
HETATM    9  C   UNL     1      -8.698  11.487  67.002  1.00  0.00    -0.169 A  
HETATM   10  C   UNL     1      -8.944  10.772  65.813  1.00  0.00    -0.187 A  
HETATM   11  C   UNL     1     -10.104  11.104  65.087  1.00  0.00    -0.335 A  
HETATM   12  O   UNL     1     -11.462  13.726  67.258  1.00  0.00    -0.309 OA 
HETATM   13  C   UNL     1     -10.715  12.748  66.678  1.00  0.00    -0.261 A  
HETATM   14  C   UNL     1     -11.017  12.088  65.497  1.00  0.00    -0.345 A  
BRANCH  10  15
HETATM   15  N   UNL     1      -8.064   9.808  65.366  1.00  0.00    -0.122 NA 
HETATM   16  C   UNL     1      -8.516   8.554  64.746  1.00  0.00    -0.127 C  
HETATM   17  N   UNL     1      -6.239   8.277  63.645  1.00  0.00    -0.071 NA 
HETATM   18  C   UNL     1      -7.712   8.292  63.453  1.00  0.00    -0.142 C  
HETATM   19  C   UNL     1      -6.609   9.919  65.572  1.00  0.00    -0.092 C  
HETATM   20  C   UNL     1      -5.857   9.571  64.264  1.00  0.00    -0.079 C  
BRANCH  17  21
HETATM   21  C   UNL     1      -5.793   7.147  64.476  1.00  0.00    -0.037 C  
BRANCH  21  22
HETATM   22  C   UNL     1      -6.269   5.786  63.949  1.00  0.00    -0.025 C  
BRANCH  22  23
HETATM   23  C   UNL     1      -7.170   5.028  64.927  1.00  0.00    -0.063 C  
BRANCH  23  24
HETATM   24  C   UNL     1      -6.989   5.522  66.361  1.00  0.00    -0.064 C  
BRANCH  24  25
HETATM   25  C   UNL     1      -8.275   5.934  66.988  1.00  0.00    -0.105 A  
HETATM   26  C   UNL     1      -9.509   5.348  66.786  1.00  0.00    -0.139 A  
HETATM   27  N   UNL     1     -10.431   6.038  67.523  1.00  0.00    -0.209 NA 
HETATM   28  H   UNL     1     -11.427   5.822  67.560  1.00  0.00     0.000 HD 
HETATM   29  C   UNL     1      -9.825   7.067  68.206  1.00  0.00    -0.144 A  
HETATM   30  C   UNL     1      -8.469   7.021  67.897  1.00  0.00    -0.124 A  
HETATM   31  C   UNL     1      -7.605   7.976  68.484  1.00  0.00    -0.104 A  
HETATM   32  C   UNL     1      -8.136   8.947  69.343  1.00  0.00    -0.105 A  
HETATM   33  C   UNL     1      -9.503   8.967  69.627  1.00  0.00    -0.168 A  
HETATM   34  C   UNL     1      -7.266   9.925  69.934  1.00  0.00    -0.129 C  
HETATM   35  N   UNL     1      -6.570  10.721  70.413  1.00  0.00    -0.301 NA 
HETATM   36  C   UNL     1     -10.374   8.025  69.065  1.00  0.00    -0.228 A  
ENDBRANCH  24  25
ENDBRANCH  23  24
ENDBRANCH  22  23
ENDBRANCH  21  22
ENDBRANCH  17  21
ENDBRANCH  10  15
ENDBRANCH   2   6
TORSDOF 7
ENDMDL
MODEL      186
REMARK 921   NORMALIZED FREE ENERGY PREDICTED BY IDOCK:   -4.52 KCAL/MOL
REMARK 922        TOTAL FREE ENERGY PREDICTED BY IDOCK:   -7.65 KCAL/MOL
REMARK 923 INTER-LIGAND FREE ENERGY PREDICTED BY IDOCK:   -7.24 KCAL/MOL
REMARK 924 INTRA-LIGAND FREE ENERGY PREDICTED BY IDOCK:   -0.40 KCAL/MOL
REMARK 927      BINDING AFFINITY PREDICTED BY RF-SCORE:    0.00 PKD
ROOT
HETATM    1  N   UNL     1      -5.832   6.902  62.834  1.00  0.00    -0.039 N  
HETATM    2  C   UNL     1      -7.186   6.742  62.921  1.00  0.00    -0.063 C  
HETATM    3  H1  UNL     1      -5.399   7.775  63.136  1.00  0.00     0.000 HD 
HETATM    4  H2  UNL     1      -5.253   6.148  62.466  1.00  0.00     0.000 HD 
HETATM    5  O   UNL     1      -7.708   5.692  62.558  1.00  0.00    -0.062 OA 
ENDROOT
BRANCH   2   6
HETATM    6  C   UNL     1      -7.902   7.864  63.476  1.00  0.00    -0.138 A  
HETATM    7  C   UNL     1      -8.031   8.287  64.785  1.00  0.00    -0.146 A  
HETATM    8  C   UNL     1      -8.807   9.469  64.761  1.00  0.00    -0.244 A  
HETATM    9  C   UNL     1      -9.269  10.385  65.723  1.00  0.00    -0.210 A  
HETATM   10  C   UNL     1     -10.059  11.489  65.348  1.00  0.00    -0.260 A  
HETATM   11  C   UNL     1     -10.363  11.632  63.981  1.00  0.00    -0.405 A  
HETATM   12  O   UNL     1      -8.588   8.716  62.646  1.00  0.00    -0.192 OA 
HETATM   13  C   UNL     1      -9.134   9.684  63.431  1.00  0.00    -0.178 A  
HETATM   14  C   UNL     1      -9.910  10.745  62.991  1.00  0.00    -0.344 A  
BRANCH  10  15
HETATM   15  N   UNL     1     -10.539  12.376  66.290  1.00  0.00    -0.245 NA 
HETATM   16  C   UNL     1     -11.613  12.023  67.230  1.00  0.00    -0.313 C  
HETATM   17  N   UNL     1     -10.864  13.892  68.786  1.00  0.00    -0.258 NA 
HETATM   18  C   UNL     1     -11.216  12.454  68.659  1.00  0.00    -0.271 C  
HETATM   19  C   UNL     1     -10.083  13.775  66.352  1.00  0.00    -0.295 C  
HETATM   20  C   UNL     1      -9.774  14.171  67.817  1.00  0.00    -0.223 C  
BRANCH  17  21
HETATM   21  C   UNL     1     -12.016  14.776  68.546  1.00  0.00    -0.248 C  
BRANCH  21  22
HETATM   22  C   UNL     1     -12.058  15.983  69.493  1.00  0.00    -0.109 C  
BRANCH  22  23
HETATM   23  C   UNL     1     -10.720  16.718  69.615  1.00  0.00    -0.229 C  
BRANCH  23  24
HETATM   24  C   UNL     1     -10.387  17.496  68.343  1.00  0.00    -0.378 C  
BRANCH  24  25
HETATM   25  C   UNL     1      -9.064  18.175  68.423  1.00  0.00    -0.318 A  
HETATM   26  C   UNL     1      -8.798  19.490  68.096  1.00  0.00    -0.330 A  
HETATM   27  N   UNL     1      -7.462  19.711  68.283  1.00  0.00    -0.307 NA 
HETATM   28  H   UNL     1      -6.989  20.599  68.116  1.00  0.00     0.000 HD 
HETATM   29  C   UNL     1      -6.845  18.566  68.730  1.00  0.00    -0.271 A  
HETATM   30  C   UNL     1      -7.828  17.586  68.836  1.00  0.00    -0.197 A  
HETATM   31  C   UNL     1      -7.458  16.298  69.290  1.00  0.00    -0.217 A  
HETATM   32  C   UNL     1      -6.117  16.038  69.603  1.00  0.00    -0.172 A  
HETATM   33  C   UNL     1      -5.156  17.044  69.479  1.00  0.00    -0.141 A  
HETATM   34  C   UNL     1      -5.733  14.730  70.054  1.00  0.00    -0.122 C  
HETATM   35  N   UNL     1      -5.415  13.673  70.416  1.00  0.00    -0.119 NA 
HETATM   36  C   UNL     1      -5.502  18.328  69.042  1.00  0.00    -0.199 A  
ENDBRANCH  24  25
ENDBRANCH  23  24
ENDBRANCH  22  23
ENDBRANCH  21  22
ENDBRANCH  17  21
ENDBRANCH  10  15
ENDBRANCH   2   6
TORSDOF 7
ENDMDL
MODEL      187
REMARK 921   NORMALIZED FREE ENERGY PREDICTED BY IDOCK:   -4.52 KCAL/MOL
REMARK 922        TOTAL FREE ENERGY PREDICTED BY IDOCK:   -7.64 KCAL/MOL
REMARK 923 INTER-LIGAND FREE ENERGY PREDICTED BY IDOCK:   -6.12 KCAL/MOL
REMARK 924 INTRA-LIGAND FREE ENERGY PREDICTED BY IDOCK:   -1.52 KCAL/MOL
REMARK 927      BINDING AFFINITY PREDICTED BY RF-SCORE:    0.00 PKD
ROOT
HETATM    1  N   UNL     1      -9.796  15.460  65.115  1.00  0.00    -0.207 N  
HETATM    2  C   UNL     1     -10.731  14.478  65.281  1.00  0.00    -0.376 C  
HETATM    3  H1  UNL     1      -8.858  15.346  65.499  1.00  0.00     0.000 HD 
HETATM    4  H2  UNL     1     -10.036  16.309  64.605  1.00  0.00     0.000 HD 
HETATM    5  O   UNL     1     -11.859  14.615  64.819  1.00  0.00    -0.404 OA 
ENDROOT
BRANCH   2   6
HETATM    6  C   UNL     1     -10.275  13.313  65.999  1.00  0.00    -0.291 A  
HETATM    7  C   UNL     1      -9.288  13.179  66.956  1.00  0.00    -0.238 A  
HETATM    8  C   UNL     1      -9.288  11.823  67.360  1.00  0.00    -0.174 A  
HETATM    9  C   UNL     1      -8.567  11.054  68.291  1.00  0.00    -0.143 A  
HETATM   10  C   UNL     1      -8.820   9.677  68.440  1.00  0.00    -0.123 A  
HETATM   11  C   UNL     1      -9.815   9.109  67.621  1.00  0.00    -0.217 A  
HETATM   12  O   UNL     1     -10.868  12.095  65.773  1.00  0.00    -0.263 OA 
HETATM   13  C   UNL     1     -10.264  11.198  66.599  1.00  0.00    -0.232 A  
HETATM   14  C   UNL     1     -10.562   9.847  66.689  1.00  0.00    -0.186 A  
BRANCH  10  15
HETATM   15  N   UNL     1      -8.098   8.911  69.332  1.00  0.00    -0.102 NA 
HETATM   16  C   UNL     1      -7.653   7.544  69.019  1.00  0.00    -0.108 C  
HETATM   17  N   UNL     1      -5.856   7.720  70.812  1.00  0.00    -0.033 NA 
HETATM   18  C   UNL     1      -6.165   7.382  69.398  1.00  0.00    -0.031 C  
HETATM   19  C   UNL     1      -7.811   9.367  70.703  1.00  0.00    -0.151 C  
HETATM   20  C   UNL     1      -6.324   9.108  71.051  1.00  0.00    -0.071 C  
BRANCH  17  21
HETATM   21  C   UNL     1      -6.482   6.786  71.762  1.00  0.00    -0.049 C  
BRANCH  21  22
HETATM   22  C   UNL     1      -6.857   7.445  73.097  1.00  0.00    -0.066 C  
BRANCH  22  23
HETATM   23  C   UNL     1      -7.277   6.448  74.180  1.00  0.00    -0.085 C  
BRANCH  23  24
HETATM   24  C   UNL     1      -8.782   6.499  74.438  1.00  0.00    -0.166 C  
BRANCH  24  25
HETATM   25  C   UNL     1      -9.575   6.010  73.277  1.00  0.00    -0.143 A  
HETATM   26  C   UNL     1      -9.729   4.695  72.885  1.00  0.00    -0.136 A  
HETATM   27  N   UNL     1     -10.508   4.675  71.762  1.00  0.00    -0.133 NA 
HETATM   28  H   UNL     1     -10.780   3.832  71.257  1.00  0.00     0.000 HD 
HETATM   29  C   UNL     1     -10.871   5.953  71.409  1.00  0.00    -0.271 A  
HETATM   30  C   UNL     1     -10.308   6.814  72.347  1.00  0.00    -0.218 A  
HETATM   31  C   UNL     1     -10.539   8.203  72.221  1.00  0.00    -0.378 A  
HETATM   32  C   UNL     1     -11.310   8.678  71.152  1.00  0.00    -0.329 A  
HETATM   33  C   UNL     1     -11.855   7.787  70.225  1.00  0.00     0.115 A  
HETATM   34  C   UNL     1     -11.540  10.089  71.013  1.00  0.00    -0.393 C  
HETATM   35  N   UNL     1     -11.727  11.228  70.891  1.00  0.00    -0.079 NA 
HETATM   36  C   UNL     1     -11.648   6.407  70.337  1.00  0.00    -0.440 A  
ENDBRANCH  24  25
ENDBRANCH  23  24
ENDBRANCH  22  23
ENDBRANCH  21  22
ENDBRANCH  17  21
ENDBRANCH  10  15
ENDBRANCH   2   6
TORSDOF 7
ENDMDL
MODEL      188
REMARK 921   NORMALIZED FREE ENERGY PREDICTED BY IDOCK:   -4.51 KCAL/MOL
REMARK 922        TOTAL FREE ENERGY PREDICTED BY IDOCK:   -7.64 KCAL/MOL
REMARK 923 INTER-LIGAND FREE ENERGY PREDICTED BY IDOCK:   -6.53 KCAL/MOL
REMARK 924 INTRA-LIGAND FREE ENERGY PREDICTED BY IDOCK:   -1.11 KCAL/MOL
REMARK 927      BINDING AFFINITY PREDICTED BY RF-SCORE:    0.00 PKD
ROOT
HETATM    1  N   UNL     1     -10.504   6.853  66.582  1.00  0.00    -0.487 N  
HETATM    2  C   UNL     1      -9.518   6.805  67.526  1.00  0.00    -0.127 C  
HETATM    3  H1  UNL     1     -10.749   7.740  66.141  1.00  0.00     0.000 HD 
HETATM    4  H2  UNL     1     -10.996   6.001  66.317  1.00  0.00     0.000 HD 
HETATM    5  O   UNL     1      -9.223   5.739  68.057  1.00  0.00    -0.110 OA 
ENDROOT
BRANCH   2   6
HETATM    6  C   UNL     1      -8.876   8.066  67.807  1.00  0.00    -0.126 A  
HETATM    7  C   UNL     1      -9.191   9.345  67.390  1.00  0.00    -0.145 A  
HETATM    8  C   UNL     1      -8.256  10.217  67.997  1.00  0.00    -0.113 A  
HETATM    9  C   UNL     1      -8.041  11.606  68.006  1.00  0.00    -0.139 A  
HETATM   10  C   UNL     1      -6.973  12.166  68.734  1.00  0.00    -0.101 A  
HETATM   11  C   UNL     1      -6.138  11.281  69.442  1.00  0.00    -0.074 A  
HETATM   12  O   UNL     1      -7.771   8.104  68.622  1.00  0.00    -0.107 OA 
HETATM   13  C   UNL     1      -7.402   9.409  68.731  1.00  0.00    -0.074 A  
HETATM   14  C   UNL     1      -6.329   9.891  69.466  1.00  0.00    -0.047 A  
BRANCH  10  15
HETATM   15  N   UNL     1      -6.740  13.527  68.725  1.00  0.00    -0.099 NA 
HETATM   16  C   UNL     1      -6.740  14.335  69.953  1.00  0.00    -0.068 C  
HETATM   17  N   UNL     1      -5.366  16.123  68.776  1.00  0.00    -0.110 NA 
HETATM   18  C   UNL     1      -5.498  15.253  69.972  1.00  0.00    -0.121 C  
HETATM   19  C   UNL     1      -6.578  14.285  67.472  1.00  0.00    -0.075 C  
HETATM   20  C   UNL     1      -5.365  15.242  67.581  1.00  0.00    -0.006 C  
BRANCH  17  21
HETATM   21  C   UNL     1      -6.441  17.124  68.687  1.00  0.00    -0.175 C  
BRANCH  21  22
HETATM   22  C   UNL     1      -6.171  18.208  67.634  1.00  0.00    -0.174 C  
BRANCH  22  23
HETATM   23  C   UNL     1      -7.383  18.530  66.755  1.00  0.00    -0.234 C  
BRANCH  23  24
HETATM   24  C   UNL     1      -8.278  17.308  66.560  1.00  0.00    -0.311 C  
BRANCH  24  25
HETATM   25  C   UNL     1      -9.361  17.229  67.579  1.00  0.00    -0.236 A  
HETATM   26  C   UNL     1      -9.715  18.216  68.477  1.00  0.00    -0.362 A  
HETATM   27  N   UNL     1     -10.735  17.739  69.252  1.00  0.00    -0.273 NA 
HETATM   28  H   UNL     1     -11.190  18.261  70.001  1.00  0.00     0.000 HD 
HETATM   29  C   UNL     1     -11.060  16.456  68.879  1.00  0.00    -0.328 A  
HETATM   30  C   UNL     1     -10.220  16.111  67.824  1.00  0.00    -0.267 A  
HETATM   31  C   UNL     1     -10.353  14.829  67.240  1.00  0.00    -0.247 A  
HETATM   32  C   UNL     1     -11.310  13.939  67.745  1.00  0.00    -0.335 A  
HETATM   33  C   UNL     1     -12.132  14.317  68.809  1.00  0.00    -0.300 A  
HETATM   34  C   UNL     1     -11.444  12.634  67.163  1.00  0.00    -0.346 C  
HETATM   35  N   UNL     1     -11.555  11.574  66.700  1.00  0.00    -0.459 NA 
HETATM   36  C   UNL     1     -12.024  15.584  69.395  1.00  0.00    -0.358 A  
ENDBRANCH  24  25
ENDBRANCH  23  24
ENDBRANCH  22  23
ENDBRANCH  21  22
ENDBRANCH  17  21
ENDBRANCH  10  15
ENDBRANCH   2   6
TORSDOF 7
ENDMDL
MODEL      189
REMARK 921   NORMALIZED FREE ENERGY PREDICTED BY IDOCK:   -4.51 KCAL/MOL
REMARK 922        TOTAL FREE ENERGY PREDICTED BY IDOCK:   -7.64 KCAL/MOL
REMARK 923 INTER-LIGAND FREE ENERGY PREDICTED BY IDOCK:   -6.83 KCAL/MOL
REMARK 924 INTRA-LIGAND FREE ENERGY PREDICTED BY IDOCK:   -0.81 KCAL/MOL
REMARK 927      BINDING AFFINITY PREDICTED BY RF-SCORE:    0.00 PKD
ROOT
HETATM    1  N   UNL     1      -7.612  20.439  66.253  1.00  0.00    -0.481 N  
HETATM    2  C   UNL     1      -8.776  19.960  66.783  1.00  0.00    -0.343 C  
HETATM    3  H1  UNL     1      -6.928  19.798  65.854  1.00  0.00     0.000 HD 
HETATM    4  H2  UNL     1      -7.427  21.442  66.257  1.00  0.00     0.000 HD 
HETATM    5  O   UNL     1      -9.600  20.732  67.264  1.00  0.00    -0.457 OA 
ENDROOT
BRANCH   2   6
HETATM    6  C   UNL     1      -8.942  18.529  66.705  1.00  0.00    -0.293 A  
HETATM    7  C   UNL     1      -8.010  17.513  66.795  1.00  0.00    -0.273 A  
HETATM    8  C   UNL     1      -8.721  16.293  66.697  1.00  0.00    -0.294 A  
HETATM    9  C   UNL     1      -8.382  14.929  66.738  1.00  0.00    -0.158 A  
HETATM   10  C   UNL     1      -9.369  13.936  66.592  1.00  0.00    -0.268 A  
HETATM   11  C   UNL     1     -10.696  14.365  66.403  1.00  0.00    -0.306 A  
HETATM   12  O   UNL     1     -10.194  17.994  66.528  1.00  0.00    -0.347 OA 
HETATM   13  C   UNL     1     -10.051  16.641  66.522  1.00  0.00    -0.305 A  
HETATM   14  C   UNL     1     -11.074  15.717  66.368  1.00  0.00    -0.123 A  
BRANCH  10  15
HETATM   15  N   UNL     1      -9.040  12.595  66.604  1.00  0.00    -0.217 NA 
HETATM   16  C   UNL     1      -9.703  11.612  65.735  1.00  0.00    -0.236 C  
HETATM   17  N   UNL     1      -7.721  10.040  66.001  1.00  0.00    -0.106 NA 
HETATM   18  C   UNL     1      -8.643  10.719  65.055  1.00  0.00    -0.110 C  
HETATM   19  C   UNL     1      -8.073  12.035  67.564  1.00  0.00    -0.159 C  
HETATM   20  C   UNL     1      -7.085  11.090  66.836  1.00  0.00    -0.125 C  
BRANCH  17  21
HETATM   21  C   UNL     1      -8.411   9.049  66.843  1.00  0.00    -0.119 C  
BRANCH  21  22
HETATM   22  C   UNL     1      -9.482   8.254  66.083  1.00  0.00    -0.241 C  
BRANCH  22  23
HETATM   23  C   UNL     1      -9.178   6.758  65.974  1.00  0.00    -0.069 C  
BRANCH  23  24
HETATM   24  C   UNL     1      -7.913   6.382  66.744  1.00  0.00    -0.109 C  
BRANCH  24  25
HETATM   25  C   UNL     1      -8.114   5.198  67.625  1.00  0.00    -0.099 A  
HETATM   26  C   UNL     1      -7.815   3.887  67.315  1.00  0.00    -0.087 A  
HETATM   27  N   UNL     1      -8.173   3.107  68.380  1.00  0.00    -0.068 NA 
HETATM   28  H   UNL     1      -8.065   2.094  68.422  1.00  0.00     0.000 HD 
HETATM   29  C   UNL     1      -8.701   3.883  69.385  1.00  0.00    -0.079 A  
HETATM   30  C   UNL     1      -8.669   5.203  68.944  1.00  0.00    -0.096 A  
HETATM   31  C   UNL     1      -9.151   6.219  69.802  1.00  0.00    -0.143 A  
HETATM   32  C   UNL     1      -9.660   5.872  71.060  1.00  0.00    -0.197 A  
HETATM   33  C   UNL     1      -9.683   4.536  71.468  1.00  0.00    -0.243 A  
HETATM   34  C   UNL     1     -10.161   6.897  71.932  1.00  0.00    -0.183 C  
HETATM   35  N   UNL     1     -10.571   7.721  72.641  1.00  0.00    -0.287 NA 
HETATM   36  C   UNL     1      -9.202   3.516  70.639  1.00  0.00    -0.207 A  
ENDBRANCH  24  25
ENDBRANCH  23  24
ENDBRANCH  22  23
ENDBRANCH  21  22
ENDBRANCH  17  21
ENDBRANCH  10  15
ENDBRANCH   2   6
TORSDOF 7
ENDMDL
MODEL      190
REMARK 921   NORMALIZED FREE ENERGY PREDICTED BY IDOCK:   -4.46 KCAL/MOL
REMARK 922        TOTAL FREE ENERGY PREDICTED BY IDOCK:   -7.56 KCAL/MOL
REMARK 923 INTER-LIGAND FREE ENERGY PREDICTED BY IDOCK:   -7.04 KCAL/MOL
REMARK 924 INTRA-LIGAND FREE ENERGY PREDICTED BY IDOCK:   -0.53 KCAL/MOL
REMARK 927      BINDING AFFINITY PREDICTED BY RF-SCORE:    0.00 PKD
ROOT
HETATM    1  N   UNL     1     -12.516  11.526  63.017  1.00  0.00    -0.914 N  
HETATM    2  C   UNL     1     -11.365  11.469  63.750  1.00  0.00    -0.329 C  
HETATM    3  H1  UNL     1     -13.122  12.344  63.076  1.00  0.00     0.000 HD 
HETATM    4  H2  UNL     1     -12.771  10.747  62.410  1.00  0.00     0.000 HD 
HETATM    5  O   UNL     1     -10.636  10.485  63.680  1.00  0.00    -0.015 OA 
ENDROOT
BRANCH   2   6
HETATM    6  C   UNL     1     -11.093  12.634  64.557  1.00  0.00    -0.327 A  
HETATM    7  C   UNL     1     -10.247  13.703  64.331  1.00  0.00    -0.117 A  
HETATM    8  C   UNL     1     -10.401  14.587  65.425  1.00  0.00    -0.405 A  
HETATM    9  C   UNL     1      -9.864  15.834  65.789  1.00  0.00    -0.383 A  
HETATM   10  C   UNL     1     -10.236  16.456  66.997  1.00  0.00    -0.282 A  
HETATM   11  C   UNL     1     -11.160  15.778  67.816  1.00  0.00    -0.313 A  
HETATM   12  O   UNL     1     -11.742  12.803  65.755  1.00  0.00    -0.357 OA 
HETATM   13  C   UNL     1     -11.317  13.986  66.275  1.00  0.00    -0.333 A  
HETATM   14  C   UNL     1     -11.725  14.537  67.480  1.00  0.00    -0.413 A  
BRANCH  10  15
HETATM   15  N   UNL     1      -9.692  17.667  67.374  1.00  0.00    -0.276 NA 
HETATM   16  C   UNL     1      -9.331  18.707  66.399  1.00  0.00    -0.297 C  
HETATM   17  N   UNL     1      -9.434  20.464  68.235  1.00  0.00    -0.062 NA 
HETATM   18  C   UNL     1      -9.873  20.073  66.871  1.00  0.00    -0.438 C  
HETATM   19  C   UNL     1      -9.335  17.964  68.772  1.00  0.00    -0.229 C  
HETATM   20  C   UNL     1      -9.838  19.376  69.161  1.00  0.00    -0.359 C  
BRANCH  17  21
HETATM   21  C   UNL     1      -7.985  20.705  68.312  1.00  0.00     0.291 C  
BRANCH  21  22
HETATM   22  C   UNL     1      -7.375  20.294  69.660  1.00  0.00     0.288 C  
BRANCH  22  23
HETATM   23  C   UNL     1      -5.895  20.657  69.803  1.00  0.00    -0.343 C  
BRANCH  23  24
HETATM   24  C   UNL     1      -5.132  19.604  70.606  1.00  0.00    -0.224 C  
BRANCH  24  25
HETATM   25  C   UNL     1      -5.412  18.219  70.138  1.00  0.00    -0.248 A  
HETATM   26  C   UNL     1      -5.504  17.090  70.928  1.00  0.00    -0.027 A  
HETATM   27  N   UNL     1      -5.746  16.020  70.113  1.00  0.00    -0.169 NA 
HETATM   28  H   UNL     1      -5.858  15.058  70.432  1.00  0.00     0.000 HD 
HETATM   29  C   UNL     1      -5.817  16.425  68.801  1.00  0.00    -0.126 A  
HETATM   30  C   UNL     1      -5.620  17.803  68.785  1.00  0.00    -0.174 A  
HETATM   31  C   UNL     1      -5.655  18.481  67.544  1.00  0.00    -0.146 A  
HETATM   32  C   UNL     1      -5.869  17.752  66.368  1.00  0.00    -0.230 A  
HETATM   33  C   UNL     1      -6.057  16.369  66.419  1.00  0.00     0.712 A  
HETATM   34  C   UNL     1      -5.896  18.433  65.104  1.00  0.00    -0.195 C  
HETATM   35  N   UNL     1      -5.914  18.976  64.078  1.00  0.00    -0.425 NA 
HETATM   36  C   UNL     1      -6.036  15.679  67.637  1.00  0.00    -0.174 A  
ENDBRANCH  24  25
ENDBRANCH  23  24
ENDBRANCH  22  23
ENDBRANCH  21  22
ENDBRANCH  17  21
ENDBRANCH  10  15
ENDBRANCH   2   6
TORSDOF 7
ENDMDL
MODEL      191
REMARK 921   NORMALIZED FREE ENERGY PREDICTED BY IDOCK:   -4.44 KCAL/MOL
REMARK 922        TOTAL FREE ENERGY PREDICTED BY IDOCK:   -7.54 KCAL/MOL
REMARK 923 INTER-LIGAND FREE ENERGY PREDICTED BY IDOCK:   -5.74 KCAL/MOL
REMARK 924 INTRA-LIGAND FREE ENERGY PREDICTED BY IDOCK:   -1.80 KCAL/MOL
REMARK 927      BINDING AFFINITY PREDICTED BY RF-SCORE:    0.00 PKD
ROOT
HETATM    1  N   UNL     1      -9.993   1.644  72.645  1.00  0.00    -0.101 N  
HETATM    2  C   UNL     1      -8.723   2.054  72.358  1.00  0.00    -0.062 C  
HETATM    3  H1  UNL     1     -10.793   2.130  72.240  1.00  0.00     0.000 HD 
HETATM    4  H2  UNL     1     -10.143   0.849  73.265  1.00  0.00     0.000 HD 
HETATM    5  O   UNL     1      -7.760   1.469  72.844  1.00  0.00    -0.032 OA 
ENDROOT
BRANCH   2   6
HETATM    6  C   UNL     1      -8.629   3.174  71.453  1.00  0.00    -0.068 A  
HETATM    7  C   UNL     1      -9.357   4.347  71.400  1.00  0.00    -0.206 A  
HETATM    8  C   UNL     1      -8.820   5.116  70.341  1.00  0.00    -0.148 A  
HETATM    9  C   UNL     1      -9.081   6.384  69.791  1.00  0.00    -0.141 A  
HETATM   10  C   UNL     1      -8.340   6.860  68.692  1.00  0.00    -0.121 A  
HETATM   11  C   UNL     1      -7.338   6.018  68.173  1.00  0.00    -0.085 A  
HETATM   12  O   UNL     1      -7.684   3.170  70.456  1.00  0.00    -0.043 OA 
HETATM   13  C   UNL     1      -7.808   4.349  69.787  1.00  0.00    -0.057 A  
HETATM   14  C   UNL     1      -7.042   4.752  68.704  1.00  0.00    -0.057 A  
BRANCH  10  15
HETATM   15  N   UNL     1      -8.610   8.091  68.130  1.00  0.00    -0.126 NA 
HETATM   16  C   UNL     1      -7.569   9.111  67.928  1.00  0.00    -0.085 C  
HETATM   17  N   UNL     1      -9.012  10.231  66.156  1.00  0.00    -0.151 NA 
HETATM   18  C   UNL     1      -7.673   9.684  66.498  1.00  0.00    -0.098 C  
HETATM   19  C   UNL     1      -9.979   8.513  67.788  1.00  0.00    -0.190 C  
HETATM   20  C   UNL     1     -10.004   9.149  66.376  1.00  0.00    -0.288 C  
BRANCH  17  21
HETATM   21  C   UNL     1      -9.352  11.422  66.952  1.00  0.00    -0.181 C  
BRANCH  21  22
HETATM   22  C   UNL     1     -10.736  11.995  66.618  1.00  0.00    -0.280 C  
BRANCH  22  23
HETATM   23  C   UNL     1     -11.788  11.738  67.700  1.00  0.00    -0.241 C  
BRANCH  23  24
HETATM   24  C   UNL     1     -11.176  11.769  69.099  1.00  0.00    -0.324 C  
BRANCH  24  25
HETATM   25  C   UNL     1     -11.732  10.711  69.987  1.00  0.00    -0.405 A  
HETATM   26  C   UNL     1     -13.065  10.380  70.131  1.00  0.00     0.152 A  
HETATM   27  N   UNL     1     -13.155   9.379  71.057  1.00  0.00    -0.543 NA 
HETATM   28  H   UNL     1     -14.026   8.943  71.359  1.00  0.00     0.000 HD 
HETATM   29  C   UNL     1     -11.906   9.045  71.524  1.00  0.00    -0.345 A  
HETATM   30  C   UNL     1     -10.990   9.858  70.864  1.00  0.00    -0.392 A  
HETATM   31  C   UNL     1      -9.614   9.710  71.156  1.00  0.00     0.123 A  
HETATM   32  C   UNL     1      -9.211   8.765  72.108  1.00  0.00    -0.248 A  
HETATM   33  C   UNL     1     -10.158   7.969  72.757  1.00  0.00    -0.378 A  
HETATM   34  C   UNL     1      -7.816   8.617  72.417  1.00  0.00     0.022 C  
HETATM   35  N   UNL     1      -6.691   8.494  72.675  1.00  0.00    -0.178 NA 
HETATM   36  C   UNL     1     -11.524   8.092  72.476  1.00  0.00    -0.470 A  
ENDBRANCH  24  25
ENDBRANCH  23  24
ENDBRANCH  22  23
ENDBRANCH  21  22
ENDBRANCH  17  21
ENDBRANCH  10  15
ENDBRANCH   2   6
TORSDOF 7
ENDMDL
MODEL      192
REMARK 921   NORMALIZED FREE ENERGY PREDICTED BY IDOCK:   -4.43 KCAL/MOL
REMARK 922        TOTAL FREE ENERGY PREDICTED BY IDOCK:   -7.52 KCAL/MOL
REMARK 923 INTER-LIGAND FREE ENERGY PREDICTED BY IDOCK:   -5.69 KCAL/MOL
REMARK 924 INTRA-LIGAND FREE ENERGY PREDICTED BY IDOCK:   -1.83 KCAL/MOL
REMARK 927      BINDING AFFINITY PREDICTED BY RF-SCORE:    0.00 PKD
ROOT
HETATM    1  N   UNL     1     -12.411  15.043  68.431  1.00  0.00    -0.544 N  
HETATM    2  C   UNL     1     -12.275  14.030  69.336  1.00  0.00    -0.292 C  
HETATM    3  H1  UNL     1     -12.110  14.912  67.465  1.00  0.00     0.000 HD 
HETATM    4  H2  UNL     1     -12.814  15.934  68.722  1.00  0.00     0.000 HD 
HETATM    5  O   UNL     1     -12.636  14.187  70.498  1.00  0.00    -0.333 OA 
ENDROOT
BRANCH   2   6
HETATM    6  C   UNL     1     -11.713  12.809  68.811  1.00  0.00    -0.323 A  
HETATM    7  C   UNL     1     -11.440  11.607  69.435  1.00  0.00    -0.372 A  
HETATM    8  C   UNL     1     -10.936  10.734  68.442  1.00  0.00    -0.299 A  
HETATM    9  C   UNL     1     -10.504   9.396  68.410  1.00  0.00    -0.256 A  
HETATM   10  C   UNL     1     -10.035   8.818  67.214  1.00  0.00    -0.220 A  
HETATM   11  C   UNL     1     -10.017   9.632  66.066  1.00  0.00    -0.344 A  
HETATM   12  O   UNL     1     -11.374  12.728  67.483  1.00  0.00    -0.276 OA 
HETATM   13  C   UNL     1     -10.903  11.469  67.268  1.00  0.00    -0.256 A  
HETATM   14  C   UNL     1     -10.451  10.967  66.058  1.00  0.00    -0.287 A  
BRANCH  10  15
HETATM   15  N   UNL     1      -9.584   7.514  67.182  1.00  0.00    -0.151 NA 
HETATM   16  C   UNL     1      -9.852   6.559  68.267  1.00  0.00    -0.132 C  
HETATM   17  N   UNL     1      -9.432   4.625  66.669  1.00  0.00    -0.151 NA 
HETATM   18  C   UNL     1     -10.348   5.222  67.674  1.00  0.00    -0.146 C  
HETATM   19  C   UNL     1      -8.711   7.014  66.105  1.00  0.00    -0.145 C  
HETATM   20  C   UNL     1      -9.215   5.638  65.606  1.00  0.00    -0.055 C  
BRANCH  17  21
HETATM   21  C   UNL     1      -8.151   4.202  67.257  1.00  0.00    -0.099 C  
BRANCH  21  22
HETATM   22  C   UNL     1      -8.227   2.831  67.946  1.00  0.00    -0.084 C  
BRANCH  22  23
HETATM   23  C   UNL     1      -7.557   2.794  69.321  1.00  0.00    -0.043 C  
BRANCH  23  24
HETATM   24  C   UNL     1      -6.553   3.933  69.490  1.00  0.00    -0.034 C  
BRANCH  24  25
HETATM   25  C   UNL     1      -6.966   4.903  70.542  1.00  0.00    -0.044 A  
HETATM   26  C   UNL     1      -7.338   4.598  71.837  1.00  0.00    -0.070 A  
HETATM   27  N   UNL     1      -7.667   5.765  72.469  1.00  0.00    -0.101 NA 
HETATM   28  H   UNL     1      -7.980   5.834  73.437  1.00  0.00     0.000 HD 
HETATM   29  C   UNL     1      -7.516   6.831  71.615  1.00  0.00    -0.087 A  
HETATM   30  C   UNL     1      -7.068   6.323  70.399  1.00  0.00    -0.071 A  
HETATM   31  C   UNL     1      -6.820   7.222  69.335  1.00  0.00    -0.050 A  
HETATM   32  C   UNL     1      -7.046   8.591  69.526  1.00  0.00    -0.052 A  
HETATM   33  C   UNL     1      -7.502   9.067  70.757  1.00  0.00    -0.121 A  
HETATM   34  C   UNL     1      -6.806   9.508  68.447  1.00  0.00    -0.062 C  
HETATM   35  N   UNL     1      -6.618  10.255  67.578  1.00  0.00    -0.066 NA 
HETATM   36  C   UNL     1      -7.744   8.196  71.827  1.00  0.00    -0.121 A  
ENDBRANCH  24  25
ENDBRANCH  23  24
ENDBRANCH  22  23
ENDBRANCH  21  22
ENDBRANCH  17  21
ENDBRANCH  10  15
ENDBRANCH   2   6
TORSDOF 7
ENDMDL
MODEL      193
REMARK 921   NORMALIZED FREE ENERGY PREDICTED BY IDOCK:   -4.42 KCAL/MOL
REMARK 922        TOTAL FREE ENERGY PREDICTED BY IDOCK:   -7.51 KCAL/MOL
REMARK 923 INTER-LIGAND FREE ENERGY PREDICTED BY IDOCK:   -6.73 KCAL/MOL
REMARK 924 INTRA-LIGAND FREE ENERGY PREDICTED BY IDOCK:   -0.78 KCAL/MOL
REMARK 927      BINDING AFFINITY PREDICTED BY RF-SCORE:    0.00 PKD
ROOT
HETATM    1  N   UNL     1      -9.252  20.260  66.671  1.00  0.00    -0.543 N  
HETATM    2  C   UNL     1     -10.220  19.721  65.873  1.00  0.00    -0.459 C  
HETATM    3  H1  UNL     1      -8.579  19.655  67.142  1.00  0.00     0.000 HD 
HETATM    4  H2  UNL     1      -9.201  21.271  66.796  1.00  0.00     0.000 HD 
HETATM    5  O   UNL     1     -11.029  20.448  65.306  1.00  0.00    -0.052 OA 
ENDROOT
BRANCH   2   6
HETATM    6  C   UNL     1     -10.184  18.283  65.751  1.00  0.00    -0.097 A  
HETATM    7  C   UNL     1      -9.392  17.349  66.391  1.00  0.00    -0.272 A  
HETATM    8  C   UNL     1      -9.805  16.077  65.931  1.00  0.00    -0.380 A  
HETATM    9  C   UNL     1      -9.434  14.746  66.197  1.00  0.00    -0.324 A  
HETATM   10  C   UNL     1     -10.063  13.676  65.532  1.00  0.00    -0.275 A  
HETATM   11  C   UNL     1     -11.067  13.994  64.598  1.00  0.00    -0.387 A  
HETATM   12  O   UNL     1     -11.049  17.648  64.895  1.00  0.00    -0.854 OA 
HETATM   13  C   UNL     1     -10.812  16.312  65.009  1.00  0.00    -0.320 A  
HETATM   14  C   UNL     1     -11.471  15.309  64.315  1.00  0.00    -0.162 A  
BRANCH  10  15
HETATM   15  N   UNL     1      -9.686  12.369  65.768  1.00  0.00    -0.233 NA 
HETATM   16  C   UNL     1      -9.003  11.956  67.003  1.00  0.00    -0.190 C  
HETATM   17  N   UNL     1      -9.747   9.555  66.610  1.00  0.00    -0.195 NA 
HETATM   18  C   UNL     1      -9.676  10.687  67.570  1.00  0.00    -0.166 C  
HETATM   19  C   UNL     1      -9.845  11.313  64.754  1.00  0.00    -0.266 C  
HETATM   20  C   UNL     1     -10.452  10.042  65.398  1.00  0.00     0.111 C  
BRANCH  17  21
HETATM   21  C   UNL     1      -8.417   9.027  66.265  1.00  0.00    -0.125 C  
BRANCH  21  22
HETATM   22  C   UNL     1      -8.372   8.363  64.881  1.00  0.00    -0.159 C  
BRANCH  22  23
HETATM   23  C   UNL     1      -7.177   7.427  64.685  1.00  0.00    -0.069 C  
BRANCH  23  24
HETATM   24  C   UNL     1      -7.595   5.959  64.743  1.00  0.00    -0.088 C  
BRANCH  24  25
HETATM   25  C   UNL     1      -7.106   5.277  65.974  1.00  0.00    -0.068 A  
HETATM   26  C   UNL     1      -5.970   4.499  66.082  1.00  0.00    -0.023 A  
HETATM   27  N   UNL     1      -5.892   4.039  67.367  1.00  0.00    -0.022 NA 
HETATM   28  H   UNL     1      -5.152   3.437  67.726  1.00  0.00     0.000 HD 
HETATM   29  C   UNL     1      -6.956   4.502  68.106  1.00  0.00    -0.056 A  
HETATM   30  C   UNL     1      -7.731   5.290  67.260  1.00  0.00    -0.096 A  
HETATM   31  C   UNL     1      -8.895   5.904  67.779  1.00  0.00    -0.109 A  
HETATM   32  C   UNL     1      -9.245   5.692  69.119  1.00  0.00    -0.136 A  
HETATM   33  C   UNL     1      -8.447   4.889  69.938  1.00  0.00    -0.088 A  
HETATM   34  C   UNL     1     -10.431   6.303  69.649  1.00  0.00    -0.238 C  
HETATM   35  N   UNL     1     -11.391   6.792  70.085  1.00  0.00    -0.336 NA 
HETATM   36  C   UNL     1      -7.286   4.280  69.447  1.00  0.00    -0.051 A  
ENDBRANCH  24  25
ENDBRANCH  23  24
ENDBRANCH  22  23
ENDBRANCH  21  22
ENDBRANCH  17  21
ENDBRANCH  10  15
ENDBRANCH   2   6
TORSDOF 7
ENDMDL
MODEL      194
REMARK 921   NORMALIZED FREE ENERGY PREDICTED BY IDOCK:   -4.41 KCAL/MOL
REMARK 922        TOTAL FREE ENERGY PREDICTED BY IDOCK:   -7.49 KCAL/MOL
REMARK 923 INTER-LIGAND FREE ENERGY PREDICTED BY IDOCK:   -6.42 KCAL/MOL
REMARK 924 INTRA-LIGAND FREE ENERGY PREDICTED BY IDOCK:   -1.08 KCAL/MOL
REMARK 927      BINDING AFFINITY PREDICTED BY RF-SCORE:    0.00 PKD
ROOT
HETATM    1  N   UNL     1      -6.990  19.891  65.700  1.00  0.00    -0.296 N  
HETATM    2  C   UNL     1      -8.180  19.504  66.246  1.00  0.00    -0.343 C  
HETATM    3  H1  UNL     1      -6.253  19.206  65.536  1.00  0.00     0.000 HD 
HETATM    4  H2  UNL     1      -6.837  20.869  65.454  1.00  0.00     0.000 HD 
HETATM    5  O   UNL     1      -9.067  20.329  66.442  1.00  0.00    -0.293 OA 
ENDROOT
BRANCH   2   6
HETATM    6  C   UNL     1      -8.293  18.095  66.534  1.00  0.00    -0.265 A  
HETATM    7  C   UNL     1      -9.390  17.256  66.486  1.00  0.00    -0.283 A  
HETATM    8  C   UNL     1      -8.931  15.961  66.823  1.00  0.00    -0.280 A  
HETATM    9  C   UNL     1      -9.517  14.687  66.932  1.00  0.00    -0.259 A  
HETATM   10  C   UNL     1      -8.749  13.570  67.313  1.00  0.00    -0.225 A  
HETATM   11  C   UNL     1      -7.383  13.784  67.580  1.00  0.00    -0.182 A  
HETATM   12  O   UNL     1      -7.182  17.383  66.912  1.00  0.00    -0.166 OA 
HETATM   13  C   UNL     1      -7.577  16.092  67.087  1.00  0.00    -0.211 A  
HETATM   14  C   UNL     1      -6.762  15.038  67.471  1.00  0.00    -0.178 A  
BRANCH  10  15
HETATM   15  N   UNL     1      -9.323  12.322  67.449  1.00  0.00    -0.178 NA 
HETATM   16  C   UNL     1      -9.163  11.508  68.663  1.00  0.00    -0.132 C  
HETATM   17  N   UNL     1     -11.249  10.186  68.051  1.00  0.00    -0.240 NA 
HETATM   18  C   UNL     1     -10.536  10.955  69.104  1.00  0.00    -0.221 C  
HETATM   19  C   UNL     1     -10.050  11.670  66.346  1.00  0.00    -0.214 C  
HETATM   20  C   UNL     1     -11.380  11.070  66.866  1.00  0.00    -0.032 C  
BRANCH  17  21
HETATM   21  C   UNL     1     -10.553   8.938  67.699  1.00  0.00    -0.224 C  
BRANCH  21  22
HETATM   22  C   UNL     1     -10.325   8.014  68.905  1.00  0.00    -0.222 C  
BRANCH  22  23
HETATM   23  C   UNL     1     -10.545   6.531  68.596  1.00  0.00    -0.289 C  
BRANCH  23  24
HETATM   24  C   UNL     1     -10.869   6.305  67.120  1.00  0.00    -0.460 C  
BRANCH  24  25
HETATM   25  C   UNL     1      -9.822   5.507  66.424  1.00  0.00    -0.192 A  
HETATM   26  C   UNL     1      -9.686   4.133  66.452  1.00  0.00    -0.208 A  
HETATM   27  N   UNL     1      -8.589   3.800  65.708  1.00  0.00    -0.110 NA 
HETATM   28  H   UNL     1      -8.253   2.849  65.559  1.00  0.00     0.000 HD 
HETATM   29  C   UNL     1      -8.001   4.930  65.190  1.00  0.00    -0.098 A  
HETATM   30  C   UNL     1      -8.759   6.018  65.615  1.00  0.00    -0.142 A  
HETATM   31  C   UNL     1      -8.372   7.317  65.209  1.00  0.00    -0.110 A  
HETATM   32  C   UNL     1      -7.235   7.477  64.408  1.00  0.00    -0.081 A  
HETATM   33  C   UNL     1      -6.493   6.363  64.004  1.00  0.00    -0.030 A  
HETATM   34  C   UNL     1      -6.831   8.793  64.000  1.00  0.00    -0.083 C  
HETATM   35  N   UNL     1      -6.496   9.855  63.670  1.00  0.00    -0.120 NA 
HETATM   36  C   UNL     1      -6.864   5.068  64.387  1.00  0.00    -0.048 A  
ENDBRANCH  24  25
ENDBRANCH  23  24
ENDBRANCH  22  23
ENDBRANCH  21  22
ENDBRANCH  17  21
ENDBRANCH  10  15
ENDBRANCH   2   6
TORSDOF 7
ENDMDL
MODEL      195
REMARK 921   NORMALIZED FREE ENERGY PREDICTED BY IDOCK:   -4.40 KCAL/MOL
REMARK 922        TOTAL FREE ENERGY PREDICTED BY IDOCK:   -7.48 KCAL/MOL
REMARK 923 INTER-LIGAND FREE ENERGY PREDICTED BY IDOCK:   -6.42 KCAL/MOL
REMARK 924 INTRA-LIGAND FREE ENERGY PREDICTED BY IDOCK:   -1.06 KCAL/MOL
REMARK 927      BINDING AFFINITY PREDICTED BY RF-SCORE:    0.00 PKD
ROOT
HETATM    1  N   UNL     1      -8.070  16.147  68.407  1.00  0.00    -0.163 N  
HETATM    2  C   UNL     1      -8.309  15.561  67.197  1.00  0.00    -0.214 C  
HETATM    3  H1  UNL     1      -8.155  15.604  69.266  1.00  0.00     0.000 HD 
HETATM    4  H2  UNL     1      -7.807  17.131  68.452  1.00  0.00     0.000 HD 
HETATM    5  O   UNL     1      -8.207  16.215  66.163  1.00  0.00    -0.299 OA 
ENDROOT
BRANCH   2   6
HETATM    6  C   UNL     1      -8.653  14.161  67.250  1.00  0.00    -0.218 A  
HETATM    7  C   UNL     1      -7.891  13.064  67.605  1.00  0.00    -0.166 A  
HETATM    8  C   UNL     1      -8.738  11.933  67.525  1.00  0.00    -0.163 A  
HETATM    9  C   UNL     1      -8.596  10.556  67.771  1.00  0.00    -0.118 A  
HETATM   10  C   UNL     1      -9.676   9.673  67.573  1.00  0.00    -0.158 A  
HETATM   11  C   UNL     1     -10.888  10.225  67.119  1.00  0.00    -0.278 A  
HETATM   12  O   UNL     1      -9.924  13.756  66.926  1.00  0.00    -0.252 OA 
HETATM   13  C   UNL     1      -9.967  12.406  67.093  1.00  0.00    -0.207 A  
HETATM   14  C   UNL     1     -11.069  11.595  66.873  1.00  0.00    -0.365 A  
BRANCH  10  15
HETATM   15  N   UNL     1      -9.536   8.316  67.787  1.00  0.00    -0.147 NA 
HETATM   16  C   UNL     1      -8.309   7.728  68.345  1.00  0.00    -0.125 C  
HETATM   17  N   UNL     1      -9.621   5.667  69.055  1.00  0.00    -0.129 NA 
HETATM   18  C   UNL     1      -8.673   6.733  69.469  1.00  0.00    -0.133 C  
HETATM   19  C   UNL     1     -10.566   7.348  67.373  1.00  0.00    -0.301 C  
HETATM   20  C   UNL     1     -10.832   6.333  68.512  1.00  0.00    -0.323 C  
BRANCH  17  21
HETATM   21  C   UNL     1      -9.037   4.752  68.061  1.00  0.00    -0.117 C  
BRANCH  21  22
HETATM   22  C   UNL     1      -9.282   3.272  68.387  1.00  0.00    -0.235 C  
BRANCH  22  23
HETATM   23  C   UNL     1      -8.411   2.740  69.529  1.00  0.00    -0.101 C  
BRANCH  23  24
HETATM   24  C   UNL     1      -9.258   2.142  70.652  1.00  0.00    -0.185 C  
BRANCH  24  25
HETATM   25  C   UNL     1      -9.044   2.832  71.954  1.00  0.00    -0.148 A  
HETATM   26  C   UNL     1      -8.165   2.451  72.948  1.00  0.00    -0.059 A  
HETATM   27  N   UNL     1      -8.292   3.331  73.987  1.00  0.00    -0.074 NA 
HETATM   28  H   UNL     1      -7.761   3.286  74.856  1.00  0.00     0.000 HD 
HETATM   29  C   UNL     1      -9.238   4.285  73.693  1.00  0.00    -0.096 A  
HETATM   30  C   UNL     1      -9.722   4.003  72.418  1.00  0.00    -0.210 A  
HETATM   31  C   UNL     1     -10.711   4.849  71.864  1.00  0.00    -0.128 A  
HETATM   32  C   UNL     1     -11.187   5.933  72.613  1.00  0.00    -0.335 A  
HETATM   33  C   UNL     1     -10.683   6.183  73.892  1.00  0.00    -0.137 A  
HETATM   34  C   UNL     1     -12.198   6.790  72.061  1.00  0.00    -0.291 C  
HETATM   35  N   UNL     1     -13.019   7.484  71.622  1.00  0.00    -0.352 NA 
HETATM   36  C   UNL     1      -9.697   5.364  74.456  1.00  0.00    -0.199 A  
ENDBRANCH  24  25
ENDBRANCH  23  24
ENDBRANCH  22  23
ENDBRANCH  21  22
ENDBRANCH  17  21
ENDBRANCH  10  15
ENDBRANCH   2   6
TORSDOF 7
ENDMDL
MODEL      196
REMARK 921   NORMALIZED FREE ENERGY PREDICTED BY IDOCK:   -4.39 KCAL/MOL
REMARK 922        TOTAL FREE ENERGY PREDICTED BY IDOCK:   -7.47 KCAL/MOL
REMARK 923 INTER-LIGAND FREE ENERGY PREDICTED BY IDOCK:   -6.65 KCAL/MOL
REMARK 924 INTRA-LIGAND FREE ENERGY PREDICTED BY IDOCK:   -0.81 KCAL/MOL
REMARK 927      BINDING AFFINITY PREDICTED BY RF-SCORE:    0.00 PKD
ROOT
HETATM    1  N   UNL     1      -7.518  18.571  66.125  1.00  0.00    -0.255 N  
HETATM    2  C   UNL     1      -8.537  17.867  66.700  1.00  0.00    -0.262 C  
HETATM    3  H1  UNL     1      -6.641  18.105  65.890  1.00  0.00     0.000 HD 
HETATM    4  H2  UNL     1      -7.633  19.565  65.930  1.00  0.00     0.000 HD 
HETATM    5  O   UNL     1      -9.592  18.427  66.982  1.00  0.00    -0.282 OA 
ENDROOT
BRANCH   2   6
HETATM    6  C   UNL     1      -8.272  16.464  66.911  1.00  0.00    -0.218 A  
HETATM    7  C   UNL     1      -9.047  15.355  66.635  1.00  0.00    -0.310 A  
HETATM    8  C   UNL     1      -8.285  14.220  67.001  1.00  0.00    -0.116 A  
HETATM    9  C   UNL     1      -8.476  12.827  66.956  1.00  0.00    -0.154 A  
HETATM   10  C   UNL     1      -7.483  11.948  67.429  1.00  0.00    -0.148 A  
HETATM   11  C   UNL     1      -6.305  12.519  67.945  1.00  0.00    -0.103 A  
HETATM   12  O   UNL     1      -7.076  16.069  67.457  1.00  0.00    -0.138 OA 
HETATM   13  C   UNL     1      -7.093  14.709  67.510  1.00  0.00    -0.178 A  
HETATM   14  C   UNL     1      -6.075  13.903  67.996  1.00  0.00    -0.142 A  
BRANCH  10  15
HETATM   15  N   UNL     1      -7.675  10.581  67.413  1.00  0.00    -0.101 NA 
HETATM   16  C   UNL     1      -7.881   9.799  68.641  1.00  0.00    -0.081 C  
HETATM   17  N   UNL     1      -8.966   7.945  67.278  1.00  0.00    -0.126 NA 
HETATM   18  C   UNL     1      -9.080   8.844  68.455  1.00  0.00    -0.137 C  
HETATM   19  C   UNL     1      -7.583   9.792  66.172  1.00  0.00    -0.101 C  
HETATM   20  C   UNL     1      -8.769   8.800  66.081  1.00  0.00    -0.160 C  
BRANCH  17  21
HETATM   21  C   UNL     1      -7.867   6.976  67.415  1.00  0.00    -0.111 C  
BRANCH  21  22
HETATM   22  C   UNL     1      -8.253   5.737  68.235  1.00  0.00    -0.108 C  
BRANCH  22  23
HETATM   23  C   UNL     1      -9.436   4.958  67.654  1.00  0.00    -0.166 C  
BRANCH  23  24
HETATM   24  C   UNL     1     -10.732   5.255  68.406  1.00  0.00     0.030 C  
BRANCH  24  25
HETATM   25  C   UNL     1     -10.532   5.317  69.881  1.00  0.00    -0.351 A  
HETATM   26  C   UNL     1     -10.005   4.321  70.678  1.00  0.00    -0.148 A  
HETATM   27  N   UNL     1     -10.017   4.763  71.972  1.00  0.00    -0.180 NA 
HETATM   28  H   UNL     1      -9.685   4.226  72.773  1.00  0.00     0.000 HD 
HETATM   29  C   UNL     1     -10.539   6.033  72.039  1.00  0.00    -0.223 A  
HETATM   30  C   UNL     1     -10.864   6.412  70.740  1.00  0.00    -0.321 A  
HETATM   31  C   UNL     1     -11.417   7.696  70.524  1.00  0.00    -0.236 A  
HETATM   32  C   UNL     1     -11.638   8.543  71.618  1.00  0.00    -0.364 A  
HETATM   33  C   UNL     1     -11.306   8.127  72.910  1.00  0.00    -0.301 A  
HETATM   34  C   UNL     1     -12.209   9.843  71.407  1.00  0.00    -0.408 C  
HETATM   35  N   UNL     1     -12.674  10.895  71.244  1.00  0.00    -0.412 NA 
HETATM   36  C   UNL     1     -10.748   6.865  73.145  1.00  0.00    -0.338 A  
ENDBRANCH  24  25
ENDBRANCH  23  24
ENDBRANCH  22  23
ENDBRANCH  21  22
ENDBRANCH  17  21
ENDBRANCH  10  15
ENDBRANCH   2   6
TORSDOF 7
ENDMDL
MODEL      197
REMARK 921   NORMALIZED FREE ENERGY PREDICTED BY IDOCK:   -4.38 KCAL/MOL
REMARK 922        TOTAL FREE ENERGY PREDICTED BY IDOCK:   -7.45 KCAL/MOL
REMARK 923 INTER-LIGAND FREE ENERGY PREDICTED BY IDOCK:   -6.15 KCAL/MOL
REMARK 924 INTRA-LIGAND FREE ENERGY PREDICTED BY IDOCK:   -1.30 KCAL/MOL
REMARK 927      BINDING AFFINITY PREDICTED BY RF-SCORE:    0.00 PKD
ROOT
HETATM    1  N   UNL     1      -6.561   3.276  65.122  1.00  0.00    -0.039 N  
HETATM    2  C   UNL     1      -7.011   4.090  66.121  1.00  0.00    -0.062 C  
HETATM    3  H1  UNL     1      -6.609   3.582  64.150  1.00  0.00     0.000 HD 
HETATM    4  H2  UNL     1      -6.175   2.359  65.347  1.00  0.00     0.000 HD 
HETATM    5  O   UNL     1      -6.953   3.722  67.291  1.00  0.00    -0.053 OA 
ENDROOT
BRANCH   2   6
HETATM    6  C   UNL     1      -7.516   5.371  65.689  1.00  0.00    -0.081 A  
HETATM    7  C   UNL     1      -8.269   6.312  66.365  1.00  0.00    -0.114 A  
HETATM    8  C   UNL     1      -8.447   7.405  65.485  1.00  0.00    -0.126 A  
HETATM    9  C   UNL     1      -9.078   8.659  65.560  1.00  0.00    -0.190 A  
HETATM   10  C   UNL     1      -9.078   9.534  64.456  1.00  0.00    -0.197 A  
HETATM   11  C   UNL     1      -8.427   9.099  63.286  1.00  0.00    -0.197 A  
HETATM   12  O   UNL     1      -7.244   5.820  64.421  1.00  0.00    -0.054 OA 
HETATM   13  C   UNL     1      -7.813   7.051  64.304  1.00  0.00    -0.111 A  
HETATM   14  C   UNL     1      -7.777   7.859  63.178  1.00  0.00    -0.136 A  
BRANCH  10  15
HETATM   15  N   UNL     1      -9.719  10.755  64.513  1.00  0.00    -0.267 NA 
HETATM   16  C   UNL     1      -9.849  11.634  63.341  1.00  0.00    -0.404 C  
HETATM   17  N   UNL     1     -11.814  12.814  64.445  1.00  0.00    -0.360 NA 
HETATM   18  C   UNL     1     -11.305  12.135  63.226  1.00  0.00    -0.327 C  
HETATM   19  C   UNL     1     -10.226  11.314  65.778  1.00  0.00    -0.251 C  
HETATM   20  C   UNL     1     -11.658  11.869  65.579  1.00  0.00    -0.218 C  
BRANCH  17  21
HETATM   21  C   UNL     1     -11.113  14.078  64.717  1.00  0.00    -0.387 C  
BRANCH  21  22
HETATM   22  C   UNL     1     -11.365  14.615  66.134  1.00  0.00    -0.350 C  
BRANCH  22  23
HETATM   23  C   UNL     1     -10.595  15.899  66.453  1.00  0.00    -0.298 C  
BRANCH  23  24
HETATM   24  C   UNL     1      -9.869  15.803  67.793  1.00  0.00    -0.224 C  
BRANCH  24  25
HETATM   25  C   UNL     1      -8.642  14.962  67.715  1.00  0.00    -0.171 A  
HETATM   26  C   UNL     1      -7.410  15.354  67.230  1.00  0.00    -0.204 A  
HETATM   27  N   UNL     1      -6.563  14.284  67.309  1.00  0.00    -0.394 NA 
HETATM   28  H   UNL     1      -5.587  14.291  67.016  1.00  0.00     0.000 HD 
HETATM   29  C   UNL     1      -7.216  13.195  67.839  1.00  0.00    -0.133 A  
HETATM   30  C   UNL     1      -8.521  13.593  68.113  1.00  0.00    -0.175 A  
HETATM   31  C   UNL     1      -9.414  12.654  68.680  1.00  0.00    -0.002 A  
HETATM   32  C   UNL     1      -8.969  11.350  68.937  1.00  0.00    -0.016 A  
HETATM   33  C   UNL     1      -7.653  10.983  68.644  1.00  0.00    -0.124 A  
HETATM   34  C   UNL     1      -9.873  10.389  69.503  1.00  0.00    -0.184 C  
HETATM   35  N   UNL     1     -10.599   9.605  69.958  1.00  0.00    -0.240 NA 
HETATM   36  C   UNL     1      -6.751  11.900  68.091  1.00  0.00    -0.062 A  
ENDBRANCH  24  25
ENDBRANCH  23  24
ENDBRANCH  22  23
ENDBRANCH  21  22
ENDBRANCH  17  21
ENDBRANCH  10  15
ENDBRANCH   2   6
TORSDOF 7
ENDMDL
MODEL      198
REMARK 921   NORMALIZED FREE ENERGY PREDICTED BY IDOCK:   -4.38 KCAL/MOL
REMARK 922        TOTAL FREE ENERGY PREDICTED BY IDOCK:   -7.44 KCAL/MOL
REMARK 923 INTER-LIGAND FREE ENERGY PREDICTED BY IDOCK:   -7.10 KCAL/MOL
REMARK 924 INTRA-LIGAND FREE ENERGY PREDICTED BY IDOCK:   -0.34 KCAL/MOL
REMARK 927      BINDING AFFINITY PREDICTED BY RF-SCORE:    0.00 PKD
ROOT
HETATM    1  N   UNL     1      -9.746  20.411  66.316  1.00  0.00    -0.654 N  
HETATM    2  C   UNL     1      -9.785  19.532  67.360  1.00  0.00    -0.341 C  
HETATM    3  H1  UNL     1      -9.733  20.067  65.356  1.00  0.00     0.000 HD 
HETATM    4  H2  UNL     1      -9.729  21.414  66.497  1.00  0.00     0.000 HD 
HETATM    5  O   UNL     1      -9.801  19.945  68.516  1.00  0.00    -0.382 OA 
ENDROOT
BRANCH   2   6
HETATM    6  C   UNL     1      -9.827  18.138  66.988  1.00  0.00    -0.322 A  
HETATM    7  C   UNL     1      -9.231  17.037  67.571  1.00  0.00    -0.231 A  
HETATM    8  C   UNL     1      -9.640  15.906  66.826  1.00  0.00    -0.252 A  
HETATM    9  C   UNL     1      -9.417  14.519  66.904  1.00  0.00    -0.263 A  
HETATM   10  C   UNL     1      -9.986  13.642  65.961  1.00  0.00    -0.302 A  
HETATM   11  C   UNL     1     -10.778  14.211  64.945  1.00  0.00    -0.444 A  
HETATM   12  O   UNL     1     -10.563  17.744  65.898  1.00  0.00    -0.421 OA 
HETATM   13  C   UNL     1     -10.443  16.391  65.806  1.00  0.00    -0.354 A  
HETATM   14  C   UNL     1     -11.032  15.587  64.841  1.00  0.00    -0.452 A  
BRANCH  10  15
HETATM   15  N   UNL     1      -9.749  12.284  66.016  1.00  0.00    -0.245 NA 
HETATM   16  C   UNL     1     -10.532  11.314  65.234  1.00  0.00    -0.282 C  
HETATM   17  N   UNL     1      -8.649   9.618  65.456  1.00  0.00    -0.139 NA 
HETATM   18  C   UNL     1      -9.579  10.320  64.535  1.00  0.00    -0.316 C  
HETATM   19  C   UNL     1      -8.765  11.698  66.942  1.00  0.00    -0.185 C  
HETATM   20  C   UNL     1      -7.892  10.654  66.202  1.00  0.00    -0.152 C  
BRANCH  17  21
HETATM   21  C   UNL     1      -9.352   8.715  66.383  1.00  0.00    -0.211 C  
BRANCH  21  22
HETATM   22  C   UNL     1      -8.400   7.925  67.292  1.00  0.00    -0.122 C  
BRANCH  22  23
HETATM   23  C   UNL     1      -6.951   7.902  66.798  1.00  0.00    -0.073 C  
BRANCH  23  24
HETATM   24  C   UNL     1      -6.323   6.519  66.956  1.00  0.00    -0.041 C  
BRANCH  24  25
HETATM   25  C   UNL     1      -6.965   5.500  66.080  1.00  0.00    -0.066 A  
HETATM   26  C   UNL     1      -7.007   5.515  64.700  1.00  0.00    -0.049 A  
HETATM   27  N   UNL     1      -7.710   4.419  64.284  1.00  0.00    -0.079 NA 
HETATM   28  H   UNL     1      -7.896   4.182  63.310  1.00  0.00     0.000 HD 
HETATM   29  C   UNL     1      -8.130   3.682  65.366  1.00  0.00    -0.097 A  
HETATM   30  C   UNL     1      -7.670   4.331  66.508  1.00  0.00    -0.094 A  
HETATM   31  C   UNL     1      -7.960   3.769  67.774  1.00  0.00    -0.085 A  
HETATM   32  C   UNL     1      -8.711   2.589  67.846  1.00  0.00    -0.138 A  
HETATM   33  C   UNL     1      -9.163   1.967  66.679  1.00  0.00     0.003 A  
HETATM   34  C   UNL     1      -9.018   2.019  69.128  1.00  0.00    -0.105 C  
HETATM   35  N   UNL     1      -9.273   1.553  70.161  1.00  0.00    -0.084 NA 
HETATM   36  C   UNL     1      -8.879   2.501  65.416  1.00  0.00    -0.126 A  
ENDBRANCH  24  25
ENDBRANCH  23  24
ENDBRANCH  22  23
ENDBRANCH  21  22
ENDBRANCH  17  21
ENDBRANCH  10  15
ENDBRANCH   2   6
TORSDOF 7
ENDMDL
MODEL      199
REMARK 921   NORMALIZED FREE ENERGY PREDICTED BY IDOCK:   -4.37 KCAL/MOL
REMARK 922        TOTAL FREE ENERGY PREDICTED BY IDOCK:   -7.43 KCAL/MOL
REMARK 923 INTER-LIGAND FREE ENERGY PREDICTED BY IDOCK:   -7.13 KCAL/MOL
REMARK 924 INTRA-LIGAND FREE ENERGY PREDICTED BY IDOCK:   -0.30 KCAL/MOL
REMARK 927      BINDING AFFINITY PREDICTED BY RF-SCORE:    0.00 PKD
ROOT
HETATM    1  N   UNL     1     -13.899   6.769  72.271  1.00  0.00    -0.477 N  
HETATM    2  C   UNL     1     -12.615   6.304  72.235  1.00  0.00     0.053 C  
HETATM    3  H1  UNL     1     -14.159   7.598  71.737  1.00  0.00     0.000 HD 
HETATM    4  H2  UNL     1     -14.599   6.286  72.834  1.00  0.00     0.000 HD 
HETATM    5  O   UNL     1     -12.302   5.307  72.878  1.00  0.00    -0.053 OA 
ENDROOT
BRANCH   2   6
HETATM    6  C   UNL     1     -11.715   7.051  71.391  1.00  0.00    -0.306 A  
HETATM    7  C   UNL     1     -10.981   8.192  71.652  1.00  0.00    -0.306 A  
HETATM    8  C   UNL     1     -10.231   8.474  70.486  1.00  0.00    -0.220 A  
HETATM    9  C   UNL     1      -9.294   9.452  70.109  1.00  0.00    -0.276 A  
HETATM   10  C   UNL     1      -8.726   9.449  68.820  1.00  0.00    -0.131 A  
HETATM   11  C   UNL     1      -9.138   8.435  67.934  1.00  0.00    -0.137 A  
HETATM   12  O   UNL     1     -11.475   6.630  70.106  1.00  0.00    -0.350 OA 
HETATM   13  C   UNL     1     -10.577   7.498  69.565  1.00  0.00    -0.236 A  
HETATM   14  C   UNL     1     -10.062   7.437  68.279  1.00  0.00    -0.201 A  
BRANCH  10  15
HETATM   15  N   UNL     1      -7.826  10.422  68.434  1.00  0.00    -0.100 NA 
HETATM   16  C   UNL     1      -7.819  11.769  69.026  1.00  0.00     0.065 C  
HETATM   17  N   UNL     1      -5.407  12.083  68.278  1.00  0.00    -0.050 NA 
HETATM   18  C   UNL     1      -6.374  12.163  69.404  1.00  0.00    -0.116 C  
HETATM   19  C   UNL     1      -6.877  10.216  67.327  1.00  0.00    -0.078 C  
HETATM   20  C   UNL     1      -5.465  10.701  67.739  1.00  0.00    -0.043 C  
BRANCH  17  21
HETATM   21  C   UNL     1      -5.691  13.068  67.223  1.00  0.00     0.123 C  
BRANCH  21  22
HETATM   22  C   UNL     1      -6.694  14.146  67.658  1.00  0.00    -0.188 C  
BRANCH  22  23
HETATM   23  C   UNL     1      -6.054  15.511  67.927  1.00  0.00    -0.163 C  
BRANCH  23  24
HETATM   24  C   UNL     1      -6.729  16.230  69.094  1.00  0.00    -0.196 C  
BRANCH  24  25
HETATM   25  C   UNL     1      -7.164  17.609  68.737  1.00  0.00    -0.268 A  
HETATM   26  C   UNL     1      -6.695  18.784  69.290  1.00  0.00    -0.262 A  
HETATM   27  N   UNL     1      -7.366  19.824  68.709  1.00  0.00    -0.328 NA 
HETATM   28  H   UNL     1      -7.220  20.808  68.931  1.00  0.00     0.000 HD 
HETATM   29  C   UNL     1      -8.266  19.354  67.782  1.00  0.00    -0.289 A  
HETATM   30  C   UNL     1      -8.156  17.966  67.770  1.00  0.00    -0.231 A  
HETATM   31  C   UNL     1      -8.975  17.226  66.885  1.00  0.00    -0.256 A  
HETATM   32  C   UNL     1      -9.882  17.902  66.060  1.00  0.00    -0.180 A  
HETATM   33  C   UNL     1      -9.971  19.296  66.101  1.00  0.00    -0.466 A  
HETATM   34  C   UNL     1     -10.723  17.156  65.167  1.00  0.00     0.004 C  
HETATM   35  N   UNL     1     -11.410  16.559  64.445  1.00  0.00    -0.976 NA 
HETATM   36  C   UNL     1      -9.163  20.048  66.962  1.00  0.00    -0.491 A  
ENDBRANCH  24  25
ENDBRANCH  23  24
ENDBRANCH  22  23
ENDBRANCH  21  22
ENDBRANCH  17  21
ENDBRANCH  10  15
ENDBRANCH   2   6
TORSDOF 7
ENDMDL
MODEL      200
REMARK 921   NORMALIZED FREE ENERGY PREDICTED BY IDOCK:   -4.36 KCAL/MOL
REMARK 922        TOTAL FREE ENERGY PREDICTED BY IDOCK:   -7.43 KCAL/MOL
REMARK 923 INTER-LIGAND FREE ENERGY PREDICTED BY IDOCK:   -6.66 KCAL/MOL
REMARK 924 INTRA-LIGAND FREE ENERGY PREDICTED BY IDOCK:   -0.76 KCAL/MOL
REMARK 927      BINDING AFFINITY PREDICTED BY RF-SCORE:    0.00 PKD
ROOT
HETATM    1  N   UNL     1     -10.794   2.490  63.614  1.00  0.00    -0.422 N  
HETATM    2  C   UNL     1      -9.684   2.564  64.405  1.00  0.00    -0.094 C  
HETATM    3  H1  UNL     1     -11.417   3.293  63.525  1.00  0.00     0.000 HD 
HETATM    4  H2  UNL     1     -11.002   1.628  63.109  1.00  0.00     0.000 HD 
HETATM    5  O   UNL     1      -8.935   1.598  64.511  1.00  0.00    -0.097 OA 
ENDROOT
BRANCH   2   6
HETATM    6  C   UNL     1      -9.477   3.836  65.053  1.00  0.00    -0.167 A  
HETATM    7  C   UNL     1      -8.849   4.981  64.601  1.00  0.00    -0.114 A  
HETATM    8  C   UNL     1      -8.972   5.949  65.626  1.00  0.00    -0.099 A  
HETATM    9  C   UNL     1      -8.584   7.291  65.789  1.00  0.00    -0.143 A  
HETATM   10  C   UNL     1      -8.863   7.983  66.984  1.00  0.00    -0.133 A  
HETATM   11  C   UNL     1      -9.538   7.277  67.998  1.00  0.00    -0.148 A  
HETATM   12  O   UNL     1      -9.958   4.043  66.323  1.00  0.00    -0.195 OA 
HETATM   13  C   UNL     1      -9.646   5.323  66.663  1.00  0.00    -0.152 A  
HETATM   14  C   UNL     1      -9.950   5.941  67.866  1.00  0.00    -0.157 A  
BRANCH  10  15
HETATM   15  N   UNL     1      -8.462   9.291  67.161  1.00  0.00    -0.123 NA 
HETATM   16  C   UNL     1      -8.957  10.126  68.265  1.00  0.00    -0.120 C  
HETATM   17  N   UNL     1      -6.936  11.651  68.019  1.00  0.00    -0.074 NA 
HETATM   18  C   UNL     1      -7.773  10.846  68.946  1.00  0.00    -0.135 C  
HETATM   19  C   UNL     1      -7.588   9.980  66.194  1.00  0.00    -0.109 C  
HETATM   20  C   UNL     1      -6.467  10.745  66.940  1.00  0.00    -0.090 C  
BRANCH  17  21
HETATM   21  C   UNL     1      -7.665  12.799  67.458  1.00  0.00    -0.168 C  
BRANCH  21  22
HETATM   22  C   UNL     1      -8.124  13.803  68.525  1.00  0.00    -0.128 C  
BRANCH  22  23
HETATM   23  C   UNL     1      -9.370  14.598  68.130  1.00  0.00    -0.197 C  
BRANCH  23  24
HETATM   24  C   UNL     1      -9.312  16.033  68.651  1.00  0.00    -0.214 C  
BRANCH  24  25
HETATM   25  C   UNL     1      -8.614  16.952  67.710  1.00  0.00    -0.208 A  
HETATM   26  C   UNL     1      -8.644  16.889  66.331  1.00  0.00    -0.293 A  
HETATM   27  N   UNL     1      -7.854  17.893  65.843  1.00  0.00    -0.545 NA 
HETATM   28  H   UNL     1      -7.693  18.079  64.854  1.00  0.00     0.000 HD 
HETATM   29  C   UNL     1      -7.307  18.617  66.877  1.00  0.00    -0.208 A  
HETATM   30  C   UNL     1      -7.774  18.055  68.062  1.00  0.00    -0.250 A  
HETATM   31  C   UNL     1      -7.365  18.623  69.291  1.00  0.00    -0.116 A  
HETATM   32  C   UNL     1      -6.495  19.721  69.286  1.00  0.00    -0.374 A  
HETATM   33  C   UNL     1      -6.041  20.256  68.078  1.00  0.00    -0.281 A  
HETATM   34  C   UNL     1      -6.068  20.296  70.530  1.00  0.00    -0.308 C  
HETATM   35  N   UNL     1      -5.716  20.765  71.533  1.00  0.00    -0.597 NA 
HETATM   36  C   UNL     1      -6.441  19.715  66.850  1.00  0.00    -0.202 A  
ENDBRANCH  24  25
ENDBRANCH  23  24
ENDBRANCH  22  23
ENDBRANCH  21  22
ENDBRANCH  17  21
ENDBRANCH  10  15
ENDBRANCH   2   6
TORSDOF 7
ENDMDL
MODEL      201
REMARK 921   NORMALIZED FREE ENERGY PREDICTED BY IDOCK:   -4.36 KCAL/MOL
REMARK 922        TOTAL FREE ENERGY PREDICTED BY IDOCK:   -7.41 KCAL/MOL
REMARK 923 INTER-LIGAND FREE ENERGY PREDICTED BY IDOCK:   -6.81 KCAL/MOL
REMARK 924 INTRA-LIGAND FREE ENERGY PREDICTED BY IDOCK:   -0.61 KCAL/MOL
REMARK 927      BINDING AFFINITY PREDICTED BY RF-SCORE:    0.00 PKD
ROOT
HETATM    1  N   UNL     1      -8.871   3.365  74.313  1.00  0.00    -0.087 N  
HETATM    2  C   UNL     1      -9.185   3.057  73.021  1.00  0.00    -0.090 C  
HETATM    3  H1  UNL     1      -8.771   4.339  74.599  1.00  0.00     0.000 HD 
HETATM    4  H2  UNL     1      -8.736   2.620  74.996  1.00  0.00     0.000 HD 
HETATM    5  O   UNL     1      -9.306   1.885  72.677  1.00  0.00    -0.072 OA 
ENDROOT
BRANCH   2   6
HETATM    6  C   UNL     1      -9.374   4.190  72.148  1.00  0.00    -0.127 A  
HETATM    7  C   UNL     1      -8.477   5.148  71.716  1.00  0.00    -0.125 A  
HETATM    8  C   UNL     1      -9.181   6.003  70.836  1.00  0.00    -0.165 A  
HETATM    9  C   UNL     1      -8.855   7.129  70.059  1.00  0.00    -0.142 A  
HETATM   10  C   UNL     1      -9.834   7.772  69.276  1.00  0.00    -0.173 A  
HETATM   11  C   UNL     1     -11.139   7.244  69.308  1.00  0.00    -0.056 A  
HETATM   12  O   UNL     1     -10.609   4.431  71.597  1.00  0.00    -0.034 OA 
HETATM   13  C   UNL     1     -10.484   5.531  70.806  1.00  0.00    -0.260 A  
HETATM   14  C   UNL     1     -11.497   6.116  70.063  1.00  0.00    -0.369 A  
BRANCH  10  15
HETATM   15  N   UNL     1      -9.528   8.894  68.532  1.00  0.00    -0.147 NA 
HETATM   16  C   UNL     1      -8.534   9.884  68.971  1.00  0.00    -0.136 C  
HETATM   17  N   UNL     1      -8.273  10.685  66.570  1.00  0.00    -0.133 NA 
HETATM   18  C   UNL     1      -7.583  10.221  67.802  1.00  0.00    -0.089 C  
HETATM   19  C   UNL     1     -10.252   9.235  67.295  1.00  0.00    -0.252 C  
HETATM   20  C   UNL     1      -9.250   9.637  66.185  1.00  0.00    -0.174 C  
BRANCH  17  21
HETATM   21  C   UNL     1      -8.943  11.982  66.758  1.00  0.00    -0.198 C  
BRANCH  21  22
HETATM   22  C   UNL     1      -8.138  12.957  67.630  1.00  0.00    -0.167 C  
BRANCH  22  23
HETATM   23  C   UNL     1      -8.916  14.213  68.030  1.00  0.00    -0.183 C  
BRANCH  23  24
HETATM   24  C   UNL     1     -10.321  14.220  67.431  1.00  0.00    -0.259 C  
BRANCH  24  25
HETATM   25  C   UNL     1     -10.522  15.337  66.467  1.00  0.00    -0.299 A  
HETATM   26  C   UNL     1     -10.787  15.216  65.117  1.00  0.00    -0.422 A  
HETATM   27  N   UNL     1     -10.876  16.474  64.588  1.00  0.00    -0.902 NA 
HETATM   28  H   UNL     1     -11.064  16.681  63.607  1.00  0.00     0.000 HD 
HETATM   29  C   UNL     1     -10.678  17.420  65.566  1.00  0.00    -0.078 A  
HETATM   30  C   UNL     1     -10.462  16.736  66.760  1.00  0.00    -0.258 A  
HETATM   31  C   UNL     1     -10.238  17.483  67.940  1.00  0.00    -0.350 A  
HETATM   32  C   UNL     1     -10.223  18.882  67.877  1.00  0.00    -0.459 A  
HETATM   33  C   UNL     1     -10.438  19.536  66.661  1.00  0.00    -0.593 A  
HETATM   34  C   UNL     1      -9.986  19.645  69.070  1.00  0.00    -0.399 C  
HETATM   35  N   UNL     1      -9.792  20.270  70.029  1.00  0.00     0.408 NA 
HETATM   36  C   UNL     1     -10.671  18.816  65.482  1.00  0.00    -0.016 A  
ENDBRANCH  24  25
ENDBRANCH  23  24
ENDBRANCH  22  23
ENDBRANCH  21  22
ENDBRANCH  17  21
ENDBRANCH  10  15
ENDBRANCH   2   6
TORSDOF 7
ENDMDL
MODEL      202
REMARK 921   NORMALIZED FREE ENERGY PREDICTED BY IDOCK:   -4.35 KCAL/MOL
REMARK 922        TOTAL FREE ENERGY PREDICTED BY IDOCK:   -7.40 KCAL/MOL
REMARK 923 INTER-LIGAND FREE ENERGY PREDICTED BY IDOCK:   -6.43 KCAL/MOL
REMARK 924 INTRA-LIGAND FREE ENERGY PREDICTED BY IDOCK:   -0.97 KCAL/MOL
REMARK 927      BINDING AFFINITY PREDICTED BY RF-SCORE:    0.00 PKD
ROOT
HETATM    1  N   UNL     1     -12.535  15.258  63.803  1.00  0.00    -0.948 N  
HETATM    2  C   UNL     1     -12.365  13.905  63.733  1.00  0.00    -0.207 C  
HETATM    3  H1  UNL     1     -12.273  15.765  64.648  1.00  0.00     0.000 HD 
HETATM    4  H2  UNL     1     -12.926  15.763  63.007  1.00  0.00     0.000 HD 
HETATM    5  O   UNL     1     -12.680  13.294  62.716  1.00  0.00    -0.317 OA 
ENDROOT
BRANCH   2   6
HETATM    6  C   UNL     1     -11.786  13.298  64.906  1.00  0.00    -0.342 A  
HETATM    7  C   UNL     1     -12.164  12.172  65.612  1.00  0.00    -0.049 A  
HETATM    8  C   UNL     1     -11.220  12.002  66.652  1.00  0.00    -0.380 A  
HETATM    9  C   UNL     1     -11.020  11.065  67.681  1.00  0.00    -0.332 A  
HETATM   10  C   UNL     1      -9.947  11.203  68.584  1.00  0.00    -0.205 A  
HETATM   11  C   UNL     1      -9.096  12.311  68.413  1.00  0.00    -0.146 A  
HETATM   12  O   UNL     1     -10.666  13.848  65.479  1.00  0.00    -0.284 OA 
HETATM   13  C   UNL     1     -10.331  13.060  66.536  1.00  0.00    -0.274 A  
HETATM   14  C   UNL     1      -9.258  13.260  67.391  1.00  0.00    -0.216 A  
BRANCH  10  15
HETATM   15  N   UNL     1      -9.761  10.303  69.614  1.00  0.00    -0.216 NA 
HETATM   16  C   UNL     1     -10.884   9.702  70.349  1.00  0.00    -0.295 C  
HETATM   17  N   UNL     1      -9.377   7.792  71.090  1.00  0.00    -0.150 NA 
HETATM   18  C   UNL     1     -10.671   8.178  70.471  1.00  0.00    -0.225 C  
HETATM   19  C   UNL     1      -8.422   9.958  70.120  1.00  0.00    -0.111 C  
HETATM   20  C   UNL     1      -8.296   8.424  70.294  1.00  0.00    -0.124 C  
BRANCH  17  21
HETATM   21  C   UNL     1      -9.289   8.192  72.503  1.00  0.00    -0.260 C  
BRANCH  21  22
HETATM   22  C   UNL     1     -10.329   7.497  73.393  1.00  0.00    -0.405 C  
BRANCH  22  23
HETATM   23  C   UNL     1      -9.888   6.121  73.898  1.00  0.00    -0.214 C  
BRANCH  23  24
HETATM   24  C   UNL     1     -10.066   5.045  72.829  1.00  0.00    -0.214 C  
BRANCH  24  25
HETATM   25  C   UNL     1      -8.902   4.118  72.757  1.00  0.00    -0.111 A  
HETATM   26  C   UNL     1      -8.559   3.160  73.691  1.00  0.00    -0.074 A  
HETATM   27  N   UNL     1      -7.416   2.544  73.265  1.00  0.00    -0.041 NA 
HETATM   28  H   UNL     1      -6.938   1.795  73.765  1.00  0.00     0.000 HD 
HETATM   29  C   UNL     1      -7.002   3.077  72.067  1.00  0.00    -0.034 A  
HETATM   30  C   UNL     1      -7.921   4.063  71.717  1.00  0.00    -0.071 A  
HETATM   31  C   UNL     1      -7.732   4.770  70.507  1.00  0.00    -0.058 A  
HETATM   32  C   UNL     1      -6.624   4.475  69.703  1.00  0.00    -0.033 A  
HETATM   33  C   UNL     1      -5.718   3.484  70.088  1.00  0.00    -0.017 A  
HETATM   34  C   UNL     1      -6.421   5.197  68.479  1.00  0.00    -0.040 C  
HETATM   35  N   UNL     1      -6.248   5.779  67.489  1.00  0.00    -0.029 NA 
HETATM   36  C   UNL     1      -5.891   2.764  71.276  1.00  0.00    -0.013 A  
ENDBRANCH  24  25
ENDBRANCH  23  24
ENDBRANCH  22  23
ENDBRANCH  21  22
ENDBRANCH  17  21
ENDBRANCH  10  15
ENDBRANCH   2   6
TORSDOF 7
ENDMDL
MODEL      203
REMARK 921   NORMALIZED FREE ENERGY PREDICTED BY IDOCK:   -4.35 KCAL/MOL
REMARK 922        TOTAL FREE ENERGY PREDICTED BY IDOCK:   -7.40 KCAL/MOL
REMARK 923 INTER-LIGAND FREE ENERGY PREDICTED BY IDOCK:   -6.62 KCAL/MOL
REMARK 924 INTRA-LIGAND FREE ENERGY PREDICTED BY IDOCK:   -0.78 KCAL/MOL
REMARK 927      BINDING AFFINITY PREDICTED BY RF-SCORE:    0.00 PKD
ROOT
HETATM    1  N   UNL     1     -10.098  20.656  65.498  1.00  0.00    -0.283 N  
HETATM    2  C   UNL     1      -9.582  20.131  66.648  1.00  0.00    -0.418 C  
HETATM    3  H1  UNL     1     -10.531  20.047  64.804  1.00  0.00     0.000 HD 
HETATM    4  H2  UNL     1     -10.049  21.661  65.332  1.00  0.00     0.000 HD 
HETATM    5  O   UNL     1      -9.060  20.864  67.482  1.00  0.00    -0.258 OA 
ENDROOT
BRANCH   2   6
HETATM    6  C   UNL     1      -9.724  18.702  66.787  1.00  0.00    -0.329 A  
HETATM    7  C   UNL     1      -8.870  17.677  66.427  1.00  0.00    -0.263 A  
HETATM    8  C   UNL     1      -9.484  16.469  66.834  1.00  0.00    -0.250 A  
HETATM    9  C   UNL     1      -9.142  15.106  66.788  1.00  0.00    -0.282 A  
HETATM   10  C   UNL     1     -10.019  14.124  67.290  1.00  0.00    -0.249 A  
HETATM   11  C   UNL     1     -11.242  14.565  67.832  1.00  0.00    -0.310 A  
HETATM   12  O   UNL     1     -10.852  18.181  67.373  1.00  0.00    -0.374 OA 
HETATM   13  C   UNL     1     -10.699  16.829  67.396  1.00  0.00    -0.244 A  
HETATM   14  C   UNL     1     -11.612  15.917  67.904  1.00  0.00    -0.109 A  
BRANCH  10  15
HETATM   15  N   UNL     1      -9.701  12.783  67.224  1.00  0.00    -0.202 NA 
HETATM   16  C   UNL     1      -9.487  11.962  68.425  1.00  0.00    -0.189 C  
HETATM   17  N   UNL     1      -9.952   9.859  67.071  1.00  0.00    -0.190 NA 
HETATM   18  C   UNL     1     -10.269  10.637  68.297  1.00  0.00    -0.166 C  
HETATM   19  C   UNL     1      -9.451  12.100  65.942  1.00  0.00    -0.179 C  
HETATM   20  C   UNL     1     -10.198  10.745  65.905  1.00  0.00    -0.259 C  
BRANCH  17  21
HETATM   21  C   UNL     1      -8.568   9.360  67.065  1.00  0.00    -0.128 C  
BRANCH  21  22
HETATM   22  C   UNL     1      -8.080   8.918  68.453  1.00  0.00    -0.109 C  
BRANCH  22  23
HETATM   23  C   UNL     1      -7.400   7.547  68.460  1.00  0.00    -0.099 C  
BRANCH  23  24
HETATM   24  C   UNL     1      -8.310   6.469  69.046  1.00  0.00    -0.116 C  
BRANCH  24  25
HETATM   25  C   UNL     1      -9.454   6.143  68.150  1.00  0.00    -0.113 A  
HETATM   26  C   UNL     1     -10.779   6.471  68.363  1.00  0.00    -0.279 A  
HETATM   27  N   UNL     1     -11.512   5.969  67.324  1.00  0.00    -0.345 NA 
HETATM   28  H   UNL     1     -12.522   6.063  67.225  1.00  0.00     0.000 HD 
HETATM   29  C   UNL     1     -10.693   5.318  66.431  1.00  0.00    -0.223 A  
HETATM   30  C   UNL     1      -9.393   5.418  66.919  1.00  0.00    -0.127 A  
HETATM   31  C   UNL     1      -8.341   4.834  66.176  1.00  0.00    -0.111 A  
HETATM   32  C   UNL     1      -8.633   4.159  64.983  1.00  0.00    -0.117 A  
HETATM   33  C   UNL     1      -9.950   4.072  64.526  1.00  0.00    -0.198 A  
HETATM   34  C   UNL     1      -7.570   3.555  64.230  1.00  0.00    -0.076 C  
HETATM   35  N   UNL     1      -6.717   3.061  63.617  1.00  0.00    -0.031 NA 
HETATM   36  C   UNL     1     -11.005   4.652  65.241  1.00  0.00     0.001 A  
ENDBRANCH  24  25
ENDBRANCH  23  24
ENDBRANCH  22  23
ENDBRANCH  21  22
ENDBRANCH  17  21
ENDBRANCH  10  15
ENDBRANCH   2   6
TORSDOF 7
ENDMDL
MODEL      204
REMARK 921   NORMALIZED FREE ENERGY PREDICTED BY IDOCK:   -4.34 KCAL/MOL
REMARK 922        TOTAL FREE ENERGY PREDICTED BY IDOCK:   -7.40 KCAL/MOL
REMARK 923 INTER-LIGAND FREE ENERGY PREDICTED BY IDOCK:   -6.39 KCAL/MOL
REMARK 924 INTRA-LIGAND FREE ENERGY PREDICTED BY IDOCK:   -1.01 KCAL/MOL
REMARK 927      BINDING AFFINITY PREDICTED BY RF-SCORE:    0.00 PKD
ROOT
HETATM    1  N   UNL     1     -10.316  17.460  65.713  1.00  0.00    -0.286 N  
HETATM    2  C   UNL     1     -10.172  17.222  67.050  1.00  0.00    -0.320 C  
HETATM    3  H1  UNL     1     -10.476  16.686  65.068  1.00  0.00     0.000 HD 
HETATM    4  H2  UNL     1     -10.264  18.415  65.358  1.00  0.00     0.000 HD 
HETATM    5  O   UNL     1      -9.980  18.153  67.826  1.00  0.00    -0.300 OA 
ENDROOT
BRANCH   2   6
HETATM    6  C   UNL     1     -10.285  15.838  67.442  1.00  0.00    -0.270 A  
HETATM    7  C   UNL     1      -9.471  14.757  67.159  1.00  0.00    -0.233 A  
HETATM    8  C   UNL     1     -10.022  13.641  67.832  1.00  0.00    -0.244 A  
HETATM    9  C   UNL     1      -9.676  12.286  67.974  1.00  0.00    -0.205 A  
HETATM   10  C   UNL     1     -10.479  11.412  68.734  1.00  0.00    -0.204 A  
HETATM   11  C   UNL     1     -11.631  11.951  69.336  1.00  0.00    -0.388 A  
HETATM   12  O   UNL     1     -11.330  15.435  68.236  1.00  0.00    -0.319 OA 
HETATM   13  C   UNL     1     -11.164  14.104  68.466  1.00  0.00    -0.260 A  
HETATM   14  C   UNL     1     -12.002  13.301  69.225  1.00  0.00    -0.354 A  
BRANCH  10  15
HETATM   15  N   UNL     1     -10.160  10.075  68.855  1.00  0.00    -0.180 NA 
HETATM   16  C   UNL     1      -9.142   9.427  68.014  1.00  0.00    -0.127 C  
HETATM   17  N   UNL     1      -8.894   7.576  69.742  1.00  0.00    -0.141 NA 
HETATM   18  C   UNL     1      -8.198   8.582  68.898  1.00  0.00    -0.117 C  
HETATM   19  C   UNL     1     -10.892   9.174  69.762  1.00  0.00    -0.211 C  
HETATM   20  C   UNL     1      -9.896   8.300  70.563  1.00  0.00    -0.183 C  
BRANCH  17  21
HETATM   21  C   UNL     1      -9.537   6.520  68.943  1.00  0.00    -0.127 C  
BRANCH  21  22
HETATM   22  C   UNL     1     -10.483   5.634  69.764  1.00  0.00    -0.377 C  
BRANCH  22  23
HETATM   23  C   UNL     1      -9.761   4.641  70.678  1.00  0.00    -0.277 C  
BRANCH  23  24
HETATM   24  C   UNL     1      -9.782   3.226  70.102  1.00  0.00    -0.096 C  
BRANCH  24  25
HETATM   25  C   UNL     1      -8.561   2.917  69.308  1.00  0.00    -0.114 A  
HETATM   26  C   UNL     1      -7.331   2.540  69.810  1.00  0.00    -0.043 A  
HETATM   27  N   UNL     1      -6.475   2.376  68.757  1.00  0.00    -0.029 NA 
HETATM   28  H   UNL     1      -5.497   2.100  68.839  1.00  0.00     0.000 HD 
HETATM   29  C   UNL     1      -7.120   2.637  67.571  1.00  0.00    -0.049 A  
HETATM   30  C   UNL     1      -8.435   2.971  67.884  1.00  0.00    -0.102 A  
HETATM   31  C   UNL     1      -9.328   3.279  66.831  1.00  0.00    -0.184 A  
HETATM   32  C   UNL     1      -8.866   3.256  65.508  1.00  0.00    -0.136 A  
HETATM   33  C   UNL     1      -7.538   2.923  65.231  1.00  0.00    -0.077 A  
HETATM   34  C   UNL     1      -9.764   3.578  64.436  1.00  0.00    -0.172 C  
HETATM   35  N   UNL     1     -10.484   3.841  63.563  1.00  0.00    -0.235 NA 
HETATM   36  C   UNL     1      -6.640   2.605  66.257  1.00  0.00    -0.032 A  
ENDBRANCH  24  25
ENDBRANCH  23  24
ENDBRANCH  22  23
ENDBRANCH  21  22
ENDBRANCH  17  21
ENDBRANCH  10  15
ENDBRANCH   2   6
TORSDOF 7
ENDMDL
MODEL      205
REMARK 921   NORMALIZED FREE ENERGY PREDICTED BY IDOCK:   -4.32 KCAL/MOL
REMARK 922        TOTAL FREE ENERGY PREDICTED BY IDOCK:   -7.37 KCAL/MOL
REMARK 923 INTER-LIGAND FREE ENERGY PREDICTED BY IDOCK:   -6.36 KCAL/MOL
REMARK 924 INTRA-LIGAND FREE ENERGY PREDICTED BY IDOCK:   -1.01 KCAL/MOL
REMARK 927      BINDING AFFINITY PREDICTED BY RF-SCORE:    0.00 PKD
ROOT
HETATM    1  N   UNL     1      -9.776   2.383  65.226  1.00  0.00    -0.352 N  
HETATM    2  C   UNL     1      -8.906   2.735  66.217  1.00  0.00    -0.144 C  
HETATM    3  H1  UNL     1     -10.116   3.084  64.568  1.00  0.00     0.000 HD 
HETATM    4  H2  UNL     1     -10.088   1.415  65.144  1.00  0.00     0.000 HD 
HETATM    5  O   UNL     1      -8.497   1.892  67.010  1.00  0.00    -0.081 OA 
ENDROOT
BRANCH   2   6
HETATM    6  C   UNL     1      -8.516   4.125  66.226  1.00  0.00    -0.109 A  
HETATM    7  C   UNL     1      -8.962   5.175  67.005  1.00  0.00    -0.112 A  
HETATM    8  C   UNL     1      -8.210   6.313  66.629  1.00  0.00    -0.111 A  
HETATM    9  C   UNL     1      -8.153   7.657  67.039  1.00  0.00    -0.117 A  
HETATM   10  C   UNL     1      -7.265   8.562  66.424  1.00  0.00    -0.079 A  
HETATM   11  C   UNL     1      -6.447   8.066  65.391  1.00  0.00    -0.048 A  
HETATM   12  O   UNL     1      -7.542   4.567  65.366  1.00  0.00    -0.080 OA 
HETATM   13  C   UNL     1      -7.363   5.893  65.614  1.00  0.00    -0.076 A  
HETATM   14  C   UNL     1      -6.469   6.729  64.963  1.00  0.00    -0.042 A  
BRANCH  10  15
HETATM   15  N   UNL     1      -7.223   9.889  66.803  1.00  0.00    -0.090 NA 
HETATM   16  C   UNL     1      -8.077  10.432  67.869  1.00  0.00    -0.102 C  
HETATM   17  N   UNL     1      -6.468  12.380  68.165  1.00  0.00    -0.066 NA 
HETATM   18  C   UNL     1      -7.227  11.290  68.831  1.00  0.00    -0.112 C  
HETATM   19  C   UNL     1      -6.395  10.879  66.094  1.00  0.00    -0.123 C  
HETATM   20  C   UNL     1      -5.627  11.759  67.111  1.00  0.00    -0.121 C  
BRANCH  17  21
HETATM   21  C   UNL     1      -7.351  13.409  67.591  1.00  0.00    -0.168 C  
BRANCH  21  22
HETATM   22  C   UNL     1      -8.053  14.263  68.656  1.00  0.00    -0.140 C  
BRANCH  22  23
HETATM   23  C   UNL     1      -7.951  15.769  68.404  1.00  0.00    -0.141 C  
BRANCH  23  24
HETATM   24  C   UNL     1      -8.764  16.193  67.182  1.00  0.00    -0.216 C  
BRANCH  24  25
HETATM   25  C   UNL     1     -10.135  15.610  67.181  1.00  0.00    -0.256 A  
HETATM   26  C   UNL     1     -11.176  15.966  68.015  1.00  0.00    -0.319 A  
HETATM   27  N   UNL     1     -12.251  15.178  67.710  1.00  0.00    -0.362 NA 
HETATM   28  H   UNL     1     -13.158  15.226  68.174  1.00  0.00     0.000 HD 
HETATM   29  C   UNL     1     -11.936  14.312  66.689  1.00  0.00    -0.430 A  
HETATM   30  C   UNL     1     -10.615  14.566  66.329  1.00  0.00    -0.304 A  
HETATM   31  C   UNL     1     -10.038  13.810  65.282  1.00  0.00    -0.312 A  
HETATM   32  C   UNL     1     -10.800  12.820  64.648  1.00  0.00    -0.361 A  
HETATM   33  C   UNL     1     -12.121  12.588  65.039  1.00  0.00    -0.504 A  
HETATM   34  C   UNL     1     -10.217  12.043  63.591  1.00  0.00    -0.444 C  
HETATM   35  N   UNL     1      -9.751  11.407  62.738  1.00  0.00    -0.303 NA 
HETATM   36  C   UNL     1     -12.715  13.331  66.066  1.00  0.00    -0.135 A  
ENDBRANCH  24  25
ENDBRANCH  23  24
ENDBRANCH  22  23
ENDBRANCH  21  22
ENDBRANCH  17  21
ENDBRANCH  10  15
ENDBRANCH   2   6
TORSDOF 7
ENDMDL
MODEL      206
REMARK 921   NORMALIZED FREE ENERGY PREDICTED BY IDOCK:   -4.31 KCAL/MOL
REMARK 922        TOTAL FREE ENERGY PREDICTED BY IDOCK:   -7.35 KCAL/MOL
REMARK 923 INTER-LIGAND FREE ENERGY PREDICTED BY IDOCK:   -6.83 KCAL/MOL
REMARK 924 INTRA-LIGAND FREE ENERGY PREDICTED BY IDOCK:   -0.52 KCAL/MOL
REMARK 927      BINDING AFFINITY PREDICTED BY RF-SCORE:    0.00 PKD
ROOT
HETATM    1  N   UNL     1      -7.569   3.238  68.019  1.00  0.00    -0.060 N  
HETATM    2  C   UNL     1      -7.343   3.838  66.814  1.00  0.00    -0.068 C  
HETATM    3  H1  UNL     1      -8.143   3.701  68.724  1.00  0.00     0.000 HD 
HETATM    4  H2  UNL     1      -7.162   2.323  68.216  1.00  0.00     0.000 HD 
HETATM    5  O   UNL     1      -6.652   3.281  65.966  1.00  0.00    -0.038 OA 
ENDROOT
BRANCH   2   6
HETATM    6  C   UNL     1      -7.984   5.119  66.637  1.00  0.00    -0.104 A  
HETATM    7  C   UNL     1      -7.595   6.221  65.899  1.00  0.00    -0.084 A  
HETATM    8  C   UNL     1      -8.617   7.190  66.040  1.00  0.00    -0.158 A  
HETATM    9  C   UNL     1      -8.845   8.485  65.542  1.00  0.00    -0.196 A  
HETATM   10  C   UNL     1     -10.002   9.203  65.902  1.00  0.00    -0.162 A  
HETATM   11  C   UNL     1     -10.908   8.574  66.777  1.00  0.00     0.132 A  
HETATM   12  O   UNL     1      -9.185   5.373  67.250  1.00  0.00    -0.111 OA 
HETATM   13  C   UNL     1      -9.561   6.629  66.886  1.00  0.00    -0.157 A  
HETATM   14  C   UNL     1     -10.718   7.279  67.286  1.00  0.00    -0.391 A  
BRANCH  10  15
HETATM   15  N   UNL     1     -10.219  10.485  65.439  1.00  0.00    -0.286 NA 
HETATM   16  C   UNL     1      -9.783  10.926  64.105  1.00  0.00    -0.296 C  
HETATM   17  N   UNL     1     -11.478  12.821  64.179  1.00  0.00    -0.365 NA 
HETATM   18  C   UNL     1     -10.936  11.676  63.403  1.00  0.00    -0.362 C  
HETATM   19  C   UNL     1     -10.809  11.535  66.287  1.00  0.00    -0.282 C  
HETATM   20  C   UNL     1     -11.902  12.301  65.503  1.00  0.00    -0.359 C  
BRANCH  17  21
HETATM   21  C   UNL     1     -10.499  13.909  64.333  1.00  0.00    -0.163 C  
BRANCH  21  22
HETATM   22  C   UNL     1     -10.732  14.756  65.593  1.00  0.00    -0.345 C  
BRANCH  22  23
HETATM   23  C   UNL     1      -9.449  15.081  66.362  1.00  0.00    -0.325 C  
BRANCH  23  24
HETATM   24  C   UNL     1      -9.751  15.616  67.761  1.00  0.00    -0.218 C  
BRANCH  24  25
HETATM   25  C   UNL     1     -10.755  14.787  68.483  1.00  0.00    -0.247 A  
HETATM   26  C   UNL     1     -11.997  15.202  68.921  1.00  0.00    -0.253 A  
HETATM   27  N   UNL     1     -12.595  14.150  69.557  1.00  0.00    -0.458 NA 
HETATM   28  H   UNL     1     -13.521  14.178  69.982  1.00  0.00     0.000 HD 
HETATM   29  C   UNL     1     -11.770  13.050  69.543  1.00  0.00    -0.317 A  
HETATM   30  C   UNL     1     -10.609  13.416  68.867  1.00  0.00    -0.181 A  
HETATM   31  C   UNL     1      -9.587  12.454  68.700  1.00  0.00    -0.036 A  
HETATM   32  C   UNL     1      -9.759  11.169  69.230  1.00  0.00     0.031 A  
HETATM   33  C   UNL     1     -10.933  10.837  69.909  1.00  0.00    -0.304 A  
HETATM   34  C   UNL     1      -8.720  10.190  69.073  1.00  0.00    -0.161 C  
HETATM   35  N   UNL     1      -7.882   9.394  68.954  1.00  0.00    -0.082 NA 
HETATM   36  C   UNL     1     -11.963  11.771  70.077  1.00  0.00    -0.421 A  
ENDBRANCH  24  25
ENDBRANCH  23  24
ENDBRANCH  22  23
ENDBRANCH  21  22
ENDBRANCH  17  21
ENDBRANCH  10  15
ENDBRANCH   2   6
TORSDOF 7
ENDMDL
MODEL      207
REMARK 921   NORMALIZED FREE ENERGY PREDICTED BY IDOCK:   -4.31 KCAL/MOL
REMARK 922        TOTAL FREE ENERGY PREDICTED BY IDOCK:   -7.35 KCAL/MOL
REMARK 923 INTER-LIGAND FREE ENERGY PREDICTED BY IDOCK:   -6.49 KCAL/MOL
REMARK 924 INTRA-LIGAND FREE ENERGY PREDICTED BY IDOCK:   -0.86 KCAL/MOL
REMARK 927      BINDING AFFINITY PREDICTED BY RF-SCORE:    0.00 PKD
ROOT
HETATM    1  N   UNL     1     -10.600   4.141  73.464  1.00  0.00    -0.184 N  
HETATM    2  C   UNL     1     -10.284   4.441  72.170  1.00  0.00    -0.177 C  
HETATM    3  H1  UNL     1     -11.015   4.850  74.069  1.00  0.00     0.000 HD 
HETATM    4  H2  UNL     1     -10.420   3.205  73.828  1.00  0.00     0.000 HD 
HETATM    5  O   UNL     1      -9.785   3.588  71.442  1.00  0.00    -0.160 OA 
ENDROOT
BRANCH   2   6
HETATM    6  C   UNL     1     -10.602   5.786  71.757  1.00  0.00    -0.238 A  
HETATM    7  C   UNL     1     -10.012   6.593  70.802  1.00  0.00    -0.201 A  
HETATM    8  C   UNL     1     -10.748   7.801  70.774  1.00  0.00    -0.230 A  
HETATM    9  C   UNL     1     -10.689   8.994  70.032  1.00  0.00    -0.247 A  
HETATM   10  C   UNL     1     -11.600  10.040  70.273  1.00  0.00    -0.280 A  
HETATM   11  C   UNL     1     -12.562   9.840  71.281  1.00  0.00    -0.460 A  
HETATM   12  O   UNL     1     -11.652   6.451  72.340  1.00  0.00    -0.284 OA 
HETATM   13  C   UNL     1     -11.733   7.670  71.741  1.00  0.00    -0.283 A  
HETATM   14  C   UNL     1     -12.659   8.659  72.034  1.00  0.00    -0.434 A  
BRANCH  10  15
HETATM   15  N   UNL     1     -11.530  11.224  69.567  1.00  0.00    -0.279 NA 
HETATM   16  C   UNL     1     -12.190  12.456  70.026  1.00  0.00    -0.194 C  
HETATM   17  N   UNL     1     -10.614  13.836  68.582  1.00  0.00    -0.251 NA 
HETATM   18  C   UNL     1     -11.204  13.640  69.932  1.00  0.00     0.041 C  
HETATM   19  C   UNL     1     -10.877  11.313  68.250  1.00  0.00    -0.205 C  
HETATM   20  C   UNL     1      -9.963  12.561  68.191  1.00  0.00    -0.224 C  
BRANCH  17  21
HETATM   21  C   UNL     1     -11.618  14.239  67.584  1.00  0.00    -0.368 C  
BRANCH  21  22
HETATM   22  C   UNL     1     -11.027  15.068  66.435  1.00  0.00    -0.336 C  
BRANCH  22  23
HETATM   23  C   UNL     1     -11.770  16.380  66.176  1.00  0.00     1.213 C  
BRANCH  23  24
HETATM   24  C   UNL     1     -11.079  17.216  65.099  1.00  0.00     0.162 C  
BRANCH  24  25
HETATM   25  C   UNL     1     -10.278  18.332  65.673  1.00  0.00     0.056 A  
HETATM   26  C   UNL     1     -10.621  19.670  65.675  1.00  0.00    -0.364 A  
HETATM   27  N   UNL     1      -9.608  20.366  66.272  1.00  0.00    -0.657 NA 
HETATM   28  H   UNL     1      -9.597  21.377  66.408  1.00  0.00     0.000 HD 
HETATM   29  C   UNL     1      -8.605  19.511  66.665  1.00  0.00    -0.340 A  
HETATM   30  C   UNL     1      -9.001  18.224  66.310  1.00  0.00    -0.197 A  
HETATM   31  C   UNL     1      -8.144  17.141  66.613  1.00  0.00    -0.292 A  
HETATM   32  C   UNL     1      -6.919  17.389  67.245  1.00  0.00    -0.194 A  
HETATM   33  C   UNL     1      -6.550  18.693  67.582  1.00  0.00    -0.205 A  
HETATM   34  C   UNL     1      -6.040  16.294  67.546  1.00  0.00    -0.161 C  
HETATM   35  N   UNL     1      -5.322  15.414  67.790  1.00  0.00    -0.237 NA 
HETATM   36  C   UNL     1      -7.387  19.780  67.300  1.00  0.00    -0.282 A  
ENDBRANCH  24  25
ENDBRANCH  23  24
ENDBRANCH  22  23
ENDBRANCH  21  22
ENDBRANCH  17  21
ENDBRANCH  10  15
ENDBRANCH   2   6
TORSDOF 7
ENDMDL
MODEL      208
REMARK 921   NORMALIZED FREE ENERGY PREDICTED BY IDOCK:   -4.29 KCAL/MOL
REMARK 922        TOTAL FREE ENERGY PREDICTED BY IDOCK:   -7.33 KCAL/MOL
REMARK 923 INTER-LIGAND FREE ENERGY PREDICTED BY IDOCK:   -6.19 KCAL/MOL
REMARK 924 INTRA-LIGAND FREE ENERGY PREDICTED BY IDOCK:   -1.14 KCAL/MOL
REMARK 927      BINDING AFFINITY PREDICTED BY RF-SCORE:    0.00 PKD
ROOT
HETATM    1  N   UNL     1      -5.777  19.441  69.593  1.00  0.00    -0.228 N  
HETATM    2  C   UNL     1      -6.551  18.818  68.657  1.00  0.00    -0.254 C  
HETATM    3  H1  UNL     1      -5.268  18.892  70.286  1.00  0.00     0.000 HD 
HETATM    4  H2  UNL     1      -5.707  20.458  69.599  1.00  0.00     0.000 HD 
HETATM    5  O   UNL     1      -7.163  19.478  67.823  1.00  0.00    -0.243 OA 
ENDROOT
BRANCH   2   6
HETATM    6  C   UNL     1      -6.559  17.377  68.728  1.00  0.00    -0.206 A  
HETATM    7  C   UNL     1      -7.075  16.439  67.854  1.00  0.00    -0.149 A  
HETATM    8  C   UNL     1      -6.768  15.166  68.389  1.00  0.00    -0.110 A  
HETATM    9  C   UNL     1      -6.981  13.834  67.991  1.00  0.00    -0.137 A  
HETATM   10  C   UNL     1      -6.539  12.763  68.792  1.00  0.00    -0.090 A  
HETATM   11  C   UNL     1      -5.885  13.082  69.997  1.00  0.00    -0.143 A  
HETATM   12  O   UNL     1      -5.971  16.741  69.794  1.00  0.00    -0.208 OA 
HETATM   13  C   UNL     1      -6.103  15.403  69.582  1.00  0.00    -0.140 A  
HETATM   14  C   UNL     1      -5.646  14.399  70.421  1.00  0.00    -0.130 A  
BRANCH  10  15
HETATM   15  N   UNL     1      -6.769  11.453  68.421  1.00  0.00    -0.062 NA 
HETATM   16  C   UNL     1      -6.876  11.039  67.014  1.00  0.00    -0.109 C  
HETATM   17  N   UNL     1      -6.330   8.644  67.679  1.00  0.00    -0.053 NA 
HETATM   18  C   UNL     1      -6.013   9.781  66.775  1.00  0.00    -0.055 C  
HETATM   19  C   UNL     1      -7.029  10.393  69.411  1.00  0.00    -0.091 C  
HETATM   20  C   UNL     1      -6.194   9.133  69.074  1.00  0.00    -0.043 C  
BRANCH  17  21
HETATM   21  C   UNL     1      -7.676   8.099  67.444  1.00  0.00    -0.102 C  
BRANCH  21  22
HETATM   22  C   UNL     1      -8.128   7.117  68.534  1.00  0.00    -0.125 C  
BRANCH  22  23
HETATM   23  C   UNL     1      -9.009   7.754  69.611  1.00  0.00    -0.143 C  
BRANCH  23  24
HETATM   24  C   UNL     1     -10.438   7.969  69.116  1.00  0.00    -0.217 C  
BRANCH  24  25
HETATM   25  C   UNL     1     -11.088   9.150  69.750  1.00  0.00    -0.140 A  
HETATM   26  C   UNL     1     -11.769   9.163  70.951  1.00  0.00    -0.284 A  
HETATM   27  N   UNL     1     -12.233  10.431  71.161  1.00  0.00    -0.368 NA 
HETATM   28  H   UNL     1     -12.773  10.726  71.974  1.00  0.00     0.000 HD 
HETATM   29  C   UNL     1     -11.868  11.253  70.121  1.00  0.00    -0.364 A  
HETATM   30  C   UNL     1     -11.139  10.479  69.223  1.00  0.00    -0.298 A  
HETATM   31  C   UNL     1     -10.630  11.091  68.054  1.00  0.00    -0.241 A  
HETATM   32  C   UNL     1     -10.884  12.449  67.822  1.00  0.00    -0.257 A  
HETATM   33  C   UNL     1     -11.624  13.195  68.742  1.00  0.00    -0.348 A  
HETATM   34  C   UNL     1     -10.379  13.074  66.632  1.00  0.00    -0.260 C  
HETATM   35  N   UNL     1      -9.977  13.586  65.670  1.00  0.00    -0.268 NA 
HETATM   36  C   UNL     1     -12.129  12.612  69.911  1.00  0.00    -0.322 A  
ENDBRANCH  24  25
ENDBRANCH  23  24
ENDBRANCH  22  23
ENDBRANCH  21  22
ENDBRANCH  17  21
ENDBRANCH  10  15
ENDBRANCH   2   6
TORSDOF 7
ENDMDL
MODEL      209
REMARK 921   NORMALIZED FREE ENERGY PREDICTED BY IDOCK:   -4.29 KCAL/MOL
REMARK 922        TOTAL FREE ENERGY PREDICTED BY IDOCK:   -7.32 KCAL/MOL
REMARK 923 INTER-LIGAND FREE ENERGY PREDICTED BY IDOCK:   -6.01 KCAL/MOL
REMARK 924 INTRA-LIGAND FREE ENERGY PREDICTED BY IDOCK:   -1.30 KCAL/MOL
REMARK 927      BINDING AFFINITY PREDICTED BY RF-SCORE:    0.00 PKD
ROOT
HETATM    1  N   UNL     1      -8.656  14.463  66.615  1.00  0.00    -0.437 N  
HETATM    2  C   UNL     1      -9.554  13.439  66.712  1.00  0.00    -0.262 C  
HETATM    3  H1  UNL     1      -7.674  14.308  66.842  1.00  0.00     0.000 HD 
HETATM    4  H2  UNL     1      -8.969  15.386  66.314  1.00  0.00     0.000 HD 
HETATM    5  O   UNL     1     -10.736  13.625  66.439  1.00  0.00    -0.279 OA 
ENDROOT
BRANCH   2   6
HETATM    6  C   UNL     1      -8.998  12.173  67.127  1.00  0.00    -0.189 A  
HETATM    7  C   UNL     1      -9.021  11.545  68.357  1.00  0.00    -0.173 A  
HETATM    8  C   UNL     1      -8.364  10.302  68.196  1.00  0.00    -0.118 A  
HETATM    9  C   UNL     1      -8.074   9.206  69.028  1.00  0.00    -0.102 A  
HETATM   10  C   UNL     1      -7.368   8.092  68.534  1.00  0.00    -0.093 A  
HETATM   11  C   UNL     1      -6.967   8.126  67.185  1.00  0.00    -0.075 A  
HETATM   12  O   UNL     1      -8.333  11.388  66.218  1.00  0.00    -0.168 OA 
HETATM   13  C   UNL     1      -7.950  10.258  66.874  1.00  0.00    -0.112 A  
HETATM   14  C   UNL     1      -7.248   9.198  66.322  1.00  0.00    -0.091 A  
BRANCH  10  15
HETATM   15  N   UNL     1      -7.057   7.025  69.352  1.00  0.00    -0.076 NA 
HETATM   16  C   UNL     1      -6.166   5.936  68.923  1.00  0.00    -0.036 C  
HETATM   17  N   UNL     1      -5.724   5.341  71.357  1.00  0.00    -0.012 NA 
HETATM   18  C   UNL     1      -5.129   5.646  70.030  1.00  0.00    -0.004 C  
HETATM   19  C   UNL     1      -7.678   6.846  70.675  1.00  0.00    -0.096 C  
HETATM   20  C   UNL     1      -6.600   6.481  71.726  1.00  0.00    -0.054 C  
BRANCH  17  21
HETATM   21  C   UNL     1      -6.481   4.079  71.356  1.00  0.00    -0.015 C  
BRANCH  21  22
HETATM   22  C   UNL     1      -7.557   4.021  72.449  1.00  0.00    -0.072 C  
BRANCH  22  23
HETATM   23  C   UNL     1      -8.883   3.419  71.977  1.00  0.00    -0.129 C  
BRANCH  23  24
HETATM   24  C   UNL     1     -10.017   3.712  72.959  1.00  0.00    -0.204 C  
BRANCH  24  25
HETATM   25  C   UNL     1     -10.381   5.156  72.991  1.00  0.00    -0.232 A  
HETATM   26  C   UNL     1     -10.504   5.944  74.118  1.00  0.00    -0.239 A  
HETATM   27  N   UNL     1     -10.878   7.198  73.719  1.00  0.00    -0.522 NA 
HETATM   28  H   UNL     1     -11.042   7.983  74.348  1.00  0.00     0.000 HD 
HETATM   29  C   UNL     1     -11.002   7.248  72.351  1.00  0.00    -0.267 A  
HETATM   30  C   UNL     1     -10.687   5.982  71.864  1.00  0.00    -0.282 A  
HETATM   31  C   UNL     1     -10.728   5.761  70.467  1.00  0.00    -0.361 A  
HETATM   32  C   UNL     1     -11.096   6.810  69.615  1.00  0.00    -0.343 A  
HETATM   33  C   UNL     1     -11.411   8.066  70.138  1.00  0.00    -0.081 A  
HETATM   34  C   UNL     1     -11.149   6.590  68.197  1.00  0.00    -0.240 C  
HETATM   35  N   UNL     1     -11.197   6.418  67.050  1.00  0.00    -0.328 NA 
HETATM   36  C   UNL     1     -11.368   8.310  71.517  1.00  0.00    -0.320 A  
ENDBRANCH  24  25
ENDBRANCH  23  24
ENDBRANCH  22  23
ENDBRANCH  21  22
ENDBRANCH  17  21
ENDBRANCH  10  15
ENDBRANCH   2   6
TORSDOF 7
ENDMDL
MODEL      210
REMARK 921   NORMALIZED FREE ENERGY PREDICTED BY IDOCK:   -4.28 KCAL/MOL
REMARK 922        TOTAL FREE ENERGY PREDICTED BY IDOCK:   -7.31 KCAL/MOL
REMARK 923 INTER-LIGAND FREE ENERGY PREDICTED BY IDOCK:   -5.40 KCAL/MOL
REMARK 924 INTRA-LIGAND FREE ENERGY PREDICTED BY IDOCK:   -1.91 KCAL/MOL
REMARK 927      BINDING AFFINITY PREDICTED BY RF-SCORE:    0.00 PKD
ROOT
HETATM    1  N   UNL     1      -9.910   6.120  71.295  1.00  0.00    -0.175 N  
HETATM    2  C   UNL     1     -11.197   6.549  71.140  1.00  0.00    -0.302 C  
HETATM    3  H1  UNL     1      -9.143   6.791  71.302  1.00  0.00     0.000 HD 
HETATM    4  H2  UNL     1      -9.716   5.125  71.405  1.00  0.00     0.000 HD 
HETATM    5  O   UNL     1     -12.121   5.740  71.131  1.00  0.00     0.370 OA 
ENDROOT
BRANCH   2   6
HETATM    6  C   UNL     1     -11.357   7.977  71.015  1.00  0.00    -0.273 A  
HETATM    7  C   UNL     1     -10.591   8.909  70.342  1.00  0.00    -0.252 A  
HETATM    8  C   UNL     1     -11.225  10.162  70.512  1.00  0.00    -0.411 A  
HETATM    9  C   UNL     1     -10.981  11.477  70.076  1.00  0.00     0.170 A  
HETATM   10  C   UNL     1     -11.836  12.532  70.450  1.00  0.00    -0.160 A  
HETATM   11  C   UNL     1     -12.933  12.215  71.274  1.00  0.00    -0.303 A  
HETATM   12  O   UNL     1     -12.422   8.601  71.617  1.00  0.00    -0.308 OA 
HETATM   13  C   UNL     1     -12.334   9.924  71.309  1.00  0.00    -0.381 A  
HETATM   14  C   UNL     1     -13.214  10.913  71.719  1.00  0.00    -0.513 A  
BRANCH  10  15
HETATM   15  N   UNL     1     -11.587  13.828  70.048  1.00  0.00    -0.233 NA 
HETATM   16  C   UNL     1     -11.845  14.292  68.676  1.00  0.00    -0.344 C  
HETATM   17  N   UNL     1     -11.925  16.696  69.505  1.00  0.00     0.452 NA 
HETATM   18  C   UNL     1     -12.604  15.636  68.715  1.00  0.00     0.681 C  
HETATM   19  C   UNL     1     -10.946  14.814  70.935  1.00  0.00     0.082 C  
HETATM   20  C   UNL     1     -11.706  16.162  70.872  1.00  0.00    -0.334 C  
BRANCH  17  21
HETATM   21  C   UNL     1     -10.653  17.120  68.899  1.00  0.00    -0.314 C  
BRANCH  21  22
HETATM   22  C   UNL     1     -10.814  17.653  67.468  1.00  0.00    -0.205 C  
BRANCH  22  23
HETATM   23  C   UNL     1      -9.891  16.978  66.451  1.00  0.00    -0.312 C  
BRANCH  23  24
HETATM   24  C   UNL     1      -8.815  16.138  67.137  1.00  0.00    -0.218 C  
BRANCH  24  25
HETATM   25  C   UNL     1      -8.928  14.690  66.805  1.00  0.00    -0.283 A  
HETATM   26  C   UNL     1      -9.686  14.139  65.791  1.00  0.00    -0.217 A  
HETATM   27  N   UNL     1      -9.536  12.781  65.840  1.00  0.00    -0.447 NA 
HETATM   28  H   UNL     1      -9.987  12.122  65.206  1.00  0.00     0.000 HD 
HETATM   29  C   UNL     1      -8.691  12.429  66.867  1.00  0.00    -0.191 A  
HETATM   30  C   UNL     1      -8.285  13.608  67.486  1.00  0.00    -0.189 A  
HETATM   31  C   UNL     1      -7.394  13.529  68.581  1.00  0.00    -0.112 A  
HETATM   32  C   UNL     1      -6.956  12.274  69.023  1.00  0.00    -0.078 A  
HETATM   33  C   UNL     1      -7.388  11.111  68.382  1.00  0.00    -0.094 A  
HETATM   34  C   UNL     1      -6.059  12.186  70.140  1.00  0.00    -0.121 C  
HETATM   35  N   UNL     1      -5.336  12.107  71.046  1.00  0.00    -0.249 NA 
HETATM   36  C   UNL     1      -8.263  11.166  67.290  1.00  0.00    -0.136 A  
ENDBRANCH  24  25
ENDBRANCH  23  24
ENDBRANCH  22  23
ENDBRANCH  21  22
ENDBRANCH  17  21
ENDBRANCH  10  15
ENDBRANCH   2   6
TORSDOF 7
ENDMDL
MODEL      211
REMARK 921   NORMALIZED FREE ENERGY PREDICTED BY IDOCK:   -4.26 KCAL/MOL
REMARK 922        TOTAL FREE ENERGY PREDICTED BY IDOCK:   -7.28 KCAL/MOL
REMARK 923 INTER-LIGAND FREE ENERGY PREDICTED BY IDOCK:   -6.13 KCAL/MOL
REMARK 924 INTRA-LIGAND FREE ENERGY PREDICTED BY IDOCK:   -1.15 KCAL/MOL
REMARK 927      BINDING AFFINITY PREDICTED BY RF-SCORE:    0.00 PKD
ROOT
HETATM    1  N   UNL     1     -13.393  12.616  71.776  1.00  0.00    -0.387 N  
HETATM    2  C   UNL     1     -12.506  12.284  70.792  1.00  0.00    -0.265 C  
HETATM    3  H1  UNL     1     -13.668  11.926  72.474  1.00  0.00     0.000 HD 
HETATM    4  H2  UNL     1     -13.783  13.558  71.812  1.00  0.00     0.000 HD 
HETATM    5  O   UNL     1     -12.175  13.115  69.952  1.00  0.00    -0.291 OA 
ENDROOT
BRANCH   2   6
HETATM    6  C   UNL     1     -12.003  10.933  70.850  1.00  0.00    -0.311 A  
HETATM    7  C   UNL     1     -10.967  10.332  70.161  1.00  0.00    -0.377 A  
HETATM    8  C   UNL     1     -10.875   9.002  70.636  1.00  0.00    -0.295 A  
HETATM    9  C   UNL     1     -10.042   7.900  70.375  1.00  0.00    -0.194 A  
HETATM   10  C   UNL     1     -10.237   6.674  71.040  1.00  0.00    -0.191 A  
HETATM   11  C   UNL     1     -11.295   6.602  71.966  1.00  0.00    -0.317 A  
HETATM   12  O   UNL     1     -12.574  10.027  71.710  1.00  0.00    -0.384 OA 
HETATM   13  C   UNL     1     -11.887   8.861  71.573  1.00  0.00    -0.332 A  
HETATM   14  C   UNL     1     -12.139   7.684  72.261  1.00  0.00    -0.297 A  
BRANCH  10  15
HETATM   15  N   UNL     1      -9.440   5.580  70.768  1.00  0.00    -0.162 NA 
HETATM   16  C   UNL     1      -7.996   5.568  71.044  1.00  0.00    -0.106 C  
HETATM   17  N   UNL     1      -8.019   3.024  71.047  1.00  0.00    -0.053 NA 
HETATM   18  C   UNL     1      -7.615   4.259  71.769  1.00  0.00    -0.070 C  
HETATM   19  C   UNL     1      -9.960   4.384  70.084  1.00  0.00    -0.179 C  
HETATM   20  C   UNL     1      -9.482   3.103  70.812  1.00  0.00    -0.161 C  
BRANCH  17  21
HETATM   21  C   UNL     1      -7.293   2.853  69.778  1.00  0.00    -0.044 C  
BRANCH  21  22
HETATM   22  C   UNL     1      -6.033   3.726  69.682  1.00  0.00    -0.023 C  
BRANCH  22  23
HETATM   23  C   UNL     1      -6.172   4.904  68.714  1.00  0.00    -0.031 C  
BRANCH  23  24
HETATM   24  C   UNL     1      -6.706   4.456  67.354  1.00  0.00    -0.047 C  
BRANCH  24  25
HETATM   25  C   UNL     1      -7.976   5.142  66.988  1.00  0.00    -0.100 A  
HETATM   26  C   UNL     1      -9.106   4.547  66.462  1.00  0.00    -0.119 A  
HETATM   27  N   UNL     1     -10.036   5.524  66.244  1.00  0.00    -0.306 NA 
HETATM   28  H   UNL     1     -10.967   5.366  65.858  1.00  0.00     0.000 HD 
HETATM   29  C   UNL     1      -9.540   6.751  66.618  1.00  0.00    -0.163 A  
HETATM   30  C   UNL     1      -8.250   6.542  67.099  1.00  0.00    -0.113 A  
HETATM   31  C   UNL     1      -7.509   7.653  67.564  1.00  0.00    -0.104 A  
HETATM   32  C   UNL     1      -8.081   8.931  67.516  1.00  0.00    -0.109 A  
HETATM   33  C   UNL     1      -9.376   9.105  67.022  1.00  0.00    -0.188 A  
HETATM   34  C   UNL     1      -7.331  10.064  67.978  1.00  0.00    -0.087 C  
HETATM   35  N   UNL     1      -6.728  10.986  68.345  1.00  0.00    -0.058 NA 
HETATM   36  C   UNL     1     -10.131   8.018  66.565  1.00  0.00    -0.270 A  
ENDBRANCH  24  25
ENDBRANCH  23  24
ENDBRANCH  22  23
ENDBRANCH  21  22
ENDBRANCH  17  21
ENDBRANCH  10  15
ENDBRANCH   2   6
TORSDOF 7
ENDMDL
MODEL      212
REMARK 921   NORMALIZED FREE ENERGY PREDICTED BY IDOCK:   -4.24 KCAL/MOL
REMARK 922        TOTAL FREE ENERGY PREDICTED BY IDOCK:   -7.25 KCAL/MOL
REMARK 923 INTER-LIGAND FREE ENERGY PREDICTED BY IDOCK:   -6.49 KCAL/MOL
REMARK 924 INTRA-LIGAND FREE ENERGY PREDICTED BY IDOCK:   -0.76 KCAL/MOL
REMARK 927      BINDING AFFINITY PREDICTED BY RF-SCORE:    0.00 PKD
ROOT
HETATM    1  N   UNL     1      -7.964   2.493  69.715  1.00  0.00    -0.042 N  
HETATM    2  C   UNL     1      -9.263   2.796  69.419  1.00  0.00    -0.139 C  
HETATM    3  H1  UNL     1      -7.382   3.164  70.215  1.00  0.00     0.000 HD 
HETATM    4  H2  UNL     1      -7.576   1.593  69.434  1.00  0.00     0.000 HD 
HETATM    5  O   UNL     1      -9.964   1.988  68.817  1.00  0.00     0.134 OA 
ENDROOT
BRANCH   2   6
HETATM    6  C   UNL     1      -9.713   4.086  69.882  1.00  0.00    -0.193 A  
HETATM    7  C   UNL     1      -9.903   5.269  69.194  1.00  0.00    -0.257 A  
HETATM    8  C   UNL     1     -10.399   6.211  70.126  1.00  0.00    -0.269 A  
HETATM    9  C   UNL     1     -10.809   7.555  70.070  1.00  0.00    -0.260 A  
HETATM   10  C   UNL     1     -11.255   8.222  71.228  1.00  0.00    -0.259 A  
HETATM   11  C   UNL     1     -11.269   7.490  72.431  1.00  0.00    -0.356 A  
HETATM   12  O   UNL     1     -10.042   4.261  71.204  1.00  0.00    -0.179 OA 
HETATM   13  C   UNL     1     -10.455   5.551  71.343  1.00  0.00    -0.240 A  
HETATM   14  C   UNL     1     -10.878   6.145  72.522  1.00  0.00    -0.275 A  
BRANCH  10  15
HETATM   15  N   UNL     1     -11.633   9.548  71.187  1.00  0.00    -0.336 NA 
HETATM   16  C   UNL     1     -10.873  10.562  70.440  1.00  0.00    -0.101 C  
HETATM   17  N   UNL     1     -12.931  12.057  70.377  1.00  0.00     0.251 NA 
HETATM   18  C   UNL     1     -11.841  11.419  69.594  1.00  0.00    -0.362 C  
HETATM   19  C   UNL     1     -12.765  10.065  71.974  1.00  0.00    -0.347 C  
HETATM   20  C   UNL     1     -13.655  10.978  71.094  1.00  0.00     0.544 C  
BRANCH  17  21
HETATM   21  C   UNL     1     -12.427  13.067  71.321  1.00  0.00    -0.218 C  
BRANCH  21  22
HETATM   22  C   UNL     1     -12.844  14.498  70.953  1.00  0.00    -0.425 C  
BRANCH  22  23
HETATM   23  C   UNL     1     -11.673  15.399  70.556  1.00  0.00    -0.356 C  
BRANCH  23  24
HETATM   24  C   UNL     1     -11.669  15.691  69.056  1.00  0.00    -0.408 C  
BRANCH  24  25
HETATM   25  C   UNL     1     -10.594  16.644  68.665  1.00  0.00    -0.337 A  
HETATM   26  C   UNL     1     -10.772  17.898  68.115  1.00  0.00    -0.274 A  
HETATM   27  N   UNL     1      -9.538  18.437  67.879  1.00  0.00    -0.285 NA 
HETATM   28  H   UNL     1      -9.373  19.358  67.473  1.00  0.00     0.000 HD 
HETATM   29  C   UNL     1      -8.552  17.560  68.265  1.00  0.00    -0.266 A  
HETATM   30  C   UNL     1      -9.184  16.428  68.772  1.00  0.00    -0.239 A  
HETATM   31  C   UNL     1      -8.388  15.363  69.254  1.00  0.00    -0.254 A  
HETATM   32  C   UNL     1      -6.992  15.466  69.195  1.00  0.00    -0.154 A  
HETATM   33  C   UNL     1      -6.391  16.614  68.675  1.00  0.00    -0.148 A  
HETATM   34  C   UNL     1      -6.179  14.383  69.673  1.00  0.00    -0.126 C  
HETATM   35  N   UNL     1      -5.514  13.511  70.055  1.00  0.00    -0.098 NA 
HETATM   36  C   UNL     1      -7.159  17.685  68.202  1.00  0.00    -0.216 A  
ENDBRANCH  24  25
ENDBRANCH  23  24
ENDBRANCH  22  23
ENDBRANCH  21  22
ENDBRANCH  17  21
ENDBRANCH  10  15
ENDBRANCH   2   6
TORSDOF 7
ENDMDL
MODEL      213
REMARK 921   NORMALIZED FREE ENERGY PREDICTED BY IDOCK:   -4.24 KCAL/MOL
REMARK 922        TOTAL FREE ENERGY PREDICTED BY IDOCK:   -7.25 KCAL/MOL
REMARK 923 INTER-LIGAND FREE ENERGY PREDICTED BY IDOCK:   -6.47 KCAL/MOL
REMARK 924 INTRA-LIGAND FREE ENERGY PREDICTED BY IDOCK:   -0.78 KCAL/MOL
REMARK 927      BINDING AFFINITY PREDICTED BY RF-SCORE:    0.00 PKD
ROOT
HETATM    1  N   UNL     1     -12.443  15.234  63.936  1.00  0.00    -0.983 N  
HETATM    2  C   UNL     1     -12.167  13.898  63.876  1.00  0.00    -0.328 C  
HETATM    3  H1  UNL     1     -12.095  15.797  64.712  1.00  0.00     0.000 HD 
HETATM    4  H2  UNL     1     -13.000  15.671  63.202  1.00  0.00     0.000 HD 
HETATM    5  O   UNL     1     -12.586  13.222  62.942  1.00  0.00    -0.509 OA 
ENDROOT
BRANCH   2   6
HETATM    6  C   UNL     1     -11.354  13.391  64.955  1.00  0.00    -0.312 A  
HETATM    7  C   UNL     1     -11.449  12.214  65.672  1.00  0.00    -0.408 A  
HETATM    8  C   UNL     1     -10.369  12.201  66.586  1.00  0.00    -0.233 A  
HETATM    9  C   UNL     1      -9.890  11.305  67.559  1.00  0.00    -0.195 A  
HETATM   10  C   UNL     1      -8.754  11.618  68.330  1.00  0.00    -0.163 A  
HETATM   11  C   UNL     1      -8.128  12.855  68.087  1.00  0.00    -0.158 A  
HETATM   12  O   UNL     1     -10.281  14.121  65.405  1.00  0.00    -0.329 OA 
HETATM   13  C   UNL     1      -9.691  13.394  66.393  1.00  0.00    -0.277 A  
HETATM   14  C   UNL     1      -8.571  13.768  67.118  1.00  0.00    -0.210 A  
BRANCH  10  15
HETATM   15  N   UNL     1      -8.295  10.756  69.305  1.00  0.00    -0.110 NA 
HETATM   16  C   UNL     1      -9.195   9.888  70.079  1.00  0.00    -0.183 C  
HETATM   17  N   UNL     1      -7.239   8.362  70.642  1.00  0.00    -0.048 NA 
HETATM   18  C   UNL     1      -8.627   8.453  70.120  1.00  0.00    -0.131 C  
HETATM   19  C   UNL     1      -6.880  10.719  69.715  1.00  0.00    -0.151 C  
HETATM   20  C   UNL     1      -6.391   9.253  69.812  1.00  0.00    -0.039 C  
BRANCH  17  21
HETATM   21  C   UNL     1      -7.150   8.730  72.065  1.00  0.00     0.000 C  
BRANCH  21  22
HETATM   22  C   UNL     1      -7.888   7.751  72.989  1.00  0.00    -0.156 C  
BRANCH  22  23
HETATM   23  C   UNL     1      -6.965   6.992  73.946  1.00  0.00    -0.080 C  
BRANCH  23  24
HETATM   24  C   UNL     1      -6.045   6.029  73.198  1.00  0.00    -0.053 C  
BRANCH  24  25
HETATM   25  C   UNL     1      -6.658   4.684  73.015  1.00  0.00    -0.055 A  
HETATM   26  C   UNL     1      -6.273   3.517  73.645  1.00  0.00    -0.023 A  
HETATM   27  N   UNL     1      -7.068   2.505  73.184  1.00  0.00    -0.031 NA 
HETATM   28  H   UNL     1      -7.001   1.531  73.480  1.00  0.00     0.000 HD 
HETATM   29  C   UNL     1      -7.970   2.986  72.264  1.00  0.00    -0.059 A  
HETATM   30  C   UNL     1      -7.743   4.354  72.144  1.00  0.00    -0.085 A  
HETATM   31  C   UNL     1      -8.552   5.102  71.257  1.00  0.00    -0.132 A  
HETATM   32  C   UNL     1      -9.546   4.450  70.516  1.00  0.00    -0.269 A  
HETATM   33  C   UNL     1      -9.742   3.074  70.657  1.00  0.00    -0.121 A  
HETATM   34  C   UNL     1     -10.364   5.202  69.607  1.00  0.00    -0.246 C  
HETATM   35  N   UNL     1     -11.027   5.803  68.866  1.00  0.00    -0.253 NA 
HETATM   36  C   UNL     1      -8.959   2.316  71.536  1.00  0.00    -0.137 A  
ENDBRANCH  24  25
ENDBRANCH  23  24
ENDBRANCH  22  23
ENDBRANCH  21  22
ENDBRANCH  17  21
ENDBRANCH  10  15
ENDBRANCH   2   6
TORSDOF 7
ENDMDL
MODEL      214
REMARK 921   NORMALIZED FREE ENERGY PREDICTED BY IDOCK:   -4.22 KCAL/MOL
REMARK 922        TOTAL FREE ENERGY PREDICTED BY IDOCK:   -7.22 KCAL/MOL
REMARK 923 INTER-LIGAND FREE ENERGY PREDICTED BY IDOCK:   -5.83 KCAL/MOL
REMARK 924 INTRA-LIGAND FREE ENERGY PREDICTED BY IDOCK:   -1.38 KCAL/MOL
REMARK 927      BINDING AFFINITY PREDICTED BY RF-SCORE:    0.00 PKD
ROOT
HETATM    1  N   UNL     1      -5.439   2.660  65.928  1.00  0.00    -0.016 N  
HETATM    2  C   UNL     1      -6.471   3.250  66.599  1.00  0.00    -0.036 C  
HETATM    3  H1  UNL     1      -5.062   3.092  65.085  1.00  0.00     0.000 HD 
HETATM    4  H2  UNL     1      -5.043   1.786  66.272  1.00  0.00     0.000 HD 
HETATM    5  O   UNL     1      -6.925   2.731  67.615  1.00  0.00    -0.047 OA 
ENDROOT
BRANCH   2   6
HETATM    6  C   UNL     1      -6.938   4.494  66.037  1.00  0.00    -0.066 A  
HETATM    7  C   UNL     1      -7.662   5.522  66.610  1.00  0.00    -0.100 A  
HETATM    8  C   UNL     1      -7.809   6.523  65.621  1.00  0.00    -0.100 A  
HETATM    9  C   UNL     1      -8.402   7.797  65.565  1.00  0.00    -0.151 A  
HETATM   10  C   UNL     1      -8.377   8.552  64.377  1.00  0.00    -0.116 A  
HETATM   11  C   UNL     1      -7.741   7.980  63.259  1.00  0.00    -0.143 A  
HETATM   12  O   UNL     1      -6.655   4.802  64.729  1.00  0.00    -0.041 OA 
HETATM   13  C   UNL     1      -7.187   6.030  64.485  1.00  0.00    -0.063 A  
HETATM   14  C   UNL     1      -7.128   6.716  63.281  1.00  0.00    -0.055 A  
BRANCH  10  15
HETATM   15  N   UNL     1      -8.981   9.791  64.307  1.00  0.00    -0.225 NA 
HETATM   16  C   UNL     1      -8.699  10.746  63.224  1.00  0.00    -0.143 C  
HETATM   17  N   UNL     1     -10.901  11.930  63.696  1.00  0.00    -0.406 NA 
HETATM   18  C   UNL     1     -10.025  11.310  62.669  1.00  0.00    -0.018 C  
HETATM   19  C   UNL     1      -9.872  10.289  65.369  1.00  0.00    -0.296 C  
HETATM   20  C   UNL     1     -11.147  10.910  64.747  1.00  0.00     0.171 C  
BRANCH  17  21
HETATM   21  C   UNL     1     -10.310  13.147  64.277  1.00  0.00    -0.339 C  
BRANCH  21  22
HETATM   22  C   UNL     1     -11.232  13.840  65.291  1.00  0.00    -0.311 C  
BRANCH  22  23
HETATM   23  C   UNL     1     -10.482  14.633  66.363  1.00  0.00    -0.296 C  
BRANCH  23  24
HETATM   24  C   UNL     1     -10.760  14.091  67.764  1.00  0.00    -0.248 C  
BRANCH  24  25
HETATM   25  C   UNL     1      -9.887  12.936  68.111  1.00  0.00    -0.227 A  
HETATM   26  C   UNL     1      -8.595  12.726  67.673  1.00  0.00    -0.181 A  
HETATM   27  N   UNL     1      -8.157  11.542  68.197  1.00  0.00    -0.138 NA 
HETATM   28  H   UNL     1      -7.234  11.139  68.034  1.00  0.00     0.000 HD 
HETATM   29  C   UNL     1      -9.137  10.970  68.973  1.00  0.00    -0.063 A  
HETATM   30  C   UNL     1     -10.234  11.828  68.947  1.00  0.00    -0.119 A  
HETATM   31  C   UNL     1     -11.390  11.477  69.682  1.00  0.00    -0.329 A  
HETATM   32  C   UNL     1     -11.409  10.275  70.401  1.00  0.00    -0.410 A  
HETATM   33  C   UNL     1     -10.293   9.435  70.401  1.00  0.00    -0.318 A  
HETATM   34  C   UNL     1     -12.583   9.908  71.142  1.00  0.00    -0.367 C  
HETATM   35  N   UNL     1     -13.531   9.603  71.739  1.00  0.00    -0.400 NA 
HETATM   36  C   UNL     1      -9.135   9.768  69.689  1.00  0.00    -0.235 A  
ENDBRANCH  24  25
ENDBRANCH  23  24
ENDBRANCH  22  23
ENDBRANCH  21  22
ENDBRANCH  17  21
ENDBRANCH  10  15
ENDBRANCH   2   6
TORSDOF 7
ENDMDL
MODEL      215
REMARK 921   NORMALIZED FREE ENERGY PREDICTED BY IDOCK:   -4.21 KCAL/MOL
REMARK 922        TOTAL FREE ENERGY PREDICTED BY IDOCK:   -7.22 KCAL/MOL
REMARK 923 INTER-LIGAND FREE ENERGY PREDICTED BY IDOCK:   -6.92 KCAL/MOL
REMARK 924 INTRA-LIGAND FREE ENERGY PREDICTED BY IDOCK:   -0.29 KCAL/MOL
REMARK 927      BINDING AFFINITY PREDICTED BY RF-SCORE:    0.00 PKD
ROOT
HETATM    1  N   UNL     1      -7.955   1.571  72.272  1.00  0.00    -0.044 N  
HETATM    2  C   UNL     1      -8.189   2.787  72.846  1.00  0.00    -0.070 C  
HETATM    3  H1  UNL     1      -8.034   1.457  71.262  1.00  0.00     0.000 HD 
HETATM    4  H2  UNL     1      -7.700   0.774  72.855  1.00  0.00     0.000 HD 
HETATM    5  O   UNL     1      -8.094   2.925  74.062  1.00  0.00    -0.066 OA 
ENDROOT
BRANCH   2   6
HETATM    6  C   UNL     1      -8.521   3.847  71.925  1.00  0.00    -0.098 A  
HETATM    7  C   UNL     1      -7.714   4.783  71.308  1.00  0.00    -0.083 A  
HETATM    8  C   UNL     1      -8.551   5.557  70.469  1.00  0.00    -0.125 A  
HETATM    9  C   UNL     1      -8.360   6.625  69.574  1.00  0.00    -0.131 A  
HETATM   10  C   UNL     1      -9.450   7.191  68.884  1.00  0.00    -0.142 A  
HETATM   11  C   UNL     1     -10.724   6.646  69.129  1.00  0.00    -0.304 A  
HETATM   12  O   UNL     1      -9.824   4.025  71.528  1.00  0.00    -0.176 OA 
HETATM   13  C   UNL     1      -9.833   5.063  70.648  1.00  0.00    -0.212 A  
HETATM   14  C   UNL     1     -10.951   5.574  70.006  1.00  0.00    -0.205 A  
BRANCH  10  15
HETATM   15  N   UNL     1      -9.274   8.257  68.025  1.00  0.00    -0.137 NA 
HETATM   16  C   UNL     1      -8.161   9.208  68.165  1.00  0.00    -0.104 C  
HETATM   17  N   UNL     1      -8.429   9.880  65.726  1.00  0.00    -0.131 NA 
HETATM   18  C   UNL     1      -7.493   9.433  66.791  1.00  0.00    -0.094 C  
HETATM   19  C   UNL     1     -10.249   8.582  66.970  1.00  0.00    -0.301 C  
HETATM   20  C   UNL     1      -9.516   8.873  65.637  1.00  0.00    -0.159 C  
BRANCH  17  21
HETATM   21  C   UNL     1      -8.977  11.220  65.986  1.00  0.00    -0.200 C  
BRANCH  21  22
HETATM   22  C   UNL     1     -10.442  11.368  65.550  1.00  0.00    -0.322 C  
BRANCH  22  23
HETATM   23  C   UNL     1     -11.377  11.817  66.675  1.00  0.00    -0.381 C  
BRANCH  23  24
HETATM   24  C   UNL     1     -10.777  11.538  68.052  1.00  0.00    -0.241 C  
BRANCH  24  25
HETATM   25  C   UNL     1     -11.387  12.380  69.119  1.00  0.00    -0.327 A  
HETATM   26  C   UNL     1     -12.255  11.951  70.104  1.00  0.00    -0.241 A  
HETATM   27  N   UNL     1     -12.602  13.033  70.864  1.00  0.00    -0.323 NA 
HETATM   28  H   UNL     1     -13.234  13.005  71.663  1.00  0.00     0.000 HD 
HETATM   29  C   UNL     1     -11.977  14.166  70.397  1.00  0.00    -0.330 A  
HETATM   30  C   UNL     1     -11.199  13.785  69.306  1.00  0.00    -0.291 A  
HETATM   31  C   UNL     1     -10.435  14.771  68.639  1.00  0.00    -0.250 A  
HETATM   32  C   UNL     1     -10.492  16.100  69.078  1.00  0.00    -0.261 A  
HETATM   33  C   UNL     1     -11.287  16.448  70.173  1.00  0.00    -0.202 A  
HETATM   34  C   UNL     1      -9.727  17.107  68.398  1.00  0.00    -0.284 C  
HETATM   35  N   UNL     1      -9.114  17.928  67.851  1.00  0.00    -0.255 NA 
HETATM   36  C   UNL     1     -12.044  15.486  70.854  1.00  0.00    -0.433 A  
ENDBRANCH  24  25
ENDBRANCH  23  24
ENDBRANCH  22  23
ENDBRANCH  21  22
ENDBRANCH  17  21
ENDBRANCH  10  15
ENDBRANCH   2   6
TORSDOF 7
ENDMDL
MODEL      216
REMARK 921   NORMALIZED FREE ENERGY PREDICTED BY IDOCK:   -4.17 KCAL/MOL
REMARK 922        TOTAL FREE ENERGY PREDICTED BY IDOCK:   -7.16 KCAL/MOL
REMARK 923 INTER-LIGAND FREE ENERGY PREDICTED BY IDOCK:   -6.04 KCAL/MOL
REMARK 924 INTRA-LIGAND FREE ENERGY PREDICTED BY IDOCK:   -1.12 KCAL/MOL
REMARK 927      BINDING AFFINITY PREDICTED BY RF-SCORE:    0.00 PKD
ROOT
HETATM    1  N   UNL     1     -10.645  19.605  65.691  1.00  0.00    -0.464 N  
HETATM    2  C   UNL     1     -10.500  19.159  66.974  1.00  0.00    -0.438 C  
HETATM    3  H1  UNL     1     -10.519  18.964  64.908  1.00  0.00     0.000 HD 
HETATM    4  H2  UNL     1     -10.880  20.581  65.516  1.00  0.00     0.000 HD 
HETATM    5  O   UNL     1     -10.652  19.929  67.917  1.00  0.00    -0.388 OA 
ENDROOT
BRANCH   2   6
HETATM    6  C   UNL     1     -10.188  17.756  67.104  1.00  0.00    -0.353 A  
HETATM    7  C   UNL     1      -8.968  17.114  67.197  1.00  0.00    -0.238 A  
HETATM    8  C   UNL     1      -9.240  15.735  67.353  1.00  0.00    -0.208 A  
HETATM    9  C   UNL     1      -8.466  14.573  67.524  1.00  0.00    -0.201 A  
HETATM   10  C   UNL     1      -9.077  13.310  67.642  1.00  0.00    -0.204 A  
HETATM   11  C   UNL     1     -10.482  13.262  67.579  1.00  0.00    -0.237 A  
HETATM   12  O   UNL     1     -11.202  16.833  67.167  1.00  0.00     0.037 OA 
HETATM   13  C   UNL     1     -10.620  15.612  67.317  1.00  0.00    -0.305 A  
HETATM   14  C   UNL     1     -11.288  14.401  67.422  1.00  0.00    -0.353 A  
BRANCH  10  15
HETATM   15  N   UNL     1      -8.322  12.163  67.781  1.00  0.00    -0.149 NA 
HETATM   16  C   UNL     1      -8.466  11.009  66.881  1.00  0.00    -0.139 C  
HETATM   17  N   UNL     1      -6.141  10.209  67.535  1.00  0.00    -0.057 NA 
HETATM   18  C   UNL     1      -7.071  10.530  66.422  1.00  0.00    -0.128 C  
HETATM   19  C   UNL     1      -7.392  11.970  68.907  1.00  0.00    -0.067 C  
HETATM   20  C   UNL     1      -6.040  11.416  68.393  1.00  0.00    -0.045 C  
BRANCH  17  21
HETATM   21  C   UNL     1      -6.583   9.045  68.319  1.00  0.00    -0.060 C  
BRANCH  21  22
HETATM   22  C   UNL     1      -5.475   8.005  68.533  1.00  0.00    -0.032 C  
BRANCH  22  23
HETATM   23  C   UNL     1      -5.178   7.156  67.294  1.00  0.00    -0.013 C  
BRANCH  23  24
HETATM   24  C   UNL     1      -5.904   5.813  67.344  1.00  0.00    -0.017 C  
BRANCH  24  25
HETATM   25  C   UNL     1      -7.222   5.852  66.653  1.00  0.00    -0.074 A  
HETATM   26  C   UNL     1      -7.433   5.822  65.289  1.00  0.00    -0.078 A  
HETATM   27  N   UNL     1      -8.779   5.903  65.066  1.00  0.00    -0.333 NA 
HETATM   28  H   UNL     1      -9.218   5.904  64.145  1.00  0.00     0.000 HD 
HETATM   29  C   UNL     1      -9.458   5.985  66.259  1.00  0.00    -0.127 A  
HETATM   30  C   UNL     1      -8.507   5.946  67.275  1.00  0.00    -0.103 A  
HETATM   31  C   UNL     1      -8.945   6.004  68.619  1.00  0.00    -0.118 A  
HETATM   32  C   UNL     1     -10.314   6.115  68.892  1.00  0.00    -0.258 A  
HETATM   33  C   UNL     1     -11.241   6.158  67.847  1.00  0.00    -0.137 A  
HETATM   34  C   UNL     1     -10.764   6.186  70.254  1.00  0.00    -0.291 C  
HETATM   35  N   UNL     1     -11.136   6.247  71.352  1.00  0.00    -0.274 NA 
HETATM   36  C   UNL     1     -10.830   6.091  66.510  1.00  0.00    -0.193 A  
ENDBRANCH  24  25
ENDBRANCH  23  24
ENDBRANCH  22  23
ENDBRANCH  21  22
ENDBRANCH  17  21
ENDBRANCH  10  15
ENDBRANCH   2   6
TORSDOF 7
ENDMDL
MODEL      217
REMARK 921   NORMALIZED FREE ENERGY PREDICTED BY IDOCK:   -4.17 KCAL/MOL
REMARK 922        TOTAL FREE ENERGY PREDICTED BY IDOCK:   -7.16 KCAL/MOL
REMARK 923 INTER-LIGAND FREE ENERGY PREDICTED BY IDOCK:   -6.40 KCAL/MOL
REMARK 924 INTRA-LIGAND FREE ENERGY PREDICTED BY IDOCK:   -0.76 KCAL/MOL
REMARK 927      BINDING AFFINITY PREDICTED BY RF-SCORE:    0.00 PKD
ROOT
HETATM    1  N   UNL     1      -7.935   2.309  73.050  1.00  0.00    -0.049 N  
HETATM    2  C   UNL     1      -9.014   2.442  72.224  1.00  0.00    -0.074 C  
HETATM    3  H1  UNL     1      -7.185   2.999  73.031  1.00  0.00     0.000 HD 
HETATM    4  H2  UNL     1      -7.880   1.515  73.689  1.00  0.00     0.000 HD 
HETATM    5  O   UNL     1      -9.917   1.611  72.247  1.00  0.00    -0.110 OA 
ENDROOT
BRANCH   2   6
HETATM    6  C   UNL     1      -8.998   3.611  71.379  1.00  0.00    -0.104 A  
HETATM    7  C   UNL     1      -9.968   4.571  71.159  1.00  0.00    -0.257 A  
HETATM    8  C   UNL     1      -9.411   5.521  70.270  1.00  0.00    -0.194 A  
HETATM    9  C   UNL     1      -9.849   6.722  69.683  1.00  0.00    -0.173 A  
HETATM   10  C   UNL     1      -9.016   7.440  68.803  1.00  0.00    -0.129 A  
HETATM   11  C   UNL     1      -7.740   6.908  68.540  1.00  0.00    -0.113 A  
HETATM   12  O   UNL     1      -7.877   3.910  70.645  1.00  0.00    -0.053 OA 
HETATM   13  C   UNL     1      -8.135   5.066  69.975  1.00  0.00    -0.074 A  
HETATM   14  C   UNL     1      -7.265   5.719  69.116  1.00  0.00    -0.074 A  
BRANCH  10  15
HETATM   15  N   UNL     1      -9.450   8.605  68.202  1.00  0.00    -0.140 NA 
HETATM   16  C   UNL     1     -10.876   8.931  68.053  1.00  0.00    -0.016 C  
HETATM   17  N   UNL     1     -10.285  11.392  67.793  1.00  0.00    -0.178 NA 
HETATM   18  C   UNL     1     -11.125  10.389  68.496  1.00  0.00    -0.266 C  
HETATM   19  C   UNL     1      -8.518   9.555  67.571  1.00  0.00    -0.126 C  
HETATM   20  C   UNL     1      -8.866  11.003  67.993  1.00  0.00    -0.138 C  
BRANCH  17  21
HETATM   21  C   UNL     1     -10.604  11.486  66.360  1.00  0.00    -0.259 C  
BRANCH  21  22
HETATM   22  C   UNL     1     -11.679  12.538  66.049  1.00  0.00    -0.472 C  
BRANCH  22  23
HETATM   23  C   UNL     1     -11.111  13.883  65.592  1.00  0.00    -0.298 C  
BRANCH  23  24
HETATM   24  C   UNL     1      -9.697  14.110  66.126  1.00  0.00    -0.310 C  
BRANCH  24  25
HETATM   25  C   UNL     1      -9.675  15.009  67.312  1.00  0.00    -0.220 A  
HETATM   26  C   UNL     1      -9.421  14.636  68.618  1.00  0.00    -0.211 A  
HETATM   27  N   UNL     1      -9.521  15.750  69.404  1.00  0.00    -0.269 NA 
HETATM   28  H   UNL     1      -9.383  15.764  70.414  1.00  0.00     0.000 HD 
HETATM   29  C   UNL     1      -9.835  16.849  68.639  1.00  0.00    -0.270 A  
HETATM   30  C   UNL     1      -9.930  16.417  67.319  1.00  0.00    -0.258 A  
HETATM   31  C   UNL     1     -10.237  17.363  66.314  1.00  0.00    -0.344 A  
HETATM   32  C   UNL     1     -10.452  18.700  66.670  1.00  0.00    -0.459 A  
HETATM   33  C   UNL     1     -10.355  19.098  68.006  1.00  0.00    -0.483 A  
HETATM   34  C   UNL     1     -10.774  19.664  65.656  1.00  0.00    -0.329 C  
HETATM   35  N   UNL     1     -11.039  20.448  64.841  1.00  0.00     0.341 NA 
HETATM   36  C   UNL     1     -10.043  18.180  69.016  1.00  0.00    -0.290 A  
ENDBRANCH  24  25
ENDBRANCH  23  24
ENDBRANCH  22  23
ENDBRANCH  21  22
ENDBRANCH  17  21
ENDBRANCH  10  15
ENDBRANCH   2   6
TORSDOF 7
ENDMDL
MODEL      218
REMARK 921   NORMALIZED FREE ENERGY PREDICTED BY IDOCK:   -4.17 KCAL/MOL
REMARK 922        TOTAL FREE ENERGY PREDICTED BY IDOCK:   -7.15 KCAL/MOL
REMARK 923 INTER-LIGAND FREE ENERGY PREDICTED BY IDOCK:   -6.06 KCAL/MOL
REMARK 924 INTRA-LIGAND FREE ENERGY PREDICTED BY IDOCK:   -1.10 KCAL/MOL
REMARK 927      BINDING AFFINITY PREDICTED BY RF-SCORE:    0.00 PKD
ROOT
HETATM    1  N   UNL     1      -7.857   4.047  67.224  1.00  0.00    -0.091 N  
HETATM    2  C   UNL     1      -7.414   5.102  67.969  1.00  0.00    -0.076 C  
HETATM    3  H1  UNL     1      -8.529   4.197  66.471  1.00  0.00     0.000 HD 
HETATM    4  H2  UNL     1      -7.515   3.107  67.420  1.00  0.00     0.000 HD 
HETATM    5  O   UNL     1      -6.606   4.922  68.875  1.00  0.00    -0.042 OA 
ENDROOT
BRANCH   2   6
HETATM    6  C   UNL     1      -7.947   6.388  67.590  1.00  0.00    -0.114 A  
HETATM    7  C   UNL     1      -8.595   6.785  66.436  1.00  0.00    -0.131 A  
HETATM    8  C   UNL     1      -8.944   8.145  66.609  1.00  0.00    -0.181 A  
HETATM    9  C   UNL     1      -9.622   9.111  65.842  1.00  0.00    -0.343 A  
HETATM   10  C   UNL     1      -9.793  10.423  66.324  1.00  0.00    -0.218 A  
HETATM   11  C   UNL     1      -9.259  10.723  67.592  1.00  0.00    -0.152 A  
HETATM   12  O   UNL     1      -7.855   7.449  68.457  1.00  0.00    -0.117 OA 
HETATM   13  C   UNL     1      -8.459   8.509  67.855  1.00  0.00    -0.130 A  
HETATM   14  C   UNL     1      -8.587   9.782  68.389  1.00  0.00    -0.119 A  
BRANCH  10  15
HETATM   15  N   UNL     1     -10.432  11.383  65.566  1.00  0.00    -0.261 NA 
HETATM   16  C   UNL     1     -10.181  11.548  64.126  1.00  0.00    -0.325 C  
HETATM   17  N   UNL     1     -12.414  12.740  63.874  1.00  0.00    -0.657 NA 
HETATM   18  C   UNL     1     -11.525  11.661  63.373  1.00  0.00    -0.260 C  
HETATM   19  C   UNL     1     -11.334  12.382  66.165  1.00  0.00    -0.352 C  
HETATM   20  C   UNL     1     -12.628  12.505  65.324  1.00  0.00    -0.183 C  
BRANCH  17  21
HETATM   21  C   UNL     1     -11.857  14.082  63.638  1.00  0.00     0.011 C  
BRANCH  21  22
HETATM   22  C   UNL     1     -11.930  14.991  64.873  1.00  0.00    -0.255 C  
BRANCH  22  23
HETATM   23  C   UNL     1     -11.654  16.466  64.569  1.00  0.00     0.021 C  
BRANCH  23  24
HETATM   24  C   UNL     1     -10.292  16.906  65.102  1.00  0.00     0.110 C  
BRANCH  24  25
HETATM   25  C   UNL     1     -10.178  16.741  66.578  1.00  0.00    -0.319 A  
HETATM   26  C   UNL     1     -10.878  17.446  67.537  1.00  0.00    -0.203 A  
HETATM   27  N   UNL     1     -10.465  17.014  68.766  1.00  0.00    -0.330 NA 
HETATM   28  H   UNL     1     -10.817  17.366  69.656  1.00  0.00     0.000 HD 
HETATM   29  C   UNL     1      -9.508  16.036  68.633  1.00  0.00    -0.224 A  
HETATM   30  C   UNL     1      -9.312  15.836  67.269  1.00  0.00    -0.219 A  
HETATM   31  C   UNL     1      -8.374  14.864  66.852  1.00  0.00    -0.212 A  
HETATM   32  C   UNL     1      -7.657  14.141  67.814  1.00  0.00    -0.175 A  
HETATM   33  C   UNL     1      -7.874  14.372  69.175  1.00  0.00    -0.026 A  
HETATM   34  C   UNL     1      -6.696  13.160  67.397  1.00  0.00    -0.096 C  
HETATM   35  N   UNL     1      -5.913  12.368  67.067  1.00  0.00    -0.279 NA 
HETATM   36  C   UNL     1      -8.805  15.322  69.610  1.00  0.00    -0.110 A  
ENDBRANCH  24  25
ENDBRANCH  23  24
ENDBRANCH  22  23
ENDBRANCH  21  22
ENDBRANCH  17  21
ENDBRANCH  10  15
ENDBRANCH   2   6
TORSDOF 7
ENDMDL
MODEL      219
REMARK 921   NORMALIZED FREE ENERGY PREDICTED BY IDOCK:   -4.17 KCAL/MOL
REMARK 922        TOTAL FREE ENERGY PREDICTED BY IDOCK:   -7.15 KCAL/MOL
REMARK 923 INTER-LIGAND FREE ENERGY PREDICTED BY IDOCK:   -6.46 KCAL/MOL
REMARK 924 INTRA-LIGAND FREE ENERGY PREDICTED BY IDOCK:   -0.70 KCAL/MOL
REMARK 927      BINDING AFFINITY PREDICTED BY RF-SCORE:    0.00 PKD
ROOT
HETATM    1  N   UNL     1     -14.036   7.095  71.933  1.00  0.00    -0.572 N  
HETATM    2  C   UNL     1     -12.761   6.617  72.028  1.00  0.00    -0.159 C  
HETATM    3  H1  UNL     1     -14.239   7.903  71.345  1.00  0.00     0.000 HD 
HETATM    4  H2  UNL     1     -14.789   6.642  72.451  1.00  0.00     0.000 HD 
HETATM    5  O   UNL     1     -12.516   5.645  72.736  1.00  0.00     0.001 OA 
ENDROOT
BRANCH   2   6
HETATM    6  C   UNL     1     -11.781   7.321  71.236  1.00  0.00    -0.296 A  
HETATM    7  C   UNL     1     -11.045   8.455  71.522  1.00  0.00    -0.329 A  
HETATM    8  C   UNL     1     -10.201   8.687  70.411  1.00  0.00    -0.218 A  
HETATM    9  C   UNL     1      -9.215   9.635  70.082  1.00  0.00    -0.287 A  
HETATM   10  C   UNL     1      -8.550   9.583  68.842  1.00  0.00    -0.128 A  
HETATM   11  C   UNL     1      -8.913   8.551  67.955  1.00  0.00    -0.139 A  
HETATM   12  O   UNL     1     -11.451   6.858  69.987  1.00  0.00    -0.306 OA 
HETATM   13  C   UNL     1     -10.495   7.691  69.493  1.00  0.00    -0.227 A  
HETATM   14  C   UNL     1      -9.883   7.582  68.254  1.00  0.00    -0.177 A  
BRANCH  10  15
HETATM   15  N   UNL     1      -7.601  10.526  68.501  1.00  0.00    -0.092 NA 
HETATM   16  C   UNL     1      -7.745  11.949  68.843  1.00  0.00    -0.016 C  
HETATM   17  N   UNL     1      -5.233  12.262  68.593  1.00  0.00    -0.050 NA 
HETATM   18  C   UNL     1      -6.427  12.474  69.452  1.00  0.00    -0.102 C  
HETATM   19  C   UNL     1      -6.426  10.192  67.677  1.00  0.00    -0.063 C  
HETATM   20  C   UNL     1      -5.148  10.810  68.297  1.00  0.00    -0.033 C  
BRANCH  17  21
HETATM   21  C   UNL     1      -5.290  13.048  67.350  1.00  0.00     0.055 C  
BRANCH  21  22
HETATM   22  C   UNL     1      -6.150  14.313  67.474  1.00  0.00     0.048 C  
BRANCH  22  23
HETATM   23  C   UNL     1      -5.412  15.503  68.091  1.00  0.00    -0.124 C  
BRANCH  23  24
HETATM   24  C   UNL     1      -6.140  16.042  69.321  1.00  0.00    -0.138 C  
BRANCH  24  25
HETATM   25  C   UNL     1      -7.367  16.808  68.966  1.00  0.00    -0.231 A  
HETATM   26  C   UNL     1      -7.440  18.164  68.712  1.00  0.00    -0.274 A  
HETATM   27  N   UNL     1      -8.745  18.476  68.450  1.00  0.00    -0.320 NA 
HETATM   28  H   UNL     1      -9.088  19.411  68.231  1.00  0.00     0.000 HD 
HETATM   29  C   UNL     1      -9.531  17.349  68.526  1.00  0.00    -0.297 A  
HETATM   30  C   UNL     1      -8.692  16.284  68.839  1.00  0.00    -0.253 A  
HETATM   31  C   UNL     1      -9.252  14.992  68.968  1.00  0.00    -0.205 A  
HETATM   32  C   UNL     1     -10.631  14.819  68.793  1.00  0.00    -0.251 A  
HETATM   33  C   UNL     1     -11.445  15.912  68.485  1.00  0.00    -0.377 A  
HETATM   34  C   UNL     1     -11.208  13.512  68.933  1.00  0.00    -0.275 C  
HETATM   35  N   UNL     1     -11.682  12.458  69.048  1.00  0.00    -0.309 NA 
HETATM   36  C   UNL     1     -10.910  17.198  68.344  1.00  0.00    -0.309 A  
ENDBRANCH  24  25
ENDBRANCH  23  24
ENDBRANCH  22  23
ENDBRANCH  21  22
ENDBRANCH  17  21
ENDBRANCH  10  15
ENDBRANCH   2   6
TORSDOF 7
ENDMDL
MODEL      220
REMARK 921   NORMALIZED FREE ENERGY PREDICTED BY IDOCK:   -4.16 KCAL/MOL
REMARK 922        TOTAL FREE ENERGY PREDICTED BY IDOCK:   -7.14 KCAL/MOL
REMARK 923 INTER-LIGAND FREE ENERGY PREDICTED BY IDOCK:   -6.85 KCAL/MOL
REMARK 924 INTRA-LIGAND FREE ENERGY PREDICTED BY IDOCK:   -0.29 KCAL/MOL
REMARK 927      BINDING AFFINITY PREDICTED BY RF-SCORE:    0.00 PKD
ROOT
HETATM    1  N   UNL     1      -8.880   3.023  63.567  1.00  0.00    -0.092 N  
HETATM    2  C   UNL     1      -8.411   3.419  64.787  1.00  0.00    -0.097 C  
HETATM    3  H1  UNL     1      -9.342   3.693  62.952  1.00  0.00     0.000 HD 
HETATM    4  H2  UNL     1      -8.766   2.054  63.269  1.00  0.00     0.000 HD 
HETATM    5  O   UNL     1      -7.855   2.613  65.526  1.00  0.00    -0.076 OA 
ENDROOT
BRANCH   2   6
HETATM    6  C   UNL     1      -8.606   4.815  65.095  1.00  0.00    -0.140 A  
HETATM    7  C   UNL     1      -9.312   5.416  66.119  1.00  0.00    -0.167 A  
HETATM    8  C   UNL     1      -9.135   6.813  65.975  1.00  0.00    -0.103 A  
HETATM    9  C   UNL     1      -9.555   7.954  66.682  1.00  0.00    -0.293 A  
HETATM   10  C   UNL     1      -9.198   9.245  66.244  1.00  0.00    -0.186 A  
HETATM   11  C   UNL     1      -8.413   9.339  65.080  1.00  0.00    -0.178 A  
HETATM   12  O   UNL     1      -8.025   5.777  64.306  1.00  0.00    -0.114 OA 
HETATM   13  C   UNL     1      -8.351   6.984  64.845  1.00  0.00    -0.010 A  
HETATM   14  C   UNL     1      -7.966   8.222  64.356  1.00  0.00    -0.144 A  
BRANCH  10  15
HETATM   15  N   UNL     1      -9.629  10.370  66.917  1.00  0.00    -0.168 NA 
HETATM   16  C   UNL     1      -8.715  11.454  67.309  1.00  0.00    -0.148 C  
HETATM   17  N   UNL     1     -10.686  13.054  67.476  1.00  0.00    -0.236 NA 
HETATM   18  C   UNL     1      -9.328  12.817  66.921  1.00  0.00    -0.234 C  
HETATM   19  C   UNL     1     -11.018  10.519  67.384  1.00  0.00    -0.288 C  
HETATM   20  C   UNL     1     -11.550  11.931  67.035  1.00  0.00    -0.291 C  
BRANCH  17  21
HETATM   21  C   UNL     1     -10.681  13.166  68.943  1.00  0.00    -0.169 C  
BRANCH  21  22
HETATM   22  C   UNL     1     -11.143  14.541  69.445  1.00  0.00    -0.297 C  
BRANCH  22  23
HETATM   23  C   UNL     1     -10.202  15.686  69.063  1.00  0.00    -0.225 C  
BRANCH  23  24
HETATM   24  C   UNL     1      -8.765  15.404  69.498  1.00  0.00    -0.210 C  
BRANCH  24  25
HETATM   25  C   UNL     1      -7.843  16.528  69.178  1.00  0.00    -0.192 A  
HETATM   26  C   UNL     1      -6.560  16.697  69.659  1.00  0.00    -0.154 A  
HETATM   27  N   UNL     1      -6.065  17.864  69.147  1.00  0.00    -0.215 NA 
HETATM   28  H   UNL     1      -5.136  18.237  69.340  1.00  0.00     0.000 HD 
HETATM   29  C   UNL     1      -6.999  18.465  68.336  1.00  0.00    -0.253 A  
HETATM   30  C   UNL     1      -8.124  17.644  68.328  1.00  0.00    -0.278 A  
HETATM   31  C   UNL     1      -9.242  18.030  67.552  1.00  0.00    -0.253 A  
HETATM   32  C   UNL     1      -9.196  19.229  66.829  1.00  0.00    -0.367 A  
HETATM   33  C   UNL     1      -8.054  20.031  66.864  1.00  0.00    -0.361 A  
HETATM   34  C   UNL     1     -10.332  19.631  66.048  1.00  0.00    -0.523 C  
HETATM   35  N   UNL     1     -11.248  19.966  65.417  1.00  0.00    -0.118 NA 
HETATM   36  C   UNL     1      -6.932  19.663  67.617  1.00  0.00    -0.274 A  
ENDBRANCH  24  25
ENDBRANCH  23  24
ENDBRANCH  22  23
ENDBRANCH  21  22
ENDBRANCH  17  21
ENDBRANCH  10  15
ENDBRANCH   2   6
TORSDOF 7
ENDMDL
MODEL      221
REMARK 921   NORMALIZED FREE ENERGY PREDICTED BY IDOCK:   -4.15 KCAL/MOL
REMARK 922        TOTAL FREE ENERGY PREDICTED BY IDOCK:   -7.12 KCAL/MOL
REMARK 923 INTER-LIGAND FREE ENERGY PREDICTED BY IDOCK:   -6.36 KCAL/MOL
REMARK 924 INTRA-LIGAND FREE ENERGY PREDICTED BY IDOCK:   -0.76 KCAL/MOL
REMARK 927      BINDING AFFINITY PREDICTED BY RF-SCORE:    0.00 PKD
ROOT
HETATM    1  N   UNL     1      -8.142   2.468  72.595  1.00  0.00    -0.054 N  
HETATM    2  C   UNL     1      -9.119   2.912  71.751  1.00  0.00    -0.096 C  
HETATM    3  H1  UNL     1      -7.303   3.027  72.748  1.00  0.00     0.000 HD 
HETATM    4  H2  UNL     1      -8.251   1.575  73.075  1.00  0.00     0.000 HD 
HETATM    5  O   UNL     1     -10.129   2.239  71.567  1.00  0.00    -0.126 OA 
ENDROOT
BRANCH   2   6
HETATM    6  C   UNL     1      -8.869   4.196  71.144  1.00  0.00    -0.106 A  
HETATM    7  C   UNL     1      -9.576   4.883  70.176  1.00  0.00    -0.263 A  
HETATM    8  C   UNL     1      -8.913   6.118  69.981  1.00  0.00    -0.148 A  
HETATM    9  C   UNL     1      -9.125   7.253  69.179  1.00  0.00    -0.137 A  
HETATM   10  C   UNL     1      -8.234   8.343  69.222  1.00  0.00    -0.116 A  
HETATM   11  C   UNL     1      -7.134   8.245  70.094  1.00  0.00    -0.040 A  
HETATM   12  O   UNL     1      -7.783   4.938  71.537  1.00  0.00    -0.090 OA 
HETATM   13  C   UNL     1      -7.816   6.099  70.827  1.00  0.00    -0.103 A  
HETATM   14  C   UNL     1      -6.897   7.133  70.918  1.00  0.00    -0.053 A  
BRANCH  10  15
HETATM   15  N   UNL     1      -8.421   9.449  68.417  1.00  0.00    -0.119 NA 
HETATM   16  C   UNL     1      -8.264  10.824  68.917  1.00  0.00    -0.149 C  
HETATM   17  N   UNL     1      -7.916  11.648  66.535  1.00  0.00    -0.106 NA 
HETATM   18  C   UNL     1      -7.403  11.641  67.929  1.00  0.00    -0.096 C  
HETATM   19  C   UNL     1      -8.893   9.335  67.027  1.00  0.00    -0.123 C  
HETATM   20  C   UNL     1      -8.041  10.235  66.099  1.00  0.00    -0.133 C  
BRANCH  17  21
HETATM   21  C   UNL     1      -9.205  12.348  66.415  1.00  0.00    -0.192 C  
BRANCH  21  22
HETATM   22  C   UNL     1      -9.994  11.949  65.159  1.00  0.00    -0.276 C  
BRANCH  22  23
HETATM   23  C   UNL     1     -10.886  13.066  64.610  1.00  0.00    -0.373 C  
BRANCH  23  24
HETATM   24  C   UNL     1     -12.093  13.318  65.513  1.00  0.00    -0.480 C  
BRANCH  24  25
HETATM   25  C   UNL     1     -11.801  14.304  66.589  1.00  0.00    -0.442 A  
HETATM   26  C   UNL     1     -11.428  15.622  66.413  1.00  0.00     0.180 A  
HETATM   27  N   UNL     1     -11.231  16.175  67.648  1.00  0.00    -0.214 NA 
HETATM   28  H   UNL     1     -10.946  17.140  67.815  1.00  0.00     0.000 HD 
HETATM   29  C   UNL     1     -11.470  15.245  68.633  1.00  0.00    -0.337 A  
HETATM   30  C   UNL     1     -11.840  14.062  67.999  1.00  0.00    -0.403 A  
HETATM   31  C   UNL     1     -12.154  12.935  68.793  1.00  0.00    -0.175 A  
HETATM   32  C   UNL     1     -12.071  13.031  70.188  1.00  0.00    -0.377 A  
HETATM   33  C   UNL     1     -11.691  14.232  70.791  1.00  0.00    -0.270 A  
HETATM   34  C   UNL     1     -12.379  11.887  70.999  1.00  0.00    -0.259 C  
HETATM   35  N   UNL     1     -12.623  10.965  71.662  1.00  0.00    -0.364 NA 
HETATM   36  C   UNL     1     -11.385  15.364  70.024  1.00  0.00    -0.322 A  
ENDBRANCH  24  25
ENDBRANCH  23  24
ENDBRANCH  22  23
ENDBRANCH  21  22
ENDBRANCH  17  21
ENDBRANCH  10  15
ENDBRANCH   2   6
TORSDOF 7
ENDMDL
MODEL      222
REMARK 921   NORMALIZED FREE ENERGY PREDICTED BY IDOCK:   -4.13 KCAL/MOL
REMARK 922        TOTAL FREE ENERGY PREDICTED BY IDOCK:   -7.10 KCAL/MOL
REMARK 923 INTER-LIGAND FREE ENERGY PREDICTED BY IDOCK:   -6.34 KCAL/MOL
REMARK 924 INTRA-LIGAND FREE ENERGY PREDICTED BY IDOCK:   -0.76 KCAL/MOL
REMARK 927      BINDING AFFINITY PREDICTED BY RF-SCORE:    0.00 PKD
ROOT
HETATM    1  N   UNL     1      -5.333   3.324  67.304  1.00  0.00    -0.015 N  
HETATM    2  C   UNL     1      -6.694   3.383  67.202  1.00  0.00    -0.045 C  
HETATM    3  H1  UNL     1      -4.822   4.064  67.786  1.00  0.00     0.000 HD 
HETATM    4  H2  UNL     1      -4.826   2.538  66.897  1.00  0.00     0.000 HD 
HETATM    5  O   UNL     1      -7.309   2.493  66.622  1.00  0.00    -0.066 OA 
ENDROOT
BRANCH   2   6
HETATM    6  C   UNL     1      -7.307   4.527  67.832  1.00  0.00    -0.066 A  
HETATM    7  C   UNL     1      -8.171   5.476  67.319  1.00  0.00    -0.101 A  
HETATM    8  C   UNL     1      -8.499   6.350  68.382  1.00  0.00    -0.116 A  
HETATM    9  C   UNL     1      -9.325   7.478  68.534  1.00  0.00    -0.142 A  
HETATM   10  C   UNL     1      -9.418   8.142  69.772  1.00  0.00    -0.159 A  
HETATM   11  C   UNL     1      -8.655   7.632  70.839  1.00  0.00    -0.129 A  
HETATM   12  O   UNL     1      -7.065   4.790  69.157  1.00  0.00    -0.050 OA 
HETATM   13  C   UNL     1      -7.789   5.896  69.482  1.00  0.00    -0.098 A  
HETATM   14  C   UNL     1      -7.830   6.502  70.728  1.00  0.00    -0.106 A  
BRANCH  10  15
HETATM   15  N   UNL     1     -10.205   9.267  69.921  1.00  0.00    -0.201 NA 
HETATM   16  C   UNL     1     -10.281  10.317  68.894  1.00  0.00    -0.205 C  
HETATM   17  N   UNL     1     -12.507  11.092  69.854  1.00  0.00    -0.271 NA 
HETATM   18  C   UNL     1     -11.758  10.686  68.636  1.00  0.00    -0.158 C  
HETATM   19  C   UNL     1     -10.943   9.547  71.164  1.00  0.00    -0.368 C  
HETATM   20  C   UNL     1     -12.392   9.985  70.836  1.00  0.00    -0.341 C  
BRANCH  17  21
HETATM   21  C   UNL     1     -12.008  12.353  70.425  1.00  0.00    -0.257 C  
BRANCH  21  22
HETATM   22  C   UNL     1     -11.683  13.411  69.360  1.00  0.00    -0.382 C  
BRANCH  22  23
HETATM   23  C   UNL     1     -11.813  14.851  69.862  1.00  0.00    -0.355 C  
BRANCH  23  24
HETATM   24  C   UNL     1     -11.785  15.854  68.710  1.00  0.00    -0.355 C  
BRANCH  24  25
HETATM   25  C   UNL     1     -10.480  16.564  68.607  1.00  0.00    -0.304 A  
HETATM   26  C   UNL     1     -10.268  17.917  68.785  1.00  0.00    -0.360 A  
HETATM   27  N   UNL     1      -8.941  18.169  68.579  1.00  0.00    -0.302 NA 
HETATM   28  H   UNL     1      -8.506  19.089  68.644  1.00  0.00     0.000 HD 
HETATM   29  C   UNL     1      -8.275  17.006  68.269  1.00  0.00    -0.227 A  
HETATM   30  C   UNL     1      -9.214  15.979  68.288  1.00  0.00    -0.191 A  
HETATM   31  C   UNL     1      -8.786  14.660  68.010  1.00  0.00    -0.167 A  
HETATM   32  C   UNL     1      -7.438  14.424  67.709  1.00  0.00    -0.182 A  
HETATM   33  C   UNL     1      -6.523  15.479  67.693  1.00  0.00    -0.194 A  
HETATM   34  C   UNL     1      -6.999  13.089  67.416  1.00  0.00    -0.116 C  
HETATM   35  N   UNL     1      -6.636  12.012  67.174  1.00  0.00    -0.150 NA 
HETATM   36  C   UNL     1      -6.924  16.791  67.975  1.00  0.00    -0.156 A  
ENDBRANCH  24  25
ENDBRANCH  23  24
ENDBRANCH  22  23
ENDBRANCH  21  22
ENDBRANCH  17  21
ENDBRANCH  10  15
ENDBRANCH   2   6
TORSDOF 7
ENDMDL
MODEL      223
REMARK 921   NORMALIZED FREE ENERGY PREDICTED BY IDOCK:   -4.13 KCAL/MOL
REMARK 922        TOTAL FREE ENERGY PREDICTED BY IDOCK:   -7.09 KCAL/MOL
REMARK 923 INTER-LIGAND FREE ENERGY PREDICTED BY IDOCK:   -6.65 KCAL/MOL
REMARK 924 INTRA-LIGAND FREE ENERGY PREDICTED BY IDOCK:   -0.44 KCAL/MOL
REMARK 927      BINDING AFFINITY PREDICTED BY RF-SCORE:    0.00 PKD
ROOT
HETATM    1  N   UNL     1     -12.355   1.900  73.679  1.00  0.00    -0.038 N  
HETATM    2  C   UNL     1     -11.011   2.138  73.632  1.00  0.00    -0.188 C  
HETATM    3  H1  UNL     1     -12.985   2.393  73.047  1.00  0.00     0.000 HD 
HETATM    4  H2  UNL     1     -12.728   1.227  74.348  1.00  0.00     0.000 HD 
HETATM    5  O   UNL     1     -10.251   1.545  74.392  1.00  0.00    -0.087 OA 
ENDROOT
BRANCH   2   6
HETATM    6  C   UNL     1     -10.591   3.092  72.634  1.00  0.00    -0.034 A  
HETATM    7  C   UNL     1     -10.722   4.467  72.598  1.00  0.00    -0.204 A  
HETATM    8  C   UNL     1     -10.094   4.908  71.409  1.00  0.00    -0.268 A  
HETATM    9  C   UNL     1      -9.859   6.155  70.803  1.00  0.00    -0.220 A  
HETATM   10  C   UNL     1      -9.189   6.242  69.567  1.00  0.00    -0.139 A  
HETATM   11  C   UNL     1      -8.771   5.037  68.971  1.00  0.00    -0.101 A  
HETATM   12  O   UNL     1      -9.936   2.660  71.507  1.00  0.00    -0.157 OA 
HETATM   13  C   UNL     1      -9.640   3.765  70.770  1.00  0.00    -0.179 A  
HETATM   14  C   UNL     1      -8.978   3.776  69.552  1.00  0.00    -0.168 A  
BRANCH  10  15
HETATM   15  N   UNL     1      -8.980   7.461  68.954  1.00  0.00    -0.131 NA 
HETATM   16  C   UNL     1      -8.603   7.576  67.537  1.00  0.00    -0.122 C  
HETATM   17  N   UNL     1      -9.449   9.975  67.508  1.00  0.00    -0.147 NA 
HETATM   18  C   UNL     1      -9.482   8.643  66.850  1.00  0.00    -0.180 C  
HETATM   19  C   UNL     1      -9.015   8.730  69.700  1.00  0.00    -0.145 C  
HETATM   20  C   UNL     1      -9.846   9.782  68.925  1.00  0.00    -0.173 C  
BRANCH  17  21
HETATM   21  C   UNL     1      -8.126  10.613  67.417  1.00  0.00    -0.112 C  
BRANCH  21  22
HETATM   22  C   UNL     1      -8.029  11.917  68.222  1.00  0.00    -0.148 C  
BRANCH  22  23
HETATM   23  C   UNL     1      -8.066  13.180  67.358  1.00  0.00    -0.181 C  
BRANCH  23  24
HETATM   24  C   UNL     1      -8.286  14.434  68.202  1.00  0.00    -0.149 C  
BRANCH  24  25
HETATM   25  C   UNL     1      -8.896  15.545  67.420  1.00  0.00    -0.203 A  
HETATM   26  C   UNL     1      -8.645  16.894  67.581  1.00  0.00    -0.208 A  
HETATM   27  N   UNL     1      -9.423  17.579  66.690  1.00  0.00    -0.266 NA 
HETATM   28  H   UNL     1      -9.439  18.594  66.592  1.00  0.00     0.000 HD 
HETATM   29  C   UNL     1     -10.180  16.705  65.945  1.00  0.00    -0.340 A  
HETATM   30  C   UNL     1      -9.864  15.419  66.375  1.00  0.00    -0.301 A  
HETATM   31  C   UNL     1     -10.504  14.320  65.757  1.00  0.00    -0.326 A  
HETATM   32  C   UNL     1     -11.445  14.551  64.745  1.00  0.00    -0.408 A  
HETATM   33  C   UNL     1     -11.742  15.855  64.343  1.00  0.00    -0.179 A  
HETATM   34  C   UNL     1     -12.105  13.439  64.121  1.00  0.00    -0.433 C  
HETATM   35  N   UNL     1     -12.646  12.545  63.614  1.00  0.00    -0.742 NA 
HETATM   36  C   UNL     1     -11.114  16.957  64.934  1.00  0.00     0.029 A  
ENDBRANCH  24  25
ENDBRANCH  23  24
ENDBRANCH  22  23
ENDBRANCH  21  22
ENDBRANCH  17  21
ENDBRANCH  10  15
ENDBRANCH   2   6
TORSDOF 7
ENDMDL
MODEL      224
REMARK 921   NORMALIZED FREE ENERGY PREDICTED BY IDOCK:   -4.12 KCAL/MOL
REMARK 922        TOTAL FREE ENERGY PREDICTED BY IDOCK:   -7.09 KCAL/MOL
REMARK 923 INTER-LIGAND FREE ENERGY PREDICTED BY IDOCK:   -6.31 KCAL/MOL
REMARK 924 INTRA-LIGAND FREE ENERGY PREDICTED BY IDOCK:   -0.78 KCAL/MOL
REMARK 927      BINDING AFFINITY PREDICTED BY RF-SCORE:    0.00 PKD
ROOT
HETATM    1  N   UNL     1     -11.211   2.476  63.452  1.00  0.00    -0.319 N  
HETATM    2  C   UNL     1      -9.981   2.504  64.044  1.00  0.00    -0.116 C  
HETATM    3  H1  UNL     1     -11.862   3.251  63.584  1.00  0.00     0.000 HD 
HETATM    4  H2  UNL     1     -11.480   1.679  62.877  1.00  0.00     0.000 HD 
HETATM    5  O   UNL     1      -9.198   1.572  63.886  1.00  0.00    -0.092 OA 
ENDROOT
BRANCH   2   6
HETATM    6  C   UNL     1      -9.699   3.689  64.818  1.00  0.00    -0.178 A  
HETATM    7  C   UNL     1      -8.554   4.459  64.891  1.00  0.00    -0.130 A  
HETATM    8  C   UNL     1      -8.836   5.532  65.770  1.00  0.00    -0.154 A  
HETATM    9  C   UNL     1      -8.130   6.652  66.243  1.00  0.00    -0.115 A  
HETATM   10  C   UNL     1      -8.725   7.549  67.152  1.00  0.00    -0.121 A  
HETATM   11  C   UNL     1     -10.044   7.275  67.562  1.00  0.00    -0.250 A  
HETATM   12  O   UNL     1     -10.667   4.221  65.633  1.00  0.00    -0.169 OA 
HETATM   13  C   UNL     1     -10.137   5.335  66.206  1.00  0.00    -0.207 A  
HETATM   14  C   UNL     1     -10.783   6.173  67.102  1.00  0.00    -0.422 A  
BRANCH  10  15
HETATM   15  N   UNL     1      -8.029   8.635  67.642  1.00  0.00    -0.106 NA 
HETATM   16  C   UNL     1      -6.634   8.912  67.267  1.00  0.00    -0.062 C  
HETATM   17  N   UNL     1      -6.936  11.346  67.942  1.00  0.00    -0.071 NA 
HETATM   18  C   UNL     1      -6.483  10.402  66.889  1.00  0.00    -0.076 C  
HETATM   19  C   UNL     1      -8.598   9.536  68.659  1.00  0.00    -0.119 C  
HETATM   20  C   UNL     1      -8.347  11.012  68.263  1.00  0.00    -0.133 C  
BRANCH  17  21
HETATM   21  C   UNL     1      -6.097  11.285  69.150  1.00  0.00    -0.053 C  
BRANCH  21  22
HETATM   22  C   UNL     1      -5.924  12.649  69.833  1.00  0.00    -0.141 C  
BRANCH  22  23
HETATM   23  C   UNL     1      -6.251  13.839  68.927  1.00  0.00    -0.091 C  
BRANCH  23  24
HETATM   24  C   UNL     1      -6.530  15.104  69.736  1.00  0.00    -0.166 C  
BRANCH  24  25
HETATM   25  C   UNL     1      -7.620  15.928  69.145  1.00  0.00    -0.213 A  
HETATM   26  C   UNL     1      -7.591  17.292  68.929  1.00  0.00    -0.235 A  
HETATM   27  N   UNL     1      -8.794  17.663  68.397  1.00  0.00    -0.276 NA 
HETATM   28  H   UNL     1      -9.048  18.617  68.140  1.00  0.00     0.000 HD 
HETATM   29  C   UNL     1      -9.614  16.568  68.257  1.00  0.00    -0.223 A  
HETATM   30  C   UNL     1      -8.901  15.461  68.710  1.00  0.00    -0.196 A  
HETATM   31  C   UNL     1      -9.518  14.190  68.666  1.00  0.00    -0.163 A  
HETATM   32  C   UNL     1     -10.829  14.078  68.185  1.00  0.00    -0.260 A  
HETATM   33  C   UNL     1     -11.517  15.210  67.743  1.00  0.00    -0.329 A  
HETATM   34  C   UNL     1     -11.465  12.791  68.147  1.00  0.00    -0.314 C  
HETATM   35  N   UNL     1     -11.987  11.754  68.117  1.00  0.00    -0.557 NA 
HETATM   36  C   UNL     1     -10.922  16.477  67.769  1.00  0.00    -0.252 A  
ENDBRANCH  24  25
ENDBRANCH  23  24
ENDBRANCH  22  23
ENDBRANCH  21  22
ENDBRANCH  17  21
ENDBRANCH  10  15
ENDBRANCH   2   6
TORSDOF 7
ENDMDL
MODEL      225
REMARK 921   NORMALIZED FREE ENERGY PREDICTED BY IDOCK:   -4.09 KCAL/MOL
REMARK 922        TOTAL FREE ENERGY PREDICTED BY IDOCK:   -7.04 KCAL/MOL
REMARK 923 INTER-LIGAND FREE ENERGY PREDICTED BY IDOCK:   -6.39 KCAL/MOL
REMARK 924 INTRA-LIGAND FREE ENERGY PREDICTED BY IDOCK:   -0.65 KCAL/MOL
REMARK 927      BINDING AFFINITY PREDICTED BY RF-SCORE:    0.00 PKD
ROOT
HETATM    1  N   UNL     1      -7.884   1.828  70.845  1.00  0.00    -0.035 N  
HETATM    2  C   UNL     1      -8.877   2.231  71.691  1.00  0.00    -0.074 C  
HETATM    3  H1  UNL     1      -7.555   2.449  70.106  1.00  0.00     0.000 HD 
HETATM    4  H2  UNL     1      -7.470   0.902  70.952  1.00  0.00     0.000 HD 
HETATM    5  O   UNL     1      -9.272   1.483  72.580  1.00  0.00    -0.070 OA 
ENDROOT
BRANCH   2   6
HETATM    6  C   UNL     1      -9.375   3.565  71.462  1.00  0.00    -0.139 A  
HETATM    7  C   UNL     1     -10.074   4.416  72.295  1.00  0.00    -0.253 A  
HETATM    8  C   UNL     1     -10.272   5.621  71.581  1.00  0.00    -0.261 A  
HETATM    9  C   UNL     1     -10.872   6.863  71.856  1.00  0.00    -0.258 A  
HETATM   10  C   UNL     1     -10.906   7.879  70.881  1.00  0.00    -0.234 A  
HETATM   11  C   UNL     1     -10.321   7.598  69.632  1.00  0.00    -0.213 A  
HETATM   12  O   UNL     1      -9.155   4.179  70.253  1.00  0.00    -0.086 OA 
HETATM   13  C   UNL     1      -9.702   5.422  70.333  1.00  0.00    -0.192 A  
HETATM   14  C   UNL     1      -9.703   6.375  69.326  1.00  0.00    -0.150 A  
BRANCH  10  15
HETATM   15  N   UNL     1     -11.518   9.091  71.135  1.00  0.00    -0.287 NA 
HETATM   16  C   UNL     1     -11.376  10.249  70.240  1.00  0.00    -0.323 C  
HETATM   17  N   UNL     1     -13.505  11.254  71.205  1.00  0.00     0.122 NA 
HETATM   18  C   UNL     1     -12.763  10.874  69.975  1.00  0.00    -0.109 C  
HETATM   19  C   UNL     1     -12.270   9.343  72.376  1.00  0.00    -0.050 C  
HETATM   20  C   UNL     1     -13.615  10.039  72.052  1.00  0.00    -0.269 C  
BRANCH  17  21
HETATM   21  C   UNL     1     -12.850  12.347  71.941  1.00  0.00    -0.210 C  
BRANCH  21  22
HETATM   22  C   UNL     1     -13.841  13.245  72.694  1.00  0.00    -0.393 C  
BRANCH  22  23
HETATM   23  C   UNL     1     -13.927  14.669  72.140  1.00  0.00    -0.591 C  
BRANCH  23  24
HETATM   24  C   UNL     1     -13.494  14.732  70.676  1.00  0.00    -0.127 C  
BRANCH  24  25
HETATM   25  C   UNL     1     -12.056  15.086  70.523  1.00  0.00    -0.379 A  
HETATM   26  C   UNL     1     -11.225  15.579  71.510  1.00  0.00    -0.330 A  
HETATM   27  N   UNL     1      -9.993  15.797  70.957  1.00  0.00     0.809 NA 
HETATM   28  H   UNL     1      -9.186  16.162  71.461  1.00  0.00     0.000 HD 
HETATM   29  C   UNL     1      -9.999  15.455  69.625  1.00  0.00    -0.264 A  
HETATM   30  C   UNL     1     -11.279  14.995  69.325  1.00  0.00    -0.297 A  
HETATM   31  C   UNL     1     -11.555  14.565  68.007  1.00  0.00    -0.364 A  
HETATM   32  C   UNL     1     -10.546  14.625  67.037  1.00  0.00    -0.280 A  
HETATM   33  C   UNL     1      -9.274  15.098  67.372  1.00  0.00    -0.199 A  
HETATM   34  C   UNL     1     -10.823  14.199  65.695  1.00  0.00    -0.305 C  
HETATM   35  N   UNL     1     -11.041  13.860  64.605  1.00  0.00    -0.378 NA 
HETATM   36  C   UNL     1      -8.976  15.520  68.673  1.00  0.00    -0.194 A  
ENDBRANCH  24  25
ENDBRANCH  23  24
ENDBRANCH  22  23
ENDBRANCH  21  22
ENDBRANCH  17  21
ENDBRANCH  10  15
ENDBRANCH   2   6
TORSDOF 7
ENDMDL
MODEL      226
REMARK 921   NORMALIZED FREE ENERGY PREDICTED BY IDOCK:   -4.07 KCAL/MOL
REMARK 922        TOTAL FREE ENERGY PREDICTED BY IDOCK:   -7.02 KCAL/MOL
REMARK 923 INTER-LIGAND FREE ENERGY PREDICTED BY IDOCK:   -5.49 KCAL/MOL
REMARK 924 INTRA-LIGAND FREE ENERGY PREDICTED BY IDOCK:   -1.53 KCAL/MOL
REMARK 927      BINDING AFFINITY PREDICTED BY RF-SCORE:    0.00 PKD
ROOT
HETATM    1  N   UNL     1      -5.367  13.405  67.819  1.00  0.00    -0.102 N  
HETATM    2  C   UNL     1      -6.625  12.875  67.810  1.00  0.00    -0.140 C  
HETATM    3  H1  UNL     1      -4.583  12.864  68.184  1.00  0.00     0.000 HD 
HETATM    4  H2  UNL     1      -5.209  14.347  67.459  1.00  0.00     0.000 HD 
HETATM    5  O   UNL     1      -7.567  13.527  67.370  1.00  0.00    -0.165 OA 
ENDROOT
BRANCH   2   6
HETATM    6  C   UNL     1      -6.727  11.530  68.322  1.00  0.00    -0.064 A  
HETATM    7  C   UNL     1      -7.029  11.075  69.591  1.00  0.00    -0.110 A  
HETATM    8  C   UNL     1      -7.038   9.662  69.530  1.00  0.00    -0.072 A  
HETATM    9  C   UNL     1      -7.290   8.620  70.441  1.00  0.00    -0.060 A  
HETATM   10  C   UNL     1      -7.198   7.273  70.040  1.00  0.00    -0.078 A  
HETATM   11  C   UNL     1      -6.843   7.019  68.702  1.00  0.00    -0.076 A  
HETATM   12  O   UNL     1      -6.520  10.461  67.485  1.00  0.00    -0.058 OA 
HETATM   13  C   UNL     1      -6.708   9.334  68.224  1.00  0.00    -0.060 A  
HETATM   14  C   UNL     1      -6.595   8.032  67.762  1.00  0.00    -0.057 A  
BRANCH  10  15
HETATM   15  N   UNL     1      -7.417   6.246  70.936  1.00  0.00    -0.086 NA 
HETATM   16  C   UNL     1      -7.265   4.831  70.566  1.00  0.00    -0.049 C  
HETATM   17  N   UNL     1      -6.987   4.221  73.020  1.00  0.00    -0.060 NA 
HETATM   18  C   UNL     1      -6.439   4.097  71.645  1.00  0.00    -0.018 C  
HETATM   19  C   UNL     1      -7.923   6.490  72.298  1.00  0.00    -0.102 C  
HETATM   20  C   UNL     1      -7.105   5.668  73.325  1.00  0.00    -0.086 C  
BRANCH  17  21
HETATM   21  C   UNL     1      -8.287   3.547  73.169  1.00  0.00    -0.079 C  
BRANCH  21  22
HETATM   22  C   UNL     1      -9.439   4.518  73.461  1.00  0.00    -0.127 C  
BRANCH  22  23
HETATM   23  C   UNL     1     -10.558   4.480  72.417  1.00  0.00    -0.205 C  
BRANCH  23  24
HETATM   24  C   UNL     1     -11.636   5.522  72.708  1.00  0.00    -0.298 C  
BRANCH  24  25
HETATM   25  C   UNL     1     -11.374   6.818  72.024  1.00  0.00    -0.308 A  
HETATM   26  C   UNL     1     -11.353   8.066  72.615  1.00  0.00    -0.405 A  
HETATM   27  N   UNL     1     -11.102   8.992  71.641  1.00  0.00    -0.339 NA 
HETATM   28  H   UNL     1     -11.034   9.998  71.797  1.00  0.00     0.000 HD 
HETATM   29  C   UNL     1     -10.957   8.376  70.420  1.00  0.00    -0.239 A  
HETATM   30  C   UNL     1     -11.113   7.009  70.630  1.00  0.00    -0.307 A  
HETATM   31  C   UNL     1     -10.999   6.133  69.525  1.00  0.00    -0.463 A  
HETATM   32  C   UNL     1     -10.749   6.662  68.252  1.00  0.00    -0.317 A  
HETATM   33  C   UNL     1     -10.604   8.040  68.076  1.00  0.00    -0.190 A  
HETATM   34  C   UNL     1     -10.643   5.780  67.124  1.00  0.00    -0.291 C  
HETATM   35  N   UNL     1     -10.559   5.073  66.206  1.00  0.00    -0.316 NA 
HETATM   36  C   UNL     1     -10.703   8.924  69.158  1.00  0.00    -0.162 A  
ENDBRANCH  24  25
ENDBRANCH  23  24
ENDBRANCH  22  23
ENDBRANCH  21  22
ENDBRANCH  17  21
ENDBRANCH  10  15
ENDBRANCH   2   6
TORSDOF 7
ENDMDL
MODEL      227
REMARK 921   NORMALIZED FREE ENERGY PREDICTED BY IDOCK:   -4.07 KCAL/MOL
REMARK 922        TOTAL FREE ENERGY PREDICTED BY IDOCK:   -7.01 KCAL/MOL
REMARK 923 INTER-LIGAND FREE ENERGY PREDICTED BY IDOCK:   -6.22 KCAL/MOL
REMARK 924 INTRA-LIGAND FREE ENERGY PREDICTED BY IDOCK:   -0.79 KCAL/MOL
REMARK 927      BINDING AFFINITY PREDICTED BY RF-SCORE:    0.00 PKD
ROOT
HETATM    1  N   UNL     1     -13.872  15.500  70.588  1.00  0.00    -0.834 N  
HETATM    2  C   UNL     1     -12.510  15.422  70.637  1.00  0.00    -0.428 C  
HETATM    3  H1  UNL     1     -14.395  14.932  69.921  1.00  0.00     0.000 HD 
HETATM    4  H2  UNL     1     -14.369  16.128  71.220  1.00  0.00     0.000 HD 
HETATM    5  O   UNL     1     -11.881  16.105  71.440  1.00  0.00    -0.441 OA 
ENDROOT
BRANCH   2   6
HETATM    6  C   UNL     1     -11.914  14.488  69.714  1.00  0.00    -0.332 A  
HETATM    7  C   UNL     1     -10.870  13.599  69.886  1.00  0.00     0.341 A  
HETATM    8  C   UNL     1     -10.727  12.892  68.669  1.00  0.00    -0.273 A  
HETATM    9  C   UNL     1      -9.892  11.862  68.201  1.00  0.00    -0.192 A  
HETATM   10  C   UNL     1     -10.012  11.380  66.883  1.00  0.00    -0.206 A  
HETATM   11  C   UNL     1     -10.992  11.971  66.063  1.00  0.00    -0.346 A  
HETATM   12  O   UNL     1     -12.405  14.382  68.436  1.00  0.00    -0.203 OA 
HETATM   13  C   UNL     1     -11.680  13.415  67.809  1.00  0.00    -0.359 A  
HETATM   14  C   UNL     1     -11.850  12.993  66.500  1.00  0.00    -0.464 A  
BRANCH  10  15
HETATM   15  N   UNL     1      -9.177  10.388  66.407  1.00  0.00    -0.159 NA 
HETATM   16  C   UNL     1      -9.621   9.387  65.426  1.00  0.00    -0.226 C  
HETATM   17  N   UNL     1      -7.199   8.946  64.783  1.00  0.00    -0.091 NA 
HETATM   18  C   UNL     1      -8.569   9.259  64.302  1.00  0.00    -0.193 C  
HETATM   19  C   UNL     1      -7.813  10.196  66.929  1.00  0.00    -0.107 C  
HETATM   20  C   UNL     1      -6.818   9.997  65.759  1.00  0.00    -0.111 C  
BRANCH  17  21
HETATM   21  C   UNL     1      -7.110   7.609  65.392  1.00  0.00    -0.063 C  
BRANCH  21  22
HETATM   22  C   UNL     1      -8.180   6.638  64.874  1.00  0.00    -0.085 C  
BRANCH  22  23
HETATM   23  C   UNL     1      -8.817   5.779  65.970  1.00  0.00    -0.150 C  
BRANCH  23  24
HETATM   24  C   UNL     1      -8.597   6.382  67.357  1.00  0.00    -0.107 C  
BRANCH  24  25
HETATM   25  C   UNL     1      -8.065   5.388  68.330  1.00  0.00    -0.091 A  
HETATM   26  C   UNL     1      -7.659   4.099  68.045  1.00  0.00    -0.068 A  
HETATM   27  N   UNL     1      -7.265   3.511  69.215  1.00  0.00    -0.049 NA 
HETATM   28  H   UNL     1      -6.918   2.556  69.298  1.00  0.00     0.000 HD 
HETATM   29  C   UNL     1      -7.403   4.390  70.263  1.00  0.00    -0.049 A  
HETATM   30  C   UNL     1      -7.895   5.582  69.737  1.00  0.00    -0.082 A  
HETATM   31  C   UNL     1      -8.121   6.669  70.612  1.00  0.00    -0.112 A  
HETATM   32  C   UNL     1      -7.861   6.517  71.980  1.00  0.00    -0.099 A  
HETATM   33  C   UNL     1      -7.373   5.305  72.475  1.00  0.00    -0.094 A  
HETATM   34  C   UNL     1      -8.098   7.614  72.876  1.00  0.00    -0.115 C  
HETATM   35  N   UNL     1      -8.291   8.496  73.607  1.00  0.00    -0.380 NA 
HETATM   36  C   UNL     1      -7.132   4.219  71.625  1.00  0.00    -0.050 A  
ENDBRANCH  24  25
ENDBRANCH  23  24
ENDBRANCH  22  23
ENDBRANCH  21  22
ENDBRANCH  17  21
ENDBRANCH  10  15
ENDBRANCH   2   6
TORSDOF 7
ENDMDL
MODEL      228
REMARK 921   NORMALIZED FREE ENERGY PREDICTED BY IDOCK:   -4.07 KCAL/MOL
REMARK 922        TOTAL FREE ENERGY PREDICTED BY IDOCK:   -7.01 KCAL/MOL
REMARK 923 INTER-LIGAND FREE ENERGY PREDICTED BY IDOCK:   -5.87 KCAL/MOL
REMARK 924 INTRA-LIGAND FREE ENERGY PREDICTED BY IDOCK:   -1.14 KCAL/MOL
REMARK 927      BINDING AFFINITY PREDICTED BY RF-SCORE:    0.00 PKD
ROOT
HETATM    1  N   UNL     1     -11.034  15.385  64.543  1.00  0.00    -0.680 N  
HETATM    2  C   UNL     1     -11.207  14.652  65.682  1.00  0.00    -0.342 C  
HETATM    3  H1  UNL     1     -10.466  15.020  63.779  1.00  0.00     0.000 HD 
HETATM    4  H2  UNL     1     -11.473  16.301  64.457  1.00  0.00     0.000 HD 
HETATM    5  O   UNL     1     -11.891  15.092  66.602  1.00  0.00    -0.229 OA 
ENDROOT
BRANCH   2   6
HETATM    6  C   UNL     1     -10.558  13.364  65.687  1.00  0.00    -0.282 A  
HETATM    7  C   UNL     1      -9.896  12.698  66.701  1.00  0.00    -0.245 A  
HETATM    8  C   UNL     1      -9.491  11.448  66.175  1.00  0.00    -0.237 A  
HETATM    9  C   UNL     1      -8.816  10.321  66.677  1.00  0.00    -0.148 A  
HETATM   10  C   UNL     1      -8.556   9.209  65.853  1.00  0.00    -0.151 A  
HETATM   11  C   UNL     1      -8.996   9.277  64.517  1.00  0.00    -0.183 A  
HETATM   12  O   UNL     1     -10.556  12.594  64.550  1.00  0.00    -0.307 OA 
HETATM   13  C   UNL     1      -9.907  11.437  64.853  1.00  0.00    -0.258 A  
HETATM   14  C   UNL     1      -9.682  10.380  63.985  1.00  0.00    -0.373 A  
BRANCH  10  15
HETATM   15  N   UNL     1      -7.870   8.111  66.331  1.00  0.00    -0.091 NA 
HETATM   16  C   UNL     1      -7.284   7.098  65.441  1.00  0.00    -0.070 C  
HETATM   17  N   UNL     1      -5.704   6.378  67.301  1.00  0.00    -0.012 NA 
HETATM   18  C   UNL     1      -5.835   6.794  65.880  1.00  0.00    -0.030 C  
HETATM   19  C   UNL     1      -7.765   7.820  67.771  1.00  0.00    -0.122 C  
HETATM   20  C   UNL     1      -6.307   7.448  68.135  1.00  0.00    -0.048 C  
BRANCH  17  21
HETATM   21  C   UNL     1      -6.347   5.081  67.568  1.00  0.00    -0.040 C  
BRANCH  21  22
HETATM   22  C   UNL     1      -6.595   4.828  69.062  1.00  0.00    -0.045 C  
BRANCH  22  23
HETATM   23  C   UNL     1      -7.909   4.100  69.354  1.00  0.00    -0.056 C  
BRANCH  23  24
HETATM   24  C   UNL     1      -9.095   5.063  69.375  1.00  0.00    -0.143 C  
BRANCH  24  25
HETATM   25  C   UNL     1      -9.567   5.354  70.756  1.00  0.00    -0.228 A  
HETATM   26  C   UNL     1     -10.654   4.783  71.388  1.00  0.00     0.023 A  
HETATM   27  N   UNL     1     -10.761   5.339  72.632  1.00  0.00    -0.226 NA 
HETATM   28  H   UNL     1     -11.480   5.101  73.316  1.00  0.00     0.000 HD 
HETATM   29  C   UNL     1      -9.763   6.264  72.831  1.00  0.00    -0.158 A  
HETATM   30  C   UNL     1      -8.991   6.289  71.674  1.00  0.00    -0.144 A  
HETATM   31  C   UNL     1      -7.878   7.160  71.618  1.00  0.00    -0.097 A  
HETATM   32  C   UNL     1      -7.591   7.982  72.715  1.00  0.00    -0.160 A  
HETATM   33  C   UNL     1      -8.391   7.935  73.859  1.00  0.00    -0.300 A  
HETATM   34  C   UNL     1      -6.469   8.875  72.661  1.00  0.00     0.074 C  
HETATM   35  N   UNL     1      -5.565   9.604  72.623  1.00  0.00    -0.287 NA 
HETATM   36  C   UNL     1      -9.492   7.073  73.940  1.00  0.00    -0.278 A  
ENDBRANCH  24  25
ENDBRANCH  23  24
ENDBRANCH  22  23
ENDBRANCH  21  22
ENDBRANCH  17  21
ENDBRANCH  10  15
ENDBRANCH   2   6
TORSDOF 7
ENDMDL
MODEL      229
REMARK 921   NORMALIZED FREE ENERGY PREDICTED BY IDOCK:   -4.06 KCAL/MOL
REMARK 922        TOTAL FREE ENERGY PREDICTED BY IDOCK:   -7.00 KCAL/MOL
REMARK 923 INTER-LIGAND FREE ENERGY PREDICTED BY IDOCK:   -6.35 KCAL/MOL
REMARK 924 INTRA-LIGAND FREE ENERGY PREDICTED BY IDOCK:   -0.65 KCAL/MOL
REMARK 927      BINDING AFFINITY PREDICTED BY RF-SCORE:    0.00 PKD
ROOT
HETATM    1  N   UNL     1     -10.281  20.061  69.815  1.00  0.00    -0.436 N  
HETATM    2  C   UNL     1     -10.187  19.473  68.586  1.00  0.00    -0.384 C  
HETATM    3  H1  UNL     1     -10.472  19.495  70.642  1.00  0.00     0.000 HD 
HETATM    4  H2  UNL     1     -10.160  21.070  69.906  1.00  0.00     0.000 HD 
HETATM    5  O   UNL     1      -9.958  20.153  67.591  1.00  0.00    -0.391 OA 
ENDROOT
BRANCH   2   6
HETATM    6  C   UNL     1     -10.354  18.039  68.578  1.00  0.00    -0.349 A  
HETATM    7  C   UNL     1      -9.864  17.085  67.707  1.00  0.00    -0.271 A  
HETATM    8  C   UNL     1     -10.295  15.827  68.191  1.00  0.00    -0.242 A  
HETATM    9  C   UNL     1     -10.124  14.489  67.794  1.00  0.00    -0.225 A  
HETATM   10  C   UNL     1     -10.720  13.440  68.521  1.00  0.00    -0.262 A  
HETATM   11  C   UNL     1     -11.488  13.788  69.648  1.00  0.00    -0.300 A  
HETATM   12  O   UNL     1     -11.092  17.431  69.563  1.00  0.00     0.290 OA 
HETATM   13  C   UNL     1     -11.052  16.092  69.321  1.00  0.00    -0.327 A  
HETATM   14  C   UNL     1     -11.671  15.111  70.080  1.00  0.00    -0.343 A  
BRANCH  10  15
HETATM   15  N   UNL     1     -10.579  12.126  68.122  1.00  0.00    -0.208 NA 
HETATM   16  C   UNL     1      -9.585  11.707  67.123  1.00  0.00    -0.175 C  
HETATM   17  N   UNL     1      -9.706   9.323  68.002  1.00  0.00    -0.147 NA 
HETATM   18  C   UNL     1      -8.827  10.462  67.633  1.00  0.00    -0.124 C  
HETATM   19  C   UNL     1     -11.487  11.064  68.589  1.00  0.00    -0.308 C  
HETATM   20  C   UNL     1     -10.674   9.817  69.014  1.00  0.00    -0.217 C  
BRANCH  17  21
HETATM   21  C   UNL     1     -10.408   8.756  66.840  1.00  0.00    -0.274 C  
BRANCH  21  22
HETATM   22  C   UNL     1     -10.969   7.351  67.100  1.00  0.00    -0.225 C  
BRANCH  22  23
HETATM   23  C   UNL     1      -9.945   6.231  66.899  1.00  0.00    -0.215 C  
BRANCH  23  24
HETATM   24  C   UNL     1     -10.548   5.043  66.151  1.00  0.00    -0.321 C  
BRANCH  24  25
HETATM   25  C   UNL     1      -9.510   4.099  65.653  1.00  0.00    -0.177 A  
HETATM   26  C   UNL     1      -9.223   3.820  64.332  1.00  0.00    -0.142 A  
HETATM   27  N   UNL     1      -8.227   2.884  64.302  1.00  0.00    -0.082 NA 
HETATM   28  H   UNL     1      -7.820   2.494  63.453  1.00  0.00     0.000 HD 
HETATM   29  C   UNL     1      -7.853   2.543  65.581  1.00  0.00    -0.078 A  
HETATM   30  C   UNL     1      -8.635   3.297  66.452  1.00  0.00    -0.121 A  
HETATM   31  C   UNL     1      -8.443   3.144  67.845  1.00  0.00    -0.104 A  
HETATM   32  C   UNL     1      -7.487   2.232  68.311  1.00  0.00    -0.047 A  
HETATM   33  C   UNL     1      -6.723   1.487  67.409  1.00  0.00    -0.031 A  
HETATM   34  C   UNL     1      -7.294   2.064  69.724  1.00  0.00    -0.043 C  
HETATM   35  N   UNL     1      -7.134   1.920  70.865  1.00  0.00    -0.032 NA 
HETATM   36  C   UNL     1      -6.890   1.631  66.026  1.00  0.00    -0.034 A  
ENDBRANCH  24  25
ENDBRANCH  23  24
ENDBRANCH  22  23
ENDBRANCH  21  22
ENDBRANCH  17  21
ENDBRANCH  10  15
ENDBRANCH   2   6
TORSDOF 7
ENDMDL
MODEL      230
REMARK 921   NORMALIZED FREE ENERGY PREDICTED BY IDOCK:   -4.06 KCAL/MOL
REMARK 922        TOTAL FREE ENERGY PREDICTED BY IDOCK:   -6.99 KCAL/MOL
REMARK 923 INTER-LIGAND FREE ENERGY PREDICTED BY IDOCK:   -6.57 KCAL/MOL
REMARK 924 INTRA-LIGAND FREE ENERGY PREDICTED BY IDOCK:   -0.43 KCAL/MOL
REMARK 927      BINDING AFFINITY PREDICTED BY RF-SCORE:    0.00 PKD
ROOT
HETATM    1  N   UNL     1     -11.702   2.665  73.478  1.00  0.00    -0.102 N  
HETATM    2  C   UNL     1     -10.339   2.752  73.517  1.00  0.00    -0.129 C  
HETATM    3  H1  UNL     1     -12.242   3.326  72.919  1.00  0.00     0.000 HD 
HETATM    4  H2  UNL     1     -12.180   1.938  74.009  1.00  0.00     0.000 HD 
HETATM    5  O   UNL     1      -9.689   1.958  74.189  1.00  0.00    -0.077 OA 
ENDROOT
BRANCH   2   6
HETATM    6  C   UNL     1      -9.768   3.804  72.711  1.00  0.00    -0.139 A  
HETATM    7  C   UNL     1     -10.372   4.859  72.056  1.00  0.00    -0.263 A  
HETATM    8  C   UNL     1      -9.339   5.614  71.453  1.00  0.00    -0.169 A  
HETATM    9  C   UNL     1      -9.274   6.790  70.684  1.00  0.00    -0.155 A  
HETATM   10  C   UNL     1      -8.039   7.280  70.218  1.00  0.00    -0.121 A  
HETATM   11  C   UNL     1      -6.884   6.547  70.551  1.00  0.00    -0.062 A  
HETATM   12  O   UNL     1      -8.409   3.856  72.518  1.00  0.00    -0.094 OA 
HETATM   13  C   UNL     1      -8.158   4.954  71.754  1.00  0.00    -0.113 A  
HETATM   14  C   UNL     1      -6.909   5.377  71.326  1.00  0.00    -0.053 A  
BRANCH  10  15
HETATM   15  N   UNL     1      -7.971   8.418  69.439  1.00  0.00    -0.110 NA 
HETATM   16  C   UNL     1      -7.138   8.498  68.230  1.00  0.00    -0.085 C  
HETATM   17  N   UNL     1      -8.558  10.430  67.381  1.00  0.00    -0.125 NA 
HETATM   18  C   UNL     1      -7.959   9.106  67.072  1.00  0.00    -0.102 C  
HETATM   19  C   UNL     1      -8.646   9.670  69.822  1.00  0.00    -0.199 C  
HETATM   20  C   UNL     1      -9.386  10.271  68.602  1.00  0.00    -0.162 C  
BRANCH  17  21
HETATM   21  C   UNL     1      -7.540  11.476  67.571  1.00  0.00    -0.121 C  
BRANCH  21  22
HETATM   22  C   UNL     1      -8.107  12.765  68.184  1.00  0.00    -0.158 C  
BRANCH  22  23
HETATM   23  C   UNL     1      -8.728  13.715  67.156  1.00  0.00    -0.224 C  
BRANCH  23  24
HETATM   24  C   UNL     1     -10.070  14.265  67.636  1.00  0.00    -0.229 C  
BRANCH  24  25
HETATM   25  C   UNL     1     -11.178  13.966  66.687  1.00  0.00    -0.328 A  
HETATM   26  C   UNL     1     -12.467  14.457  66.753  1.00  0.00    -0.019 A  
HETATM   27  N   UNL     1     -13.178  13.923  65.715  1.00  0.00    -0.608 NA 
HETATM   28  H   UNL     1     -14.161  14.114  65.523  1.00  0.00     0.000 HD 
HETATM   29  C   UNL     1     -12.379  13.091  64.966  1.00  0.00    -0.473 A  
HETATM   30  C   UNL     1     -11.114  13.105  65.547  1.00  0.00    -0.299 A  
HETATM   31  C   UNL     1     -10.087  12.330  64.959  1.00  0.00    -0.277 A  
HETATM   32  C   UNL     1     -10.370  11.561  63.823  1.00  0.00    -0.450 A  
HETATM   33  C   UNL     1     -11.653  11.565  63.270  1.00  0.00    -0.142 A  
HETATM   34  C   UNL     1      -9.335  10.764  63.228  1.00  0.00    -0.304 C  
HETATM   35  N   UNL     1      -8.503  10.114  62.742  1.00  0.00    -0.160 NA 
HETATM   36  C   UNL     1     -12.682  12.332  63.830  1.00  0.00    -0.516 A  
ENDBRANCH  24  25
ENDBRANCH  23  24
ENDBRANCH  22  23
ENDBRANCH  21  22
ENDBRANCH  17  21
ENDBRANCH  10  15
ENDBRANCH   2   6
TORSDOF 7
ENDMDL
MODEL      231
REMARK 921   NORMALIZED FREE ENERGY PREDICTED BY IDOCK:   -4.02 KCAL/MOL
REMARK 922        TOTAL FREE ENERGY PREDICTED BY IDOCK:   -6.95 KCAL/MOL
REMARK 923 INTER-LIGAND FREE ENERGY PREDICTED BY IDOCK:   -5.60 KCAL/MOL
REMARK 924 INTRA-LIGAND FREE ENERGY PREDICTED BY IDOCK:   -1.34 KCAL/MOL
REMARK 927      BINDING AFFINITY PREDICTED BY RF-SCORE:    0.00 PKD
ROOT
HETATM    1  N   UNL     1      -7.028  11.994  66.686  1.00  0.00    -0.382 N  
HETATM    2  C   UNL     1      -8.154  11.357  67.123  1.00  0.00    -0.155 C  
HETATM    3  H1  UNL     1      -6.128  11.514  66.701  1.00  0.00     0.000 HD 
HETATM    4  H2  UNL     1      -7.087  12.952  66.344  1.00  0.00     0.000 HD 
HETATM    5  O   UNL     1      -9.237  11.934  67.105  1.00  0.00    -0.174 OA 
ENDROOT
BRANCH   2   6
HETATM    6  C   UNL     1      -7.958   9.997  67.565  1.00  0.00    -0.106 A  
HETATM    7  C   UNL     1      -7.814   9.481  68.839  1.00  0.00    -0.080 A  
HETATM    8  C   UNL     1      -7.695   8.078  68.702  1.00  0.00    -0.105 A  
HETATM    9  C   UNL     1      -7.552   6.993  69.586  1.00  0.00    -0.104 A  
HETATM   10  C   UNL     1      -7.447   5.676  69.100  1.00  0.00    -0.083 A  
HETATM   11  C   UNL     1      -7.489   5.495  67.704  1.00  0.00    -0.081 A  
HETATM   12  O   UNL     1      -7.904   8.980  66.645  1.00  0.00    -0.098 OA 
HETATM   13  C   UNL     1      -7.744   7.821  67.341  1.00  0.00    -0.113 A  
HETATM   14  C   UNL     1      -7.642   6.552  66.793  1.00  0.00    -0.091 A  
BRANCH  10  15
HETATM   15  N   UNL     1      -7.278   4.609  69.960  1.00  0.00    -0.052 NA 
HETATM   16  C   UNL     1      -7.130   3.226  69.483  1.00  0.00    -0.041 C  
HETATM   17  N   UNL     1      -6.030   2.585  71.685  1.00  0.00    -0.013 NA 
HETATM   18  C   UNL     1      -5.942   2.552  70.202  1.00  0.00    -0.023 C  
HETATM   19  C   UNL     1      -7.341   4.767  71.423  1.00  0.00    -0.068 C  
HETATM   20  C   UNL     1      -6.169   4.005  72.092  1.00  0.00    -0.017 C  
BRANCH  17  21
HETATM   21  C   UNL     1      -7.150   1.781  72.199  1.00  0.00    -0.026 C  
BRANCH  21  22
HETATM   22  C   UNL     1      -8.240   2.627  72.872  1.00  0.00    -0.070 C  
BRANCH  22  23
HETATM   23  C   UNL     1      -9.577   2.617  72.126  1.00  0.00    -0.195 C  
BRANCH  23  24
HETATM   24  C   UNL     1     -10.713   3.153  72.997  1.00  0.00    -0.219 C  
BRANCH  24  25
HETATM   25  C   UNL     1     -10.668   4.634  73.142  1.00  0.00    -0.309 A  
HETATM   26  C   UNL     1     -10.543   5.337  74.324  1.00  0.00    -0.221 A  
HETATM   27  N   UNL     1     -10.569   6.672  74.028  1.00  0.00    -0.468 NA 
HETATM   28  H   UNL     1     -10.497   7.422  74.715  1.00  0.00     0.000 HD 
HETATM   29  C   UNL     1     -10.707   6.859  72.672  1.00  0.00    -0.244 A  
HETATM   30  C   UNL     1     -10.762   5.596  72.088  1.00  0.00    -0.287 A  
HETATM   31  C   UNL     1     -10.894   5.502  70.683  1.00  0.00    -0.257 A  
HETATM   32  C   UNL     1     -10.982   6.674  69.920  1.00  0.00    -0.373 A  
HETATM   33  C   UNL     1     -10.928   7.925  70.540  1.00  0.00    -0.250 A  
HETATM   34  C   UNL     1     -11.126   6.586  68.495  1.00  0.00    -0.265 C  
HETATM   35  N   UNL     1     -11.247   6.522  67.341  1.00  0.00    -0.316 NA 
HETATM   36  C   UNL     1     -10.788   8.041  71.929  1.00  0.00    -0.316 A  
ENDBRANCH  24  25
ENDBRANCH  23  24
ENDBRANCH  22  23
ENDBRANCH  21  22
ENDBRANCH  17  21
ENDBRANCH  10  15
ENDBRANCH   2   6
TORSDOF 7
ENDMDL
MODEL      232
REMARK 921   NORMALIZED FREE ENERGY PREDICTED BY IDOCK:   -4.02 KCAL/MOL
REMARK 922        TOTAL FREE ENERGY PREDICTED BY IDOCK:   -6.94 KCAL/MOL
REMARK 923 INTER-LIGAND FREE ENERGY PREDICTED BY IDOCK:   -5.98 KCAL/MOL
REMARK 924 INTRA-LIGAND FREE ENERGY PREDICTED BY IDOCK:   -0.96 KCAL/MOL
REMARK 927      BINDING AFFINITY PREDICTED BY RF-SCORE:    0.00 PKD
ROOT
HETATM    1  N   UNL     1      -8.756  19.124  66.494  1.00  0.00    -0.326 N  
HETATM    2  C   UNL     1      -9.894  18.522  66.949  1.00  0.00    -0.334 C  
HETATM    3  H1  UNL     1      -7.973  18.559  66.164  1.00  0.00     0.000 HD 
HETATM    4  H2  UNL     1      -8.688  20.141  66.484  1.00  0.00     0.000 HD 
HETATM    5  O   UNL     1     -10.836  19.201  67.346  1.00  0.00    -0.483 OA 
ENDROOT
BRANCH   2   6
HETATM    6  C   UNL     1      -9.888  17.080  66.897  1.00  0.00    -0.271 A  
HETATM    7  C   UNL     1      -8.835  16.191  66.799  1.00  0.00    -0.275 A  
HETATM    8  C   UNL     1      -9.390  14.890  66.835  1.00  0.00    -0.258 A  
HETATM    9  C   UNL     1      -8.878  13.581  66.802  1.00  0.00    -0.146 A  
HETATM   10  C   UNL     1      -9.741  12.468  66.846  1.00  0.00    -0.232 A  
HETATM   11  C   UNL     1     -11.123  12.723  66.920  1.00  0.00    -0.308 A  
HETATM   12  O   UNL     1     -11.072  16.388  66.964  1.00  0.00    -0.119 OA 
HETATM   13  C   UNL     1     -10.762  15.064  66.923  1.00  0.00    -0.308 A  
HETATM   14  C   UNL     1     -11.669  14.016  66.966  1.00  0.00    -0.425 A  
BRANCH  10  15
HETATM   15  N   UNL     1      -9.247  11.180  66.787  1.00  0.00    -0.168 NA 
HETATM   16  C   UNL     1     -10.048  10.050  66.294  1.00  0.00    -0.243 C  
HETATM   17  N   UNL     1      -7.916   8.743  65.828  1.00  0.00    -0.102 NA 
HETATM   18  C   UNL     1      -9.217   9.221  65.291  1.00  0.00    -0.212 C  
HETATM   19  C   UNL     1      -7.917  10.827  67.312  1.00  0.00    -0.117 C  
HETATM   20  C   UNL     1      -7.163   9.933  66.297  1.00  0.00    -0.102 C  
BRANCH  17  21
HETATM   21  C   UNL     1      -8.083   7.766  66.916  1.00  0.00    -0.116 C  
BRANCH  21  22
HETATM   22  C   UNL     1      -6.759   7.391  67.598  1.00  0.00    -0.066 C  
BRANCH  22  23
HETATM   23  C   UNL     1      -6.707   7.752  69.085  1.00  0.00    -0.048 C  
BRANCH  23  24
HETATM   24  C   UNL     1      -8.095   8.077  69.635  1.00  0.00    -0.119 C  
BRANCH  24  25
HETATM   25  C   UNL     1      -8.303   7.537  71.007  1.00  0.00    -0.113 A  
HETATM   26  C   UNL     1      -8.385   8.273  72.173  1.00  0.00    -0.174 A  
HETATM   27  N   UNL     1      -8.553   7.402  73.213  1.00  0.00    -0.134 NA 
HETATM   28  H   UNL     1      -8.641   7.674  74.191  1.00  0.00     0.000 HD 
HETATM   29  C   UNL     1      -8.585   6.106  72.752  1.00  0.00    -0.123 A  
HETATM   30  C   UNL     1      -8.439   6.160  71.368  1.00  0.00    -0.128 A  
HETATM   31  C   UNL     1      -8.448   4.950  70.636  1.00  0.00    -0.111 A  
HETATM   32  C   UNL     1      -8.586   3.734  71.318  1.00  0.00    -0.111 A  
HETATM   33  C   UNL     1      -8.724   3.717  72.708  1.00  0.00    -0.100 A  
HETATM   34  C   UNL     1      -8.586   2.501  70.582  1.00  0.00    -0.056 C  
HETATM   35  N   UNL     1      -8.582   1.500  69.994  1.00  0.00    -0.047 NA 
HETATM   36  C   UNL     1      -8.728   4.903  73.451  1.00  0.00    -0.104 A  
ENDBRANCH  24  25
ENDBRANCH  23  24
ENDBRANCH  22  23
ENDBRANCH  21  22
ENDBRANCH  17  21
ENDBRANCH  10  15
ENDBRANCH   2   6
TORSDOF 7
ENDMDL
MODEL      233
REMARK 921   NORMALIZED FREE ENERGY PREDICTED BY IDOCK:   -4.00 KCAL/MOL
REMARK 922        TOTAL FREE ENERGY PREDICTED BY IDOCK:   -6.91 KCAL/MOL
REMARK 923 INTER-LIGAND FREE ENERGY PREDICTED BY IDOCK:   -5.81 KCAL/MOL
REMARK 924 INTRA-LIGAND FREE ENERGY PREDICTED BY IDOCK:   -1.10 KCAL/MOL
REMARK 927      BINDING AFFINITY PREDICTED BY RF-SCORE:    0.00 PKD
ROOT
HETATM    1  N   UNL     1      -6.971  17.684  68.307  1.00  0.00    -0.212 N  
HETATM    2  C   UNL     1      -7.327  16.972  67.197  1.00  0.00    -0.169 C  
HETATM    3  H1  UNL     1      -6.806  17.205  69.192  1.00  0.00     0.000 HD 
HETATM    4  H2  UNL     1      -6.870  18.697  68.251  1.00  0.00     0.000 HD 
HETATM    5  O   UNL     1      -7.526  17.549  66.132  1.00  0.00    -0.288 OA 
ENDROOT
BRANCH   2   6
HETATM    6  C   UNL     1      -7.420  15.545  67.386  1.00  0.00    -0.204 A  
HETATM    7  C   UNL     1      -8.526  14.720  67.450  1.00  0.00    -0.218 A  
HETATM    8  C   UNL     1      -8.044  13.398  67.603  1.00  0.00    -0.175 A  
HETATM    9  C   UNL     1      -8.629  12.123  67.704  1.00  0.00    -0.166 A  
HETATM   10  C   UNL     1      -7.831  10.974  67.866  1.00  0.00    -0.110 A  
HETATM   11  C   UNL     1      -6.436  11.157  67.924  1.00  0.00    -0.058 A  
HETATM   12  O   UNL     1      -6.276  14.798  67.521  1.00  0.00    -0.300 OA 
HETATM   13  C   UNL     1      -6.663  13.499  67.654  1.00  0.00    -0.167 A  
HETATM   14  C   UNL     1      -5.817  12.413  67.816  1.00  0.00    -0.110 A  
BRANCH  10  15
HETATM   15  N   UNL     1      -8.400   9.723  67.993  1.00  0.00    -0.110 NA 
HETATM   16  C   UNL     1      -7.612   8.529  68.333  1.00  0.00    -0.096 C  
HETATM   17  N   UNL     1      -9.726   7.363  69.135  1.00  0.00    -0.163 NA 
HETATM   18  C   UNL     1      -8.323   7.737  69.452  1.00  0.00    -0.133 C  
HETATM   19  C   UNL     1      -9.821   9.475  67.694  1.00  0.00    -0.165 C  
HETATM   20  C   UNL     1     -10.458   8.612  68.811  1.00  0.00    -0.185 C  
BRANCH  17  21
HETATM   21  C   UNL     1      -9.813   6.402  68.024  1.00  0.00    -0.123 C  
BRANCH  21  22
HETATM   22  C   UNL     1      -8.924   5.166  68.223  1.00  0.00    -0.119 C  
BRANCH  22  23
HETATM   23  C   UNL     1      -9.654   3.976  68.851  1.00  0.00    -0.213 C  
BRANCH  23  24
HETATM   24  C   UNL     1      -8.755   3.210  69.820  1.00  0.00    -0.129 C  
BRANCH  24  25
HETATM   25  C   UNL     1      -9.346   3.108  71.183  1.00  0.00    -0.211 A  
HETATM   26  C   UNL     1      -9.972   2.002  71.724  1.00  0.00    -0.145 A  
HETATM   27  N   UNL     1     -10.393   2.327  72.983  1.00  0.00    -0.133 NA 
HETATM   28  H   UNL     1     -10.889   1.696  73.612  1.00  0.00     0.000 HD 
HETATM   29  C   UNL     1     -10.054   3.626  73.281  1.00  0.00    -0.139 A  
HETATM   30  C   UNL     1      -9.386   4.140  72.173  1.00  0.00    -0.178 A  
HETATM   31  C   UNL     1      -8.914   5.472  72.221  1.00  0.00    -0.143 A  
HETATM   32  C   UNL     1      -9.143   6.242  73.369  1.00  0.00    -0.132 A  
HETATM   33  C   UNL     1      -9.822   5.696  74.461  1.00  0.00    -0.246 A  
HETATM   34  C   UNL     1      -8.676   7.599  73.420  1.00  0.00    -0.202 C  
HETATM   35  N   UNL     1      -8.304   8.698  73.467  1.00  0.00    -0.367 NA 
HETATM   36  C   UNL     1     -10.289   4.376  74.438  1.00  0.00    -0.301 A  
ENDBRANCH  24  25
ENDBRANCH  23  24
ENDBRANCH  22  23
ENDBRANCH  21  22
ENDBRANCH  17  21
ENDBRANCH  10  15
ENDBRANCH   2   6
TORSDOF 7
ENDMDL
MODEL      234
REMARK 921   NORMALIZED FREE ENERGY PREDICTED BY IDOCK:   -3.99 KCAL/MOL
REMARK 922        TOTAL FREE ENERGY PREDICTED BY IDOCK:   -6.90 KCAL/MOL
REMARK 923 INTER-LIGAND FREE ENERGY PREDICTED BY IDOCK:   -6.18 KCAL/MOL
REMARK 924 INTRA-LIGAND FREE ENERGY PREDICTED BY IDOCK:   -0.73 KCAL/MOL
REMARK 927      BINDING AFFINITY PREDICTED BY RF-SCORE:    0.00 PKD
ROOT
HETATM    1  N   UNL     1      -6.702   3.975  72.082  1.00  0.00    -0.025 N  
HETATM    2  C   UNL     1      -7.105   5.218  72.482  1.00  0.00    -0.087 C  
HETATM    3  H1  UNL     1      -6.765   3.706  71.101  1.00  0.00     0.000 HD 
HETATM    4  H2  UNL     1      -6.338   3.314  72.768  1.00  0.00     0.000 HD 
HETATM    5  O   UNL     1      -7.029   5.542  73.663  1.00  0.00    -0.082 OA 
ENDROOT
BRANCH   2   6
HETATM    6  C   UNL     1      -7.583   6.077  71.425  1.00  0.00    -0.099 A  
HETATM    7  C   UNL     1      -6.927   6.591  70.323  1.00  0.00    -0.066 A  
HETATM    8  C   UNL     1      -7.880   7.336  69.589  1.00  0.00    -0.118 A  
HETATM    9  C   UNL     1      -7.870   8.071  68.390  1.00  0.00    -0.122 A  
HETATM   10  C   UNL     1      -9.033   8.723  67.934  1.00  0.00    -0.140 A  
HETATM   11  C   UNL     1     -10.191   8.609  68.726  1.00  0.00    -0.224 A  
HETATM   12  O   UNL     1      -8.891   6.493  71.422  1.00  0.00    -0.137 OA 
HETATM   13  C   UNL     1      -9.063   7.256  70.308  1.00  0.00    -0.152 A  
HETATM   14  C   UNL     1     -10.241   7.875  69.921  1.00  0.00    -0.210 A  
BRANCH  10  15
HETATM   15  N   UNL     1      -9.023   9.468  66.773  1.00  0.00    -0.136 NA 
HETATM   16  C   UNL     1      -8.295  10.741  66.658  1.00  0.00    -0.141 C  
HETATM   17  N   UNL     1      -8.277  10.502  64.126  1.00  0.00    -0.110 NA 
HETATM   18  C   UNL     1      -7.475  10.756  65.350  1.00  0.00     0.053 C  
HETATM   19  C   UNL     1      -9.828   9.096  65.596  1.00  0.00    -0.094 C  
HETATM   20  C   UNL     1      -8.973   9.204  64.310  1.00  0.00    -0.029 C  
BRANCH  17  21
HETATM   21  C   UNL     1      -9.241  11.579  63.853  1.00  0.00     0.061 C  
BRANCH  21  22
HETATM   22  C   UNL     1     -10.654  11.061  63.549  1.00  0.00    -0.303 C  
BRANCH  22  23
HETATM   23  C   UNL     1     -11.745  11.703  64.410  1.00  0.00    -0.226 C  
BRANCH  23  24
HETATM   24  C   UNL     1     -11.253  12.984  65.081  1.00  0.00    -0.321 C  
BRANCH  24  25
HETATM   25  C   UNL     1     -11.376  12.932  66.564  1.00  0.00    -0.361 A  
HETATM   26  C   UNL     1     -11.701  11.824  67.320  1.00  0.00    -0.217 A  
HETATM   27  N   UNL     1     -11.736  12.202  68.634  1.00  0.00    -0.315 NA 
HETATM   28  H   UNL     1     -11.952  11.581  69.413  1.00  0.00     0.000 HD 
HETATM   29  C   UNL     1     -11.437  13.539  68.755  1.00  0.00    -0.311 A  
HETATM   30  C   UNL     1     -11.198  14.024  67.472  1.00  0.00    -0.328 A  
HETATM   31  C   UNL     1     -10.855  15.386  67.312  1.00  0.00    -0.316 A  
HETATM   32  C   UNL     1     -10.781  16.214  68.440  1.00  0.00    -0.298 A  
HETATM   33  C   UNL     1     -11.033  15.696  69.713  1.00  0.00    -0.307 A  
HETATM   34  C   UNL     1     -10.444  17.601  68.284  1.00  0.00    -0.375 C  
HETATM   35  N   UNL     1     -10.175  18.724  68.166  1.00  0.00    -0.374 NA 
HETATM   36  C   UNL     1     -11.364  14.347  69.894  1.00  0.00    -0.273 A  
ENDBRANCH  24  25
ENDBRANCH  23  24
ENDBRANCH  22  23
ENDBRANCH  21  22
ENDBRANCH  17  21
ENDBRANCH  10  15
ENDBRANCH   2   6
TORSDOF 7
ENDMDL
MODEL      235
REMARK 921   NORMALIZED FREE ENERGY PREDICTED BY IDOCK:   -3.98 KCAL/MOL
REMARK 922        TOTAL FREE ENERGY PREDICTED BY IDOCK:   -6.89 KCAL/MOL
REMARK 923 INTER-LIGAND FREE ENERGY PREDICTED BY IDOCK:   -6.56 KCAL/MOL
REMARK 924 INTRA-LIGAND FREE ENERGY PREDICTED BY IDOCK:   -0.33 KCAL/MOL
REMARK 927      BINDING AFFINITY PREDICTED BY RF-SCORE:    0.00 PKD
ROOT
HETATM    1  N   UNL     1     -10.809  20.569  65.191  1.00  0.00     0.209 N  
HETATM    2  C   UNL     1     -10.207  19.812  66.155  1.00  0.00    -0.516 C  
HETATM    3  H1  UNL     1     -11.269  20.121  64.399  1.00  0.00     0.000 HD 
HETATM    4  H2  UNL     1     -10.798  21.586  65.263  1.00  0.00     0.000 HD 
HETATM    5  O   UNL     1      -9.653  20.352  67.108  1.00  0.00    -0.412 OA 
ENDROOT
BRANCH   2   6
HETATM    6  C   UNL     1     -10.301  18.386  65.963  1.00  0.00    -0.375 A  
HETATM    7  C   UNL     1      -9.705  17.347  66.652  1.00  0.00    -0.296 A  
HETATM    8  C   UNL     1     -10.177  16.145  66.074  1.00  0.00    -0.374 A  
HETATM    9  C   UNL     1      -9.985  14.773  66.316  1.00  0.00    -0.308 A  
HETATM   10  C   UNL     1     -10.621  13.804  65.517  1.00  0.00    -0.307 A  
HETATM   11  C   UNL     1     -11.448  14.265  64.475  1.00  0.00    -0.363 A  
HETATM   12  O   UNL     1     -11.099  17.881  64.966  1.00  0.00    -0.705 OA 
HETATM   13  C   UNL     1     -11.018  16.524  65.039  1.00  0.00    -0.210 A  
HETATM   14  C   UNL     1     -11.672  15.626  64.211  1.00  0.00    -0.171 A  
BRANCH  10  15
HETATM   15  N   UNL     1     -10.415  12.456  65.731  1.00  0.00    -0.253 NA 
HETATM   16  C   UNL     1     -11.027  11.420  64.886  1.00  0.00    -0.216 C  
HETATM   17  N   UNL     1      -9.251   9.760  65.634  1.00  0.00    -0.182 NA 
HETATM   18  C   UNL     1      -9.961  10.378  64.484  1.00  0.00    -0.331 C  
HETATM   19  C   UNL     1      -9.652  11.955  66.887  1.00  0.00    -0.200 C  
HETATM   20  C   UNL     1      -8.655  10.860  66.433  1.00  0.00    -0.160 C  
BRANCH  17  21
HETATM   21  C   UNL     1     -10.140   8.932  66.464  1.00  0.00    -0.286 C  
BRANCH  21  22
HETATM   22  C   UNL     1      -9.860   9.067  67.968  1.00  0.00    -0.197 C  
BRANCH  22  23
HETATM   23  C   UNL     1      -9.247   7.813  68.596  1.00  0.00    -0.138 C  
BRANCH  23  24
HETATM   24  C   UNL     1      -9.282   7.872  70.122  1.00  0.00    -0.153 C  
BRANCH  24  25
HETATM   25  C   UNL     1      -7.945   7.628  70.731  1.00  0.00    -0.102 A  
HETATM   26  C   UNL     1      -6.930   8.553  70.875  1.00  0.00    -0.057 A  
HETATM   27  N   UNL     1      -5.863   7.925  71.455  1.00  0.00    -0.034 NA 
HETATM   28  H   UNL     1      -4.974   8.373  71.676  1.00  0.00     0.000 HD 
HETATM   29  C   UNL     1      -6.159   6.604  71.697  1.00  0.00    -0.038 A  
HETATM   30  C   UNL     1      -7.464   6.390  71.261  1.00  0.00    -0.089 A  
HETATM   31  C   UNL     1      -8.025   5.100  71.405  1.00  0.00    -0.112 A  
HETATM   32  C   UNL     1      -7.255   4.072  71.964  1.00  0.00    -0.055 A  
HETATM   33  C   UNL     1      -5.947   4.321  72.386  1.00  0.00    -0.016 A  
HETATM   34  C   UNL     1      -7.816   2.758  72.104  1.00  0.00    -0.054 C  
HETATM   35  N   UNL     1      -8.261   1.691  72.216  1.00  0.00    -0.048 NA 
HETATM   36  C   UNL     1      -5.374   5.593  72.262  1.00  0.00    -0.018 A  
ENDBRANCH  24  25
ENDBRANCH  23  24
ENDBRANCH  22  23
ENDBRANCH  21  22
ENDBRANCH  17  21
ENDBRANCH  10  15
ENDBRANCH   2   6
TORSDOF 7
ENDMDL
MODEL      236
REMARK 921   NORMALIZED FREE ENERGY PREDICTED BY IDOCK:   -3.90 KCAL/MOL
REMARK 922        TOTAL FREE ENERGY PREDICTED BY IDOCK:   -6.78 KCAL/MOL
REMARK 923 INTER-LIGAND FREE ENERGY PREDICTED BY IDOCK:   -6.07 KCAL/MOL
REMARK 924 INTRA-LIGAND FREE ENERGY PREDICTED BY IDOCK:   -0.70 KCAL/MOL
REMARK 927      BINDING AFFINITY PREDICTED BY RF-SCORE:    0.00 PKD
ROOT
HETATM    1  N   UNL     1      -7.214   2.401  64.076  1.00  0.00    -0.055 N  
HETATM    2  C   UNL     1      -7.861   3.542  63.698  1.00  0.00    -0.080 C  
HETATM    3  H1  UNL     1      -7.093   2.183  65.065  1.00  0.00     0.000 HD 
HETATM    4  H2  UNL     1      -6.850   1.764  63.367  1.00  0.00     0.000 HD 
HETATM    5  O   UNL     1      -8.007   3.804  62.508  1.00  0.00    -0.061 OA 
ENDROOT
BRANCH   2   6
HETATM    6  C   UNL     1      -8.352   4.357  64.782  1.00  0.00    -0.109 A  
HETATM    7  C   UNL     1      -8.963   3.997  65.968  1.00  0.00    -0.129 A  
HETATM    8  C   UNL     1      -9.198   5.192  66.688  1.00  0.00    -0.129 A  
HETATM    9  C   UNL     1      -9.750   5.515  67.941  1.00  0.00    -0.155 A  
HETATM   10  C   UNL     1      -9.848   6.856  68.362  1.00  0.00    -0.143 A  
HETATM   11  C   UNL     1      -9.377   7.847  67.480  1.00  0.00    -0.166 A  
HETATM   12  O   UNL     1      -8.225   5.723  64.723  1.00  0.00    -0.131 OA 
HETATM   13  C   UNL     1      -8.741   6.221  65.880  1.00  0.00    -0.149 A  
HETATM   14  C   UNL     1      -8.811   7.561  66.228  1.00  0.00    -0.184 A  
BRANCH  10  15
HETATM   15  N   UNL     1     -10.414   7.182  69.578  1.00  0.00    -0.219 NA 
HETATM   16  C   UNL     1     -11.862   7.367  69.750  1.00  0.00     0.371 C  
HETATM   17  N   UNL     1     -11.618   6.951  72.248  1.00  0.00    -0.276 NA 
HETATM   18  C   UNL     1     -12.341   6.596  70.999  1.00  0.00    -0.230 C  
HETATM   19  C   UNL     1      -9.597   7.472  70.769  1.00  0.00    -0.166 C  
HETATM   20  C   UNL     1     -10.171   6.732  72.002  1.00  0.00    -0.191 C  
BRANCH  17  21
HETATM   21  C   UNL     1     -11.874   8.337  72.670  1.00  0.00    -0.315 C  
BRANCH  21  22
HETATM   22  C   UNL     1     -12.979   9.022  71.853  1.00  0.00    -0.451 C  
BRANCH  22  23
HETATM   23  C   UNL     1     -12.758  10.524  71.656  1.00  0.00    -0.550 C  
BRANCH  23  24
HETATM   24  C   UNL     1     -12.682  10.893  70.175  1.00  0.00    -0.227 C  
BRANCH  24  25
HETATM   25  C   UNL     1     -12.088  12.241  69.955  1.00  0.00    -0.346 A  
HETATM   26  C   UNL     1     -12.534  13.430  70.497  1.00  0.00    -0.279 A  
HETATM   27  N   UNL     1     -11.735  14.436  70.028  1.00  0.00    -0.283 NA 
HETATM   28  H   UNL     1     -11.840  15.422  70.266  1.00  0.00     0.000 HD 
HETATM   29  C   UNL     1     -10.771  13.928  69.189  1.00  0.00    -0.147 A  
HETATM   30  C   UNL     1     -10.961  12.551  69.131  1.00  0.00    -0.198 A  
HETATM   31  C   UNL     1     -10.085  11.776  68.335  1.00  0.00    -0.201 A  
HETATM   32  C   UNL     1      -9.064  12.412  67.617  1.00  0.00    -0.186 A  
HETATM   33  C   UNL     1      -8.906  13.798  67.693  1.00  0.00    -0.189 A  
HETATM   34  C   UNL     1      -8.178  11.633  66.799  1.00  0.00    -0.161 C  
HETATM   35  N   UNL     1      -7.460  11.010  66.132  1.00  0.00    -0.117 NA 
HETATM   36  C   UNL     1      -9.755  14.583  68.483  1.00  0.00    -0.224 A  
ENDBRANCH  24  25
ENDBRANCH  23  24
ENDBRANCH  22  23
ENDBRANCH  21  22
ENDBRANCH  17  21
ENDBRANCH  10  15
ENDBRANCH   2   6
TORSDOF 7
ENDMDL
MODEL      237
REMARK 921   NORMALIZED FREE ENERGY PREDICTED BY IDOCK:   -3.89 KCAL/MOL
REMARK 922        TOTAL FREE ENERGY PREDICTED BY IDOCK:   -6.77 KCAL/MOL
REMARK 923 INTER-LIGAND FREE ENERGY PREDICTED BY IDOCK:   -6.06 KCAL/MOL
REMARK 924 INTRA-LIGAND FREE ENERGY PREDICTED BY IDOCK:   -0.71 KCAL/MOL
REMARK 927      BINDING AFFINITY PREDICTED BY RF-SCORE:    0.00 PKD
ROOT
HETATM    1  N   UNL     1     -10.246  19.484  69.638  1.00  0.00    -0.463 N  
HETATM    2  C   UNL     1     -10.136  18.979  68.374  1.00  0.00    -0.403 C  
HETATM    3  H1  UNL     1     -10.361  18.856  70.433  1.00  0.00     0.000 HD 
HETATM    4  H2  UNL     1     -10.213  20.493  69.787  1.00  0.00     0.000 HD 
HETATM    5  O   UNL     1      -9.998  19.734  67.417  1.00  0.00    -0.351 OA 
ENDROOT
BRANCH   2   6
HETATM    6  C   UNL     1     -10.175  17.540  68.283  1.00  0.00    -0.365 A  
HETATM    7  C   UNL     1      -9.182  16.602  68.490  1.00  0.00    -0.234 A  
HETATM    8  C   UNL     1      -9.774  15.330  68.311  1.00  0.00    -0.210 A  
HETATM    9  C   UNL     1      -9.333  13.997  68.400  1.00  0.00    -0.210 A  
HETATM   10  C   UNL     1     -10.212  12.928  68.139  1.00  0.00    -0.239 A  
HETATM   11  C   UNL     1     -11.537  13.249  67.787  1.00  0.00    -0.380 A  
HETATM   12  O   UNL     1     -11.348  16.906  67.956  1.00  0.00    -0.190 OA 
HETATM   13  C   UNL     1     -11.097  15.569  67.974  1.00  0.00    -0.322 A  
HETATM   14  C   UNL     1     -12.015  14.566  67.700  1.00  0.00    -0.355 A  
BRANCH  10  15
HETATM   15  N   UNL     1      -9.779  11.618  68.197  1.00  0.00    -0.183 NA 
HETATM   16  C   UNL     1      -8.390  11.261  68.521  1.00  0.00    -0.155 C  
HETATM   17  N   UNL     1      -9.149   8.928  69.197  1.00  0.00    -0.140 NA 
HETATM   18  C   UNL     1      -8.375  10.137  69.581  1.00  0.00    -0.161 C  
HETATM   19  C   UNL     1     -10.651  10.488  67.834  1.00  0.00    -0.232 C  
HETATM   20  C   UNL     1     -10.535   9.364  68.893  1.00  0.00    -0.216 C  
BRANCH  17  21
HETATM   21  C   UNL     1      -8.558   8.225  68.047  1.00  0.00    -0.132 C  
BRANCH  21  22
HETATM   22  C   UNL     1      -8.846   6.717  68.050  1.00  0.00    -0.115 C  
BRANCH  22  23
HETATM   23  C   UNL     1      -8.473   6.020  69.360  1.00  0.00    -0.115 C  
BRANCH  23  24
HETATM   24  C   UNL     1      -7.778   4.683  69.110  1.00  0.00    -0.067 C  
BRANCH  24  25
HETATM   25  C   UNL     1      -7.075   4.172  70.319  1.00  0.00    -0.041 A  
HETATM   26  C   UNL     1      -5.716   4.230  70.561  1.00  0.00    -0.013 A  
HETATM   27  N   UNL     1      -5.475   3.631  71.766  1.00  0.00    -0.007 NA 
HETATM   28  H   UNL     1      -4.554   3.531  72.193  1.00  0.00     0.000 HD 
HETATM   29  C   UNL     1      -6.651   3.182  72.322  1.00  0.00    -0.015 A  
HETATM   30  C   UNL     1      -7.675   3.516  71.440  1.00  0.00    -0.056 A  
HETATM   31  C   UNL     1      -9.004   3.173  71.780  1.00  0.00    -0.145 A  
HETATM   32  C   UNL     1      -9.254   2.496  72.980  1.00  0.00    -0.112 A  
HETATM   33  C   UNL     1      -8.202   2.171  73.839  1.00  0.00    -0.058 A  
HETATM   34  C   UNL     1     -10.600   2.136  73.326  1.00  0.00    -0.141 C  
HETATM   35  N   UNL     1     -11.686   1.837  73.611  1.00  0.00    -0.210 NA 
HETATM   36  C   UNL     1      -6.879   2.510  73.527  1.00  0.00    -0.023 A  
ENDBRANCH  24  25
ENDBRANCH  23  24
ENDBRANCH  22  23
ENDBRANCH  21  22
ENDBRANCH  17  21
ENDBRANCH  10  15
ENDBRANCH   2   6
TORSDOF 7
ENDMDL
MODEL      238
REMARK 921   NORMALIZED FREE ENERGY PREDICTED BY IDOCK:   -3.88 KCAL/MOL
REMARK 922        TOTAL FREE ENERGY PREDICTED BY IDOCK:   -6.74 KCAL/MOL
REMARK 923 INTER-LIGAND FREE ENERGY PREDICTED BY IDOCK:   -6.88 KCAL/MOL
REMARK 924 INTRA-LIGAND FREE ENERGY PREDICTED BY IDOCK:    0.13 KCAL/MOL
REMARK 927      BINDING AFFINITY PREDICTED BY RF-SCORE:    0.00 PKD
ROOT
HETATM    1  N   UNL     1      -7.506   1.793  65.566  1.00  0.00    -0.063 N  
HETATM    2  C   UNL     1      -6.779   2.742  66.226  1.00  0.00    -0.043 C  
HETATM    3  H1  UNL     1      -8.265   2.069  64.943  1.00  0.00     0.000 HD 
HETATM    4  H2  UNL     1      -7.289   0.805  65.696  1.00  0.00     0.000 HD 
HETATM    5  O   UNL     1      -5.866   2.409  66.976  1.00  0.00    -0.021 OA 
ENDROOT
BRANCH   2   6
HETATM    6  C   UNL     1      -7.158   4.106  65.952  1.00  0.00    -0.067 A  
HETATM    7  C   UNL     1      -8.404   4.703  65.929  1.00  0.00    -0.115 A  
HETATM    8  C   UNL     1      -8.198   6.074  65.648  1.00  0.00    -0.139 A  
HETATM    9  C   UNL     1      -9.023   7.205  65.514  1.00  0.00     0.092 A  
HETATM   10  C   UNL     1      -8.475   8.466  65.208  1.00  0.00    -0.171 A  
HETATM   11  C   UNL     1      -7.079   8.542  65.043  1.00  0.00    -0.079 A  
HETATM   12  O   UNL     1      -6.193   5.041  65.670  1.00  0.00    -0.032 OA 
HETATM   13  C   UNL     1      -6.830   6.229  65.486  1.00  0.00    -0.052 A  
HETATM   14  C   UNL     1      -6.224   7.438  65.180  1.00  0.00    -0.038 A  
BRANCH  10  15
HETATM   15  N   UNL     1      -9.282   9.574  65.048  1.00  0.00    -0.241 NA 
HETATM   16  C   UNL     1      -9.785  10.356  66.188  1.00  0.00    -0.209 C  
HETATM   17  N   UNL     1     -10.169  12.347  64.652  1.00  0.00    -0.296 NA 
HETATM   18  C   UNL     1      -9.569  11.862  65.922  1.00  0.00    -0.231 C  
HETATM   19  C   UNL     1      -9.785   9.993  63.728  1.00  0.00     0.003 C  
HETATM   20  C   UNL     1      -9.612  11.521  63.552  1.00  0.00    -0.279 C  
BRANCH  17  21
HETATM   21  C   UNL     1     -11.639  12.281  64.664  1.00  0.00    -0.344 C  
BRANCH  21  22
HETATM   22  C   UNL     1     -12.305  13.661  64.761  1.00  0.00    -0.429 C  
BRANCH  22  23
HETATM   23  C   UNL     1     -11.439  14.716  65.454  1.00  0.00    -0.352 C  
BRANCH  23  24
HETATM   24  C   UNL     1     -11.101  14.314  66.889  1.00  0.00    -0.315 C  
BRANCH  24  25
HETATM   25  C   UNL     1     -10.943  15.492  67.787  1.00  0.00    -0.317 A  
HETATM   26  C   UNL     1     -11.665  15.748  68.936  1.00  0.00    -0.394 A  
HETATM   27  N   UNL     1     -11.234  16.938  69.451  1.00  0.00    -0.257 NA 
HETATM   28  H   UNL     1     -11.598  17.371  70.300  1.00  0.00     0.000 HD 
HETATM   29  C   UNL     1     -10.241  17.469  68.662  1.00  0.00    -0.373 A  
HETATM   30  C   UNL     1     -10.029  16.579  67.613  1.00  0.00    -0.254 A  
HETATM   31  C   UNL     1      -9.040  16.884  66.650  1.00  0.00    -0.280 A  
HETATM   32  C   UNL     1      -8.312  18.076  66.766  1.00  0.00    -0.271 A  
HETATM   33  C   UNL     1      -8.554  18.950  67.828  1.00  0.00    -0.318 A  
HETATM   34  C   UNL     1      -7.314  18.397  65.785  1.00  0.00    -0.141 C  
HETATM   35  N   UNL     1      -6.507  18.666  64.994  1.00  0.00    -0.490 NA 
HETATM   36  C   UNL     1      -9.522  18.662  68.798  1.00  0.00    -0.358 A  
ENDBRANCH  24  25
ENDBRANCH  23  24
ENDBRANCH  22  23
ENDBRANCH  21  22
ENDBRANCH  17  21
ENDBRANCH  10  15
ENDBRANCH   2   6
TORSDOF 7
ENDMDL
MODEL      239
REMARK 921   NORMALIZED FREE ENERGY PREDICTED BY IDOCK:   -3.87 KCAL/MOL
REMARK 922        TOTAL FREE ENERGY PREDICTED BY IDOCK:   -6.73 KCAL/MOL
REMARK 923 INTER-LIGAND FREE ENERGY PREDICTED BY IDOCK:   -7.04 KCAL/MOL
REMARK 924 INTRA-LIGAND FREE ENERGY PREDICTED BY IDOCK:    0.31 KCAL/MOL
REMARK 927      BINDING AFFINITY PREDICTED BY RF-SCORE:    0.00 PKD
ROOT
HETATM    1  N   UNL     1      -7.806  20.747  67.041  1.00  0.00    -0.547 N  
HETATM    2  C   UNL     1      -9.027  20.202  67.318  1.00  0.00    -0.356 C  
HETATM    3  H1  UNL     1      -6.983  20.149  66.964  1.00  0.00     0.000 HD 
HETATM    4  H2  UNL     1      -7.716  21.754  66.912  1.00  0.00     0.000 HD 
HETATM    5  O   UNL     1     -10.017  20.921  67.412  1.00  0.00    -0.397 OA 
ENDROOT
BRANCH   2   6
HETATM    6  C   UNL     1      -9.040  18.766  67.461  1.00  0.00    -0.276 A  
HETATM    7  C   UNL     1     -10.099  17.889  67.597  1.00  0.00    -0.350 A  
HETATM    8  C   UNL     1      -9.548  16.587  67.654  1.00  0.00    -0.235 A  
HETATM    9  C   UNL     1     -10.066  15.284  67.761  1.00  0.00    -0.230 A  
HETATM   10  C   UNL     1      -9.208  14.167  67.803  1.00  0.00    -0.193 A  
HETATM   11  C   UNL     1      -7.824  14.413  67.736  1.00  0.00    -0.169 A  
HETATM   12  O   UNL     1      -7.858  18.068  67.459  1.00  0.00    -0.211 OA 
HETATM   13  C   UNL     1      -8.174  16.749  67.578  1.00  0.00    -0.173 A  
HETATM   14  C   UNL     1      -7.271  15.698  67.618  1.00  0.00    -0.197 A  
BRANCH  10  15
HETATM   15  N   UNL     1      -9.708  12.888  67.935  1.00  0.00    -0.211 NA 
HETATM   16  C   UNL     1     -10.758  12.548  68.907  1.00  0.00    -0.165 C  
HETATM   17  N   UNL     1     -11.342  10.476  67.551  1.00  0.00    -0.409 NA 
HETATM   18  C   UNL     1     -11.851  11.702  68.219  1.00  0.00    -0.265 C  
HETATM   19  C   UNL     1      -9.152  11.748  67.185  1.00  0.00    -0.175 C  
HETATM   20  C   UNL     1     -10.297  10.896  66.584  1.00  0.00    -0.239 C  
BRANCH  17  21
HETATM   21  C   UNL     1     -10.804   9.497  68.510  1.00  0.00    -0.132 C  
BRANCH  21  22
HETATM   22  C   UNL     1     -10.673  10.056  69.934  1.00  0.00    -0.328 C  
BRANCH  22  23
HETATM   23  C   UNL     1     -11.722   9.515  70.908  1.00  0.00    -0.391 C  
BRANCH  23  24
HETATM   24  C   UNL     1     -11.633   7.996  71.046  1.00  0.00    -0.303 C  
BRANCH  24  25
HETATM   25  C   UNL     1     -10.800   7.579  72.207  1.00  0.00    -0.302 A  
HETATM   26  C   UNL     1     -10.774   8.174  73.453  1.00  0.00     0.442 A  
HETATM   27  N   UNL     1      -9.862   7.508  74.223  1.00  0.00    -0.324 NA 
HETATM   28  H   UNL     1      -9.638   7.738  75.191  1.00  0.00     0.000 HD 
HETATM   29  C   UNL     1      -9.287   6.484  73.506  1.00  0.00    -0.137 A  
HETATM   30  C   UNL     1      -9.863   6.498  72.239  1.00  0.00    -0.166 A  
HETATM   31  C   UNL     1      -9.451   5.528  71.294  1.00  0.00    -0.185 A  
HETATM   32  C   UNL     1      -8.470   4.595  71.650  1.00  0.00    -0.117 A  
HETATM   33  C   UNL     1      -7.908   4.614  72.929  1.00  0.00    -0.092 A  
HETATM   34  C   UNL     1      -8.040   3.615  70.693  1.00  0.00    -0.053 C  
HETATM   35  N   UNL     1      -7.684   2.821  69.923  1.00  0.00    -0.043 NA 
HETATM   36  C   UNL     1      -8.308   5.558  73.883  1.00  0.00    -0.113 A  
ENDBRANCH  24  25
ENDBRANCH  23  24
ENDBRANCH  22  23
ENDBRANCH  21  22
ENDBRANCH  17  21
ENDBRANCH  10  15
ENDBRANCH   2   6
TORSDOF 7
ENDMDL
MODEL      240
REMARK 921   NORMALIZED FREE ENERGY PREDICTED BY IDOCK:   -3.84 KCAL/MOL
REMARK 922        TOTAL FREE ENERGY PREDICTED BY IDOCK:   -6.69 KCAL/MOL
REMARK 923 INTER-LIGAND FREE ENERGY PREDICTED BY IDOCK:   -6.35 KCAL/MOL
REMARK 924 INTRA-LIGAND FREE ENERGY PREDICTED BY IDOCK:   -0.34 KCAL/MOL
REMARK 927      BINDING AFFINITY PREDICTED BY RF-SCORE:    0.00 PKD
ROOT
HETATM    1  N   UNL     1      -9.737   1.482  71.492  1.00  0.00    -0.126 N  
HETATM    2  C   UNL     1      -9.664   2.277  72.600  1.00  0.00    -0.107 C  
HETATM    3  H1  UNL     1      -9.944   1.890  70.581  1.00  0.00     0.000 HD 
HETATM    4  H2  UNL     1      -9.583   0.478  71.576  1.00  0.00     0.000 HD 
HETATM    5  O   UNL     1      -9.414   1.786  73.697  1.00  0.00    -0.071 OA 
ENDROOT
BRANCH   2   6
HETATM    6  C   UNL     1      -9.876   3.684  72.362  1.00  0.00    -0.160 A  
HETATM    7  C   UNL     1     -10.286   4.347  71.221  1.00  0.00    -0.137 A  
HETATM    8  C   UNL     1     -10.372   5.720  71.553  1.00  0.00    -0.274 A  
HETATM    9  C   UNL     1     -10.742   6.894  70.873  1.00  0.00    -0.258 A  
HETATM   10  C   UNL     1     -10.703   8.145  71.520  1.00  0.00    -0.233 A  
HETATM   11  C   UNL     1     -10.279   8.167  72.862  1.00  0.00    -0.341 A  
HETATM   12  O   UNL     1      -9.679   4.587  73.377  1.00  0.00    -0.126 OA 
HETATM   13  C   UNL     1      -9.979   5.817  72.879  1.00  0.00    -0.176 A  
HETATM   14  C   UNL     1      -9.912   7.014  73.575  1.00  0.00    -0.321 A  
BRANCH  10  15
HETATM   15  N   UNL     1     -11.039   9.304  70.851  1.00  0.00    -0.279 NA 
HETATM   16  C   UNL     1     -10.427   9.680  69.567  1.00  0.00    -0.224 C  
HETATM   17  N   UNL     1     -12.401  11.207  69.074  1.00  0.00    -0.445 NA 
HETATM   18  C   UNL     1     -11.526  10.115  68.574  1.00  0.00    -0.029 C  
HETATM   19  C   UNL     1     -11.957  10.303  71.426  1.00  0.00    -0.327 C  
HETATM   20  C   UNL     1     -12.986  10.756  70.361  1.00  0.00    -0.129 C  
BRANCH  17  21
HETATM   21  C   UNL     1     -11.673  12.475  69.246  1.00  0.00    -0.321 C  
BRANCH  21  22
HETATM   22  C   UNL     1     -12.017  13.518  68.174  1.00  0.00    -0.376 C  
BRANCH  22  23
HETATM   23  C   UNL     1     -11.869  13.002  66.740  1.00  0.00    -0.451 C  
BRANCH  23  24
HETATM   24  C   UNL     1     -10.723  13.695  66.007  1.00  0.00    -0.280 C  
BRANCH  24  25
HETATM   25  C   UNL     1      -9.656  14.165  66.933  1.00  0.00    -0.275 A  
HETATM   26  C   UNL     1      -9.692  15.304  67.713  1.00  0.00    -0.215 A  
HETATM   27  N   UNL     1      -8.511  15.387  68.397  1.00  0.00    -0.155 NA 
HETATM   28  H   UNL     1      -8.267  16.133  69.047  1.00  0.00     0.000 HD 
HETATM   29  C   UNL     1      -7.700  14.323  68.081  1.00  0.00    -0.141 A  
HETATM   30  C   UNL     1      -8.395  13.532  67.171  1.00  0.00    -0.151 A  
HETATM   31  C   UNL     1      -7.782  12.353  66.686  1.00  0.00     0.240 A  
HETATM   32  C   UNL     1      -6.492  12.021  67.119  1.00  0.00    -0.142 A  
HETATM   33  C   UNL     1      -5.820  12.840  68.029  1.00  0.00    -0.097 A  
HETATM   34  C   UNL     1      -5.860  10.831  66.623  1.00  0.00    -0.084 C  
HETATM   35  N   UNL     1      -5.341   9.872  66.223  1.00  0.00    -0.043 NA 
HETATM   36  C   UNL     1      -6.412  14.007  68.530  1.00  0.00    -0.093 A  
ENDBRANCH  24  25
ENDBRANCH  23  24
ENDBRANCH  22  23
ENDBRANCH  21  22
ENDBRANCH  17  21
ENDBRANCH  10  15
ENDBRANCH   2   6
TORSDOF 7
ENDMDL
MODEL      241
REMARK 921   NORMALIZED FREE ENERGY PREDICTED BY IDOCK:   -3.72 KCAL/MOL
REMARK 922        TOTAL FREE ENERGY PREDICTED BY IDOCK:   -6.52 KCAL/MOL
REMARK 923 INTER-LIGAND FREE ENERGY PREDICTED BY IDOCK:   -5.79 KCAL/MOL
REMARK 924 INTRA-LIGAND FREE ENERGY PREDICTED BY IDOCK:   -0.73 KCAL/MOL
REMARK 927      BINDING AFFINITY PREDICTED BY RF-SCORE:    0.00 PKD
ROOT
HETATM    1  N   UNL     1      -9.482   2.866  63.955  1.00  0.00    -0.124 N  
HETATM    2  C   UNL     1      -8.571   3.182  64.922  1.00  0.00    -0.101 C  
HETATM    3  H1  UNL     1     -10.164   3.559  63.646  1.00  0.00     0.000 HD 
HETATM    4  H2  UNL     1      -9.481   1.935  63.541  1.00  0.00     0.000 HD 
HETATM    5  O   UNL     1      -7.751   2.348  65.294  1.00  0.00    -0.074 OA 
ENDROOT
BRANCH   2   6
HETATM    6  C   UNL     1      -8.650   4.533  65.422  1.00  0.00    -0.126 A  
HETATM    7  C   UNL     1      -7.732   5.564  65.367  1.00  0.00    -0.089 A  
HETATM    8  C   UNL     1      -8.340   6.689  65.972  1.00  0.00    -0.134 A  
HETATM    9  C   UNL     1      -7.966   8.023  66.212  1.00  0.00    -0.105 A  
HETATM   10  C   UNL     1      -8.839   8.910  66.873  1.00  0.00    -0.127 A  
HETATM   11  C   UNL     1     -10.087   8.404  67.281  1.00  0.00    -0.321 A  
HETATM   12  O   UNL     1      -9.789   4.961  66.059  1.00  0.00    -0.171 OA 
HETATM   13  C   UNL     1      -9.593   6.267  66.390  1.00  0.00    -0.119 A  
HETATM   14  C   UNL     1     -10.499   7.082  67.050  1.00  0.00    -0.386 A  
BRANCH  10  15
HETATM   15  N   UNL     1      -8.467  10.213  67.136  1.00  0.00    -0.125 NA 
HETATM   16  C   UNL     1      -8.950  10.948  68.314  1.00  0.00    -0.150 C  
HETATM   17  N   UNL     1      -6.979  12.546  68.122  1.00  0.00    -0.080 NA 
HETATM   18  C   UNL     1      -7.764  11.650  69.011  1.00  0.00    -0.002 C  
HETATM   19  C   UNL     1      -7.644  10.996  66.198  1.00  0.00    -0.084 C  
HETATM   20  C   UNL     1      -6.521  11.737  66.965  1.00  0.00    -0.147 C  
BRANCH  17  21
HETATM   21  C   UNL     1      -7.757  13.711  67.671  1.00  0.00    -0.178 C  
BRANCH  21  22
HETATM   22  C   UNL     1      -8.038  14.721  68.793  1.00  0.00    -0.158 C  
BRANCH  22  23
HETATM   23  C   UNL     1      -6.774  15.259  69.469  1.00  0.00    -0.172 C  
BRANCH  23  24
HETATM   24  C   UNL     1      -5.929  16.089  68.504  1.00  0.00    -0.105 C  
BRANCH  24  25
HETATM   25  C   UNL     1      -5.771  17.499  68.957  1.00  0.00    -0.185 A  
HETATM   26  C   UNL     1      -5.557  17.924  70.253  1.00  0.00    -0.236 A  
HETATM   27  N   UNL     1      -5.495  19.290  70.247  1.00  0.00    -0.215 NA 
HETATM   28  H   UNL     1      -5.346  19.869  71.073  1.00  0.00     0.000 HD 
HETATM   29  C   UNL     1      -5.661  19.771  68.970  1.00  0.00    -0.222 A  
HETATM   30  C   UNL     1      -5.828  18.669  68.135  1.00  0.00    -0.195 A  
HETATM   31  C   UNL     1      -6.011  18.886  66.750  1.00  0.00    -0.174 A  
HETATM   32  C   UNL     1      -6.036  20.198  66.257  1.00  0.00    -0.193 A  
HETATM   33  C   UNL     1      -5.872  21.280  67.124  1.00  0.00    -0.403 A  
HETATM   34  C   UNL     1      -6.232  20.426  64.853  1.00  0.00    -0.277 C  
HETATM   35  N   UNL     1      -6.394  20.618  63.719  1.00  0.00    -0.232 NA 
HETATM   36  C   UNL     1      -5.679  21.087  68.497  1.00  0.00    -0.375 A  
ENDBRANCH  24  25
ENDBRANCH  23  24
ENDBRANCH  22  23
ENDBRANCH  21  22
ENDBRANCH  17  21
ENDBRANCH  10  15
ENDBRANCH   2   6
TORSDOF 7
ENDMDL
MODEL      242
REMARK 921   NORMALIZED FREE ENERGY PREDICTED BY IDOCK:   -3.70 KCAL/MOL
REMARK 922        TOTAL FREE ENERGY PREDICTED BY IDOCK:   -6.49 KCAL/MOL
REMARK 923 INTER-LIGAND FREE ENERGY PREDICTED BY IDOCK:   -6.08 KCAL/MOL
REMARK 924 INTRA-LIGAND FREE ENERGY PREDICTED BY IDOCK:   -0.41 KCAL/MOL
REMARK 927      BINDING AFFINITY PREDICTED BY RF-SCORE:    0.00 PKD
ROOT
HETATM    1  N   UNL     1     -10.201  19.636  69.535  1.00  0.00    -0.560 N  
HETATM    2  C   UNL     1      -9.832  19.263  68.274  1.00  0.00    -0.400 C  
HETATM    3  H1  UNL     1     -10.514  18.935  70.206  1.00  0.00     0.000 HD 
HETATM    4  H2  UNL     1     -10.165  20.618  69.805  1.00  0.00     0.000 HD 
HETATM    5  O   UNL     1      -9.456  20.107  67.466  1.00  0.00    -0.355 OA 
ENDROOT
BRANCH   2   6
HETATM    6  C   UNL     1      -9.902  17.847  68.007  1.00  0.00    -0.320 A  
HETATM    7  C   UNL     1      -8.907  16.946  67.679  1.00  0.00    -0.215 A  
HETATM    8  C   UNL     1      -9.522  15.677  67.571  1.00  0.00    -0.214 A  
HETATM    9  C   UNL     1      -9.081  14.370  67.295  1.00  0.00    -0.221 A  
HETATM   10  C   UNL     1      -9.991  13.296  67.252  1.00  0.00    -0.231 A  
HETATM   11  C   UNL     1     -11.347  13.586  67.492  1.00  0.00    -0.335 A  
HETATM   12  O   UNL     1     -11.110  17.197  68.079  1.00  0.00    -0.313 OA 
HETATM   13  C   UNL     1     -10.871  15.884  67.812  1.00  0.00    -0.324 A  
HETATM   14  C   UNL     1     -11.822  14.876  67.782  1.00  0.00    -0.277 A  
BRANCH  10  15
HETATM   15  N   UNL     1      -9.570  12.015  66.955  1.00  0.00    -0.192 NA 
HETATM   16  C   UNL     1      -8.154  11.620  67.002  1.00  0.00    -0.164 C  
HETATM   17  N   UNL     1      -8.843   9.182  67.230  1.00  0.00    -0.124 NA 
HETATM   18  C   UNL     1      -8.011  10.288  67.770  1.00  0.00    -0.102 C  
HETATM   19  C   UNL     1     -10.496  10.980  66.467  1.00  0.00    -0.257 C  
HETATM   20  C   UNL     1     -10.252   9.648  67.219  1.00  0.00    -0.233 C  
BRANCH  17  21
HETATM   21  C   UNL     1      -8.419   8.766  65.883  1.00  0.00    -0.143 C  
BRANCH  21  22
HETATM   22  C   UNL     1      -8.283   7.244  65.736  1.00  0.00    -0.135 C  
BRANCH  22  23
HETATM   23  C   UNL     1      -7.137   6.814  64.817  1.00  0.00    -0.060 C  
BRANCH  23  24
HETATM   24  C   UNL     1      -5.975   6.214  65.608  1.00  0.00    -0.025 C  
BRANCH  24  25
HETATM   25  C   UNL     1      -6.422   5.174  66.575  1.00  0.00    -0.041 A  
HETATM   26  C   UNL     1      -6.019   5.051  67.890  1.00  0.00    -0.022 A  
HETATM   27  N   UNL     1      -6.639   3.956  68.423  1.00  0.00    -0.044 NA 
HETATM   28  H   UNL     1      -6.521   3.629  69.382  1.00  0.00     0.000 HD 
HETATM   29  C   UNL     1      -7.445   3.357  67.483  1.00  0.00    -0.059 A  
HETATM   30  C   UNL     1      -7.337   4.105  66.314  1.00  0.00    -0.080 A  
HETATM   31  C   UNL     1      -8.082   3.707  65.180  1.00  0.00    -0.097 A  
HETATM   32  C   UNL     1      -8.893   2.567  65.256  1.00  0.00    -0.121 A  
HETATM   33  C   UNL     1      -8.973   1.836  66.443  1.00  0.00    -0.098 A  
HETATM   34  C   UNL     1      -9.644   2.151  64.105  1.00  0.00    -0.133 C  
HETATM   35  N   UNL     1     -10.251   1.806  63.177  1.00  0.00    -0.113 NA 
HETATM   36  C   UNL     1      -8.252   2.219  67.581  1.00  0.00    -0.074 A  
ENDBRANCH  24  25
ENDBRANCH  23  24
ENDBRANCH  22  23
ENDBRANCH  21  22
ENDBRANCH  17  21
ENDBRANCH  10  15
ENDBRANCH   2   6
TORSDOF 7
ENDMDL
MODEL      243
REMARK 921   NORMALIZED FREE ENERGY PREDICTED BY IDOCK:   -3.65 KCAL/MOL
REMARK 922        TOTAL FREE ENERGY PREDICTED BY IDOCK:   -6.42 KCAL/MOL
REMARK 923 INTER-LIGAND FREE ENERGY PREDICTED BY IDOCK:   -5.09 KCAL/MOL
REMARK 924 INTRA-LIGAND FREE ENERGY PREDICTED BY IDOCK:   -1.33 KCAL/MOL
REMARK 927      BINDING AFFINITY PREDICTED BY RF-SCORE:    0.00 PKD
ROOT
HETATM    1  N   UNL     1     -11.992  14.315  65.522  1.00  0.00    -0.375 N  
HETATM    2  C   UNL     1     -11.629  13.782  66.726  1.00  0.00    -0.370 C  
HETATM    3  H1  UNL     1     -11.670  13.888  64.654  1.00  0.00     0.000 HD 
HETATM    4  H2  UNL     1     -12.586  15.143  65.492  1.00  0.00     0.000 HD 
HETATM    5  O   UNL     1     -12.016  14.296  67.771  1.00  0.00    -0.371 OA 
ENDROOT
BRANCH   2   6
HETATM    6  C   UNL     1     -10.805  12.600  66.650  1.00  0.00    -0.258 A  
HETATM    7  C   UNL     1     -10.408  11.719  67.638  1.00  0.00    -0.219 A  
HETATM    8  C   UNL     1      -9.643  10.710  67.006  1.00  0.00    -0.196 A  
HETATM    9  C   UNL     1      -8.987   9.540  67.426  1.00  0.00    -0.141 A  
HETATM   10  C   UNL     1      -8.282   8.739  66.506  1.00  0.00    -0.111 A  
HETATM   11  C   UNL     1      -8.263   9.160  65.163  1.00  0.00    -0.147 A  
HETATM   12  O   UNL     1     -10.296  12.197  65.440  1.00  0.00    -0.253 OA 
HETATM   13  C   UNL     1      -9.593  11.054  65.664  1.00  0.00    -0.226 A  
HETATM   14  C   UNL     1      -8.916  10.315  64.706  1.00  0.00    -0.232 A  
BRANCH  10  15
HETATM   15  N   UNL     1      -7.613   7.603  66.916  1.00  0.00    -0.100 NA 
HETATM   16  C   UNL     1      -6.762   6.819  66.009  1.00  0.00    -0.052 C  
HETATM   17  N   UNL     1      -5.548   5.823  68.010  1.00  0.00    -0.011 NA 
HETATM   18  C   UNL     1      -5.416   6.507  66.698  1.00  0.00    -0.013 C  
HETATM   19  C   UNL     1      -7.787   7.035  68.264  1.00  0.00    -0.118 C  
HETATM   20  C   UNL     1      -6.409   6.672  68.871  1.00  0.00    -0.035 C  
BRANCH  17  21
HETATM   21  C   UNL     1      -6.109   4.468  67.883  1.00  0.00    -0.031 C  
BRANCH  21  22
HETATM   22  C   UNL     1      -6.265   3.751  69.232  1.00  0.00    -0.028 C  
BRANCH  22  23
HETATM   23  C   UNL     1      -6.969   2.395  69.132  1.00  0.00    -0.040 C  
BRANCH  23  24
HETATM   24  C   UNL     1      -8.404   2.466  69.653  1.00  0.00    -0.076 C  
BRANCH  24  25
HETATM   25  C   UNL     1      -8.479   3.000  71.041  1.00  0.00    -0.096 A  
HETATM   26  C   UNL     1      -8.043   2.366  72.188  1.00  0.00    -0.054 A  
HETATM   27  N   UNL     1      -8.317   3.179  73.252  1.00  0.00    -0.073 NA 
HETATM   28  H   UNL     1      -8.102   2.958  74.224  1.00  0.00     0.000 HD 
HETATM   29  C   UNL     1      -8.923   4.338  72.826  1.00  0.00    -0.106 A  
HETATM   30  C   UNL     1      -9.030   4.259  71.440  1.00  0.00    -0.163 A  
HETATM   31  C   UNL     1      -9.616   5.339  70.740  1.00  0.00    -0.234 A  
HETATM   32  C   UNL     1     -10.086   6.448  71.456  1.00  0.00    -0.215 A  
HETATM   33  C   UNL     1      -9.968   6.492  72.847  1.00  0.00    -0.188 A  
HETATM   34  C   UNL     1     -10.691   7.544  70.753  1.00  0.00    -0.229 C  
HETATM   35  N   UNL     1     -11.186   8.432  70.191  1.00  0.00    -0.193 NA 
HETATM   36  C   UNL     1      -9.382   5.437  73.559  1.00  0.00    -0.134 A  
ENDBRANCH  24  25
ENDBRANCH  23  24
ENDBRANCH  22  23
ENDBRANCH  21  22
ENDBRANCH  17  21
ENDBRANCH  10  15
ENDBRANCH   2   6
TORSDOF 7
ENDMDL
MODEL      244
REMARK 921   NORMALIZED FREE ENERGY PREDICTED BY IDOCK:   -3.64 KCAL/MOL
REMARK 922        TOTAL FREE ENERGY PREDICTED BY IDOCK:   -6.40 KCAL/MOL
REMARK 923 INTER-LIGAND FREE ENERGY PREDICTED BY IDOCK:   -5.76 KCAL/MOL
REMARK 924 INTRA-LIGAND FREE ENERGY PREDICTED BY IDOCK:   -0.64 KCAL/MOL
REMARK 927      BINDING AFFINITY PREDICTED BY RF-SCORE:    0.00 PKD
ROOT
HETATM    1  N   UNL     1     -10.610  20.772  64.927  1.00  0.00     0.571 N  
HETATM    2  C   UNL     1     -10.427  20.131  66.119  1.00  0.00    -0.339 C  
HETATM    3  H1  UNL     1     -10.730  20.234  64.069  1.00  0.00     0.000 HD 
HETATM    4  H2  UNL     1     -10.628  21.791  64.895  1.00  0.00     0.000 HD 
HETATM    5  O   UNL     1     -10.283  20.778  67.152  1.00  0.00    -0.252 OA 
ENDROOT
BRANCH   2   6
HETATM    6  C   UNL     1     -10.441  18.690  66.049  1.00  0.00    -0.414 A  
HETATM    7  C   UNL     1      -9.961  17.745  66.936  1.00  0.00    -0.332 A  
HETATM    8  C   UNL     1     -10.277  16.477  66.396  1.00  0.00    -0.324 A  
HETATM    9  C   UNL     1     -10.096  15.142  66.800  1.00  0.00    -0.261 A  
HETATM   10  C   UNL     1     -10.536  14.077  65.990  1.00  0.00    -0.304 A  
HETATM   11  C   UNL     1     -11.156  14.405  64.769  1.00  0.00    -0.402 A  
HETATM   12  O   UNL     1     -11.014  18.063  64.971  1.00  0.00    -0.748 OA 
HETATM   13  C   UNL     1     -10.909  16.723  65.187  1.00  0.00    -0.138 A  
HETATM   14  C   UNL     1     -11.363  15.725  64.339  1.00  0.00    -0.274 A  
BRANCH  10  15
HETATM   15  N   UNL     1     -10.337  12.764  66.368  1.00  0.00    -0.254 NA 
HETATM   16  C   UNL     1     -11.144  11.658  65.831  1.00  0.00    -0.264 C  
HETATM   17  N   UNL     1      -9.311  10.013  66.467  1.00  0.00    -0.157 NA 
HETATM   18  C   UNL     1     -10.218  10.501  65.396  1.00  0.00    -0.270 C  
HETATM   19  C   UNL     1      -9.373  12.388  67.416  1.00  0.00    -0.181 C  
HETATM   20  C   UNL     1      -8.527  11.177  66.952  1.00  0.00    -0.147 C  
BRANCH  17  21
HETATM   21  C   UNL     1     -10.041   9.375  67.574  1.00  0.00    -0.215 C  
BRANCH  21  22
HETATM   22  C   UNL     1      -9.134   8.552  68.499  1.00  0.00    -0.135 C  
BRANCH  22  23
HETATM   23  C   UNL     1      -8.039   7.778  67.761  1.00  0.00    -0.125 C  
BRANCH  23  24
HETATM   24  C   UNL     1      -7.099   7.065  68.732  1.00  0.00    -0.089 C  
BRANCH  24  25
HETATM   25  C   UNL     1      -7.698   5.823  69.294  1.00  0.00    -0.089 A  
HETATM   26  C   UNL     1      -8.422   5.720  70.466  1.00  0.00    -0.127 A  
HETATM   27  N   UNL     1      -8.768   4.409  70.636  1.00  0.00    -0.088 NA 
HETATM   28  H   UNL     1      -9.307   4.047  71.423  1.00  0.00     0.000 HD 
HETATM   29  C   UNL     1      -8.287   3.648  69.597  1.00  0.00    -0.052 A  
HETATM   30  C   UNL     1      -7.617   4.510  68.733  1.00  0.00    -0.064 A  
HETATM   31  C   UNL     1      -7.028   3.977  67.562  1.00  0.00    -0.055 A  
HETATM   32  C   UNL     1      -7.119   2.602  67.311  1.00  0.00    -0.053 A  
HETATM   33  C   UNL     1      -7.793   1.765  68.203  1.00  0.00    -0.057 A  
HETATM   34  C   UNL     1      -6.514   2.053  66.130  1.00  0.00    -0.024 C  
HETATM   35  N   UNL     1      -6.024   1.602  65.179  1.00  0.00    -0.016 NA 
HETATM   36  C   UNL     1      -8.392   2.272  69.363  1.00  0.00    -0.077 A  
ENDBRANCH  24  25
ENDBRANCH  23  24
ENDBRANCH  22  23
ENDBRANCH  21  22
ENDBRANCH  17  21
ENDBRANCH  10  15
ENDBRANCH   2   6
TORSDOF 7
ENDMDL
MODEL      245
REMARK 921   NORMALIZED FREE ENERGY PREDICTED BY IDOCK:   -3.63 KCAL/MOL
REMARK 922        TOTAL FREE ENERGY PREDICTED BY IDOCK:   -6.40 KCAL/MOL
REMARK 923 INTER-LIGAND FREE ENERGY PREDICTED BY IDOCK:   -5.75 KCAL/MOL
REMARK 924 INTRA-LIGAND FREE ENERGY PREDICTED BY IDOCK:   -0.64 KCAL/MOL
REMARK 927      BINDING AFFINITY PREDICTED BY RF-SCORE:    0.00 PKD
ROOT
HETATM    1  N   UNL     1      -5.508   3.247  66.329  1.00  0.00    -0.016 N  
HETATM    2  C   UNL     1      -6.678   3.687  66.879  1.00  0.00    -0.046 C  
HETATM    3  H1  UNL     1      -5.042   3.797  65.608  1.00  0.00     0.000 HD 
HETATM    4  H2  UNL     1      -5.099   2.367  66.641  1.00  0.00     0.000 HD 
HETATM    5  O   UNL     1      -7.239   3.025  67.747  1.00  0.00    -0.052 OA 
ENDROOT
BRANCH   2   6
HETATM    6  C   UNL     1      -7.153   4.954  66.379  1.00  0.00    -0.072 A  
HETATM    7  C   UNL     1      -7.914   5.931  66.992  1.00  0.00    -0.102 A  
HETATM    8  C   UNL     1      -8.052   6.988  66.061  1.00  0.00    -0.122 A  
HETATM    9  C   UNL     1      -8.669   8.252  66.065  1.00  0.00    -0.181 A  
HETATM   10  C   UNL     1      -8.625   9.079  64.925  1.00  0.00    -0.180 A  
HETATM   11  C   UNL     1      -7.946   8.587  63.795  1.00  0.00    -0.161 A  
HETATM   12  O   UNL     1      -6.839   5.346  65.101  1.00  0.00    -0.047 OA 
HETATM   13  C   UNL     1      -7.389   6.577  64.916  1.00  0.00    -0.076 A  
HETATM   14  C   UNL     1      -7.310   7.336  63.759  1.00  0.00    -0.089 A  
BRANCH  10  15
HETATM   15  N   UNL     1      -9.252  10.308  64.912  1.00  0.00    -0.205 NA 
HETATM   16  C   UNL     1      -9.191  11.212  63.754  1.00  0.00    -0.131 C  
HETATM   17  N   UNL     1     -11.286  12.401  64.573  1.00  0.00    -0.314 NA 
HETATM   18  C   UNL     1     -10.607  11.739  63.430  1.00  0.00    -0.420 C  
HETATM   19  C   UNL     1      -9.938  10.850  66.098  1.00  0.00    -0.233 C  
HETATM   20  C   UNL     1     -11.316  11.431  65.696  1.00  0.00     0.001 C  
BRANCH  17  21
HETATM   21  C   UNL     1     -10.618  13.649  64.977  1.00  0.00    -0.383 C  
BRANCH  21  22
HETATM   22  C   UNL     1     -11.481  14.525  65.897  1.00  0.00    -0.345 C  
BRANCH  22  23
HETATM   23  C   UNL     1     -10.720  15.097  67.095  1.00  0.00    -0.310 C  
BRANCH  23  24
HETATM   24  C   UNL     1     -10.116  13.991  67.959  1.00  0.00    -0.239 C  
BRANCH  24  25
HETATM   25  C   UNL     1      -8.630  14.064  68.018  1.00  0.00    -0.179 A  
HETATM   26  C   UNL     1      -7.776  13.062  68.437  1.00  0.00    -0.137 A  
HETATM   27  N   UNL     1      -6.497  13.537  68.364  1.00  0.00    -0.084 NA 
HETATM   28  H   UNL     1      -5.663  13.006  68.616  1.00  0.00     0.000 HD 
HETATM   29  C   UNL     1      -6.493  14.833  67.904  1.00  0.00    -0.162 A  
HETATM   30  C   UNL     1      -7.818  15.189  67.669  1.00  0.00    -0.178 A  
HETATM   31  C   UNL     1      -8.097  16.485  67.175  1.00  0.00    -0.213 A  
HETATM   32  C   UNL     1      -7.041  17.378  66.951  1.00  0.00    -0.229 A  
HETATM   33  C   UNL     1      -5.723  16.989  67.204  1.00  0.00    -0.194 A  
HETATM   34  C   UNL     1      -7.318  18.698  66.460  1.00  0.00    -0.240 C  
HETATM   35  N   UNL     1      -7.535  19.769  66.066  1.00  0.00    -0.308 NA 
HETATM   36  C   UNL     1      -5.423  15.708  67.683  1.00  0.00    -0.108 A  
ENDBRANCH  24  25
ENDBRANCH  23  24
ENDBRANCH  22  23
ENDBRANCH  21  22
ENDBRANCH  17  21
ENDBRANCH  10  15
ENDBRANCH   2   6
TORSDOF 7
ENDMDL
MODEL      246
REMARK 921   NORMALIZED FREE ENERGY PREDICTED BY IDOCK:   -3.62 KCAL/MOL
REMARK 922        TOTAL FREE ENERGY PREDICTED BY IDOCK:   -6.37 KCAL/MOL
REMARK 923 INTER-LIGAND FREE ENERGY PREDICTED BY IDOCK:   -5.10 KCAL/MOL
REMARK 924 INTRA-LIGAND FREE ENERGY PREDICTED BY IDOCK:   -1.27 KCAL/MOL
REMARK 927      BINDING AFFINITY PREDICTED BY RF-SCORE:    0.00 PKD
ROOT
HETATM    1  N   UNL     1      -8.342   1.743  67.691  1.00  0.00    -0.066 N  
HETATM    2  C   UNL     1      -8.197   3.041  67.293  1.00  0.00    -0.083 C  
HETATM    3  H1  UNL     1      -8.902   1.517  68.512  1.00  0.00     0.000 HD 
HETATM    4  H2  UNL     1      -7.889   0.996  67.164  1.00  0.00     0.000 HD 
HETATM    5  O   UNL     1      -7.522   3.313  66.304  1.00  0.00    -0.074 OA 
ENDROOT
BRANCH   2   6
HETATM    6  C   UNL     1      -8.898   4.011  68.098  1.00  0.00    -0.108 A  
HETATM    7  C   UNL     1      -9.264   5.313  67.816  1.00  0.00    -0.120 A  
HETATM    8  C   UNL     1      -9.971   5.795  68.943  1.00  0.00    -0.211 A  
HETATM    9  C   UNL     1     -10.616   6.997  69.283  1.00  0.00    -0.240 A  
HETATM   10  C   UNL     1     -11.236   7.154  70.538  1.00  0.00    -0.290 A  
HETATM   11  C   UNL     1     -11.179   6.064  71.428  1.00  0.00    -0.325 A  
HETATM   12  O   UNL     1      -9.322   3.675  69.360  1.00  0.00    -0.149 OA 
HETATM   13  C   UNL     1      -9.970   4.760  69.865  1.00  0.00    -0.236 A  
HETATM   14  C   UNL     1     -10.555   4.846  71.119  1.00  0.00    -0.096 A  
BRANCH  10  15
HETATM   15  N   UNL     1     -11.846   8.341  70.889  1.00  0.00    -0.259 NA 
HETATM   16  C   UNL     1     -11.627   9.591  70.146  1.00  0.00    -0.111 C  
HETATM   17  N   UNL     1     -13.803  10.525  71.076  1.00  0.00     0.449 NA 
HETATM   18  C   UNL     1     -12.983  10.273  69.863  1.00  0.00     0.382 C  
HETATM   19  C   UNL     1     -12.679   8.466  72.098  1.00  0.00    -0.356 C  
HETATM   20  C   UNL     1     -13.988   9.224  71.767  1.00  0.00    -0.260 C  
BRANCH  17  21
HETATM   21  C   UNL     1     -13.185  11.512  71.976  1.00  0.00    -0.337 C  
BRANCH  21  22
HETATM   22  C   UNL     1     -13.350  12.959  71.488  1.00  0.00    -0.260 C  
BRANCH  22  23
HETATM   23  C   UNL     1     -12.049  13.594  70.991  1.00  0.00    -0.273 C  
BRANCH  23  24
HETATM   24  C   UNL     1     -12.167  14.061  69.542  1.00  0.00    -0.355 C  
BRANCH  24  25
HETATM   25  C   UNL     1     -10.856  14.473  68.968  1.00  0.00    -0.265 A  
HETATM   26  C   UNL     1     -10.465  15.761  68.659  1.00  0.00    -0.231 A  
HETATM   27  N   UNL     1      -9.205  15.707  68.132  1.00  0.00    -0.184 NA 
HETATM   28  H   UNL     1      -8.672  16.516  67.815  1.00  0.00     0.000 HD 
HETATM   29  C   UNL     1      -8.759  14.407  68.091  1.00  0.00    -0.175 A  
HETATM   30  C   UNL     1      -9.771  13.609  68.618  1.00  0.00    -0.118 A  
HETATM   31  C   UNL     1      -9.562  12.212  68.701  1.00  0.00    -0.068 A  
HETATM   32  C   UNL     1      -8.357  11.668  68.238  1.00  0.00    -0.159 A  
HETATM   33  C   UNL     1      -7.365  12.498  67.710  1.00  0.00    -0.124 A  
HETATM   34  C   UNL     1      -8.143  10.250  68.310  1.00  0.00    -0.107 C  
HETATM   35  N   UNL     1      -7.965   9.104  68.361  1.00  0.00    -0.102 NA 
HETATM   36  C   UNL     1      -7.547  13.884  67.628  1.00  0.00    -0.188 A  
ENDBRANCH  24  25
ENDBRANCH  23  24
ENDBRANCH  22  23
ENDBRANCH  21  22
ENDBRANCH  17  21
ENDBRANCH  10  15
ENDBRANCH   2   6
TORSDOF 7
ENDMDL
MODEL      247
REMARK 921   NORMALIZED FREE ENERGY PREDICTED BY IDOCK:   -3.57 KCAL/MOL
REMARK 922        TOTAL FREE ENERGY PREDICTED BY IDOCK:   -6.31 KCAL/MOL
REMARK 923 INTER-LIGAND FREE ENERGY PREDICTED BY IDOCK:   -5.57 KCAL/MOL
REMARK 924 INTRA-LIGAND FREE ENERGY PREDICTED BY IDOCK:   -0.74 KCAL/MOL
REMARK 927      BINDING AFFINITY PREDICTED BY RF-SCORE:    0.00 PKD
ROOT
HETATM    1  N   UNL     1     -10.893  17.030  68.096  1.00  0.00    -0.372 N  
HETATM    2  C   UNL     1     -11.396  15.815  68.464  1.00  0.00    -0.374 C  
HETATM    3  H1  UNL     1     -10.197  17.094  67.354  1.00  0.00     0.000 HD 
HETATM    4  H2  UNL     1     -11.215  17.876  68.566  1.00  0.00     0.000 HD 
HETATM    5  O   UNL     1     -12.234  15.737  69.357  1.00  0.00    -0.313 OA 
ENDROOT
BRANCH   2   6
HETATM    6  C   UNL     1     -10.886  14.689  67.719  1.00  0.00    -0.267 A  
HETATM    7  C   UNL     1     -10.057  13.655  68.112  1.00  0.00    -0.245 A  
HETATM    8  C   UNL     1      -9.911  12.799  66.995  1.00  0.00    -0.231 A  
HETATM    9  C   UNL     1      -9.239  11.590  66.741  1.00  0.00    -0.187 A  
HETATM   10  C   UNL     1      -9.294  10.988  65.469  1.00  0.00    -0.215 A  
HETATM   11  C   UNL     1     -10.042  11.645  64.474  1.00  0.00    -0.321 A  
HETATM   12  O   UNL     1     -11.236  14.526  66.401  1.00  0.00    -0.328 OA 
HETATM   13  C   UNL     1     -10.641  13.380  65.970  1.00  0.00    -0.287 A  
HETATM   14  C   UNL     1     -10.735  12.846  64.694  1.00  0.00    -0.373 A  
BRANCH  10  15
HETATM   15  N   UNL     1      -8.614   9.816  65.204  1.00  0.00    -0.147 NA 
HETATM   16  C   UNL     1      -8.526   8.718  66.178  1.00  0.00    -0.131 C  
HETATM   17  N   UNL     1      -7.998   7.091  64.295  1.00  0.00    -0.119 NA 
HETATM   18  C   UNL     1      -8.846   7.378  65.481  1.00  0.00     0.035 C  
HETATM   19  C   UNL     1      -7.838   9.624  63.967  1.00  0.00    -0.137 C  
HETATM   20  C   UNL     1      -8.143   8.233  63.358  1.00  0.00    -0.133 C  
BRANCH  17  21
HETATM   21  C   UNL     1      -6.586   6.882  64.651  1.00  0.00    -0.042 C  
BRANCH  21  22
HETATM   22  C   UNL     1      -6.397   5.911  65.825  1.00  0.00    -0.042 C  
BRANCH  22  23
HETATM   23  C   UNL     1      -5.593   4.659  65.466  1.00  0.00    -0.014 C  
BRANCH  23  24
HETATM   24  C   UNL     1      -6.483   3.420  65.387  1.00  0.00    -0.032 C  
BRANCH  24  25
HETATM   25  C   UNL     1      -7.762   3.591  66.130  1.00  0.00    -0.081 A  
HETATM   26  C   UNL     1      -9.023   3.698  65.576  1.00  0.00    -0.138 A  
HETATM   27  N   UNL     1      -9.919   3.868  66.593  1.00  0.00    -0.374 NA 
HETATM   28  H   UNL     1     -10.926   3.977  66.470  1.00  0.00     0.000 HD 
HETATM   29  C   UNL     1      -9.272   3.874  67.807  1.00  0.00    -0.166 A  
HETATM   30  C   UNL     1      -7.916   3.692  67.548  1.00  0.00    -0.082 A  
HETATM   31  C   UNL     1      -7.016   3.649  68.638  1.00  0.00    -0.050 A  
HETATM   32  C   UNL     1      -7.506   3.804  69.942  1.00  0.00    -0.048 A  
HETATM   33  C   UNL     1      -8.872   3.991  70.164  1.00  0.00    -0.137 A  
HETATM   34  C   UNL     1      -6.596   3.771  71.052  1.00  0.00    -0.031 C  
HETATM   35  N   UNL     1      -5.866   3.750  71.955  1.00  0.00    -0.008 NA 
HETATM   36  C   UNL     1      -9.782   4.027  69.100  1.00  0.00    -0.177 A  
ENDBRANCH  24  25
ENDBRANCH  23  24
ENDBRANCH  22  23
ENDBRANCH  21  22
ENDBRANCH  17  21
ENDBRANCH  10  15
ENDBRANCH   2   6
TORSDOF 7
ENDMDL
MODEL      248
REMARK 921   NORMALIZED FREE ENERGY PREDICTED BY IDOCK:   -3.56 KCAL/MOL
REMARK 922        TOTAL FREE ENERGY PREDICTED BY IDOCK:   -6.29 KCAL/MOL
REMARK 923 INTER-LIGAND FREE ENERGY PREDICTED BY IDOCK:   -5.53 KCAL/MOL
REMARK 924 INTRA-LIGAND FREE ENERGY PREDICTED BY IDOCK:   -0.76 KCAL/MOL
REMARK 927      BINDING AFFINITY PREDICTED BY RF-SCORE:    0.00 PKD
ROOT
HETATM    1  N   UNL     1     -10.594   4.130  67.245  1.00  0.00     0.361 N  
HETATM    2  C   UNL     1      -9.901   4.982  66.434  1.00  0.00    -0.201 C  
HETATM    3  H1  UNL     1     -11.067   4.483  68.077  1.00  0.00     0.000 HD 
HETATM    4  H2  UNL     1     -10.639   3.136  67.018  1.00  0.00     0.000 HD 
HETATM    5  O   UNL     1      -9.332   4.557  65.433  1.00  0.00    -0.148 OA 
ENDROOT
BRANCH   2   6
HETATM    6  C   UNL     1      -9.923   6.367  66.838  1.00  0.00    -0.167 A  
HETATM    7  C   UNL     1      -9.971   7.521  66.080  1.00  0.00     0.155 A  
HETATM    8  C   UNL     1     -10.017   8.606  66.987  1.00  0.00    -0.317 A  
HETATM    9  C   UNL     1     -10.100  10.005  66.872  1.00  0.00    -0.287 A  
HETATM   10  C   UNL     1     -10.115  10.824  68.018  1.00  0.00    -0.176 A  
HETATM   11  C   UNL     1     -10.042  10.185  69.270  1.00  0.00    -0.237 A  
HETATM   12  O   UNL     1      -9.908   6.690  68.173  1.00  0.00    -0.129 OA 
HETATM   13  C   UNL     1      -9.964   8.047  68.254  1.00  0.00    -0.185 A  
HETATM   14  C   UNL     1      -9.970   8.791  69.424  1.00  0.00    -0.196 A  
BRANCH  10  15
HETATM   15  N   UNL     1     -10.168  12.199  67.912  1.00  0.00    -0.193 NA 
HETATM   16  C   UNL     1      -9.143  13.075  68.498  1.00  0.00    -0.053 C  
HETATM   17  N   UNL     1      -9.821  14.936  66.900  1.00  0.00    -0.235 NA 
HETATM   18  C   UNL     1      -8.705  14.131  67.459  1.00  0.00    -0.204 C  
HETATM   19  C   UNL     1     -11.311  12.893  67.294  1.00  0.00    -0.310 C  
HETATM   20  C   UNL     1     -10.808  13.989  66.323  1.00  0.00    -0.291 C  
BRANCH  17  21
HETATM   21  C   UNL     1     -10.454  15.797  67.913  1.00  0.00    -0.270 C  
BRANCH  21  22
HETATM   22  C   UNL     1     -10.192  17.292  67.680  1.00  0.00    -0.333 C  
BRANCH  22  23
HETATM   23  C   UNL     1      -9.191  17.576  66.557  1.00  0.00    -0.286 C  
BRANCH  23  24
HETATM   24  C   UNL     1      -9.388  18.971  65.966  1.00  0.00    -0.095 C  
BRANCH  24  25
HETATM   25  C   UNL     1      -8.132  19.770  65.963  1.00  0.00    -0.334 A  
HETATM   26  C   UNL     1      -7.498  20.295  64.855  1.00  0.00     0.455 A  
HETATM   27  N   UNL     1      -6.366  20.936  65.277  1.00  0.00    -0.408 NA 
HETATM   28  H   UNL     1      -5.705  21.414  64.666  1.00  0.00     0.000 HD 
HETATM   29  C   UNL     1      -6.246  20.843  66.644  1.00  0.00    -0.263 A  
HETATM   30  C   UNL     1      -7.345  20.124  67.105  1.00  0.00    -0.308 A  
HETATM   31  C   UNL     1      -7.472  19.891  68.494  1.00  0.00    -0.300 A  
HETATM   32  C   UNL     1      -6.486  20.373  69.365  1.00  0.00    -0.220 A  
HETATM   33  C   UNL     1      -5.392  21.086  68.868  1.00  0.00    -0.374 A  
HETATM   34  C   UNL     1      -6.603  20.131  70.775  1.00  0.00     0.051 C  
HETATM   35  N   UNL     1      -6.689  19.936  71.917  1.00  0.00     0.298 NA 
HETATM   36  C   UNL     1      -5.252  21.336  67.497  1.00  0.00    -0.326 A  
ENDBRANCH  24  25
ENDBRANCH  23  24
ENDBRANCH  22  23
ENDBRANCH  21  22
ENDBRANCH  17  21
ENDBRANCH  10  15
ENDBRANCH   2   6
TORSDOF 7
ENDMDL
MODEL      249
REMARK 921   NORMALIZED FREE ENERGY PREDICTED BY IDOCK:   -3.52 KCAL/MOL
REMARK 922        TOTAL FREE ENERGY PREDICTED BY IDOCK:   -6.24 KCAL/MOL
REMARK 923 INTER-LIGAND FREE ENERGY PREDICTED BY IDOCK:   -6.02 KCAL/MOL
REMARK 924 INTRA-LIGAND FREE ENERGY PREDICTED BY IDOCK:   -0.22 KCAL/MOL
REMARK 927      BINDING AFFINITY PREDICTED BY RF-SCORE:    0.00 PKD
ROOT
HETATM    1  N   UNL     1      -5.965   3.958  64.232  1.00  0.00    -0.018 N  
HETATM    2  C   UNL     1      -6.898   4.393  65.129  1.00  0.00    -0.053 C  
HETATM    3  H1  UNL     1      -5.746   4.517  63.407  1.00  0.00     0.000 HD 
HETATM    4  H2  UNL     1      -5.486   3.072  64.387  1.00  0.00     0.000 HD 
HETATM    5  O   UNL     1      -7.161   3.721  66.121  1.00  0.00    -0.062 OA 
ENDROOT
BRANCH   2   6
HETATM    6  C   UNL     1      -7.497   5.669  64.821  1.00  0.00    -0.079 A  
HETATM    7  C   UNL     1      -8.104   6.596  65.646  1.00  0.00    -0.125 A  
HETATM    8  C   UNL     1      -8.476   7.691  64.831  1.00  0.00     0.008 A  
HETATM    9  C   UNL     1      -9.092   8.937  65.045  1.00  0.00    -0.110 A  
HETATM   10  C   UNL     1      -9.333   9.817  63.971  1.00  0.00    -0.155 A  
HETATM   11  C   UNL     1      -8.935   9.396  62.688  1.00  0.00    -0.215 A  
HETATM   12  O   UNL     1      -7.502   6.128  63.527  1.00  0.00    -0.065 OA 
HETATM   13  C   UNL     1      -8.097   7.352  63.541  1.00  0.00    -0.006 A  
HETATM   14  C   UNL     1      -8.307   8.166  62.439  1.00  0.00    -0.142 A  
BRANCH  10  15
HETATM   15  N   UNL     1      -9.963  11.029  64.170  1.00  0.00    -0.299 NA 
HETATM   16  C   UNL     1     -11.111  11.463  63.361  1.00  0.00    -0.219 C  
HETATM   17  N   UNL     1     -11.786  13.092  65.195  1.00  0.00    -0.347 NA 
HETATM   18  C   UNL     1     -12.225  12.002  64.285  1.00  0.00    -0.308 C  
HETATM   19  C   UNL     1      -9.463  12.021  65.137  1.00  0.00     0.010 C  
HETATM   20  C   UNL     1     -10.635  12.580  65.981  1.00  0.00    -0.263 C  
BRANCH  17  21
HETATM   21  C   UNL     1     -11.420  14.317  64.468  1.00  0.00    -0.355 C  
BRANCH  21  22
HETATM   22  C   UNL     1     -10.963  15.454  65.393  1.00  0.00    -0.376 C  
BRANCH  22  23
HETATM   23  C   UNL     1      -9.449  15.499  65.613  1.00  0.00    -0.271 C  
BRANCH  23  24
HETATM   24  C   UNL     1      -9.079  15.169  67.058  1.00  0.00    -0.249 C  
BRANCH  24  25
HETATM   25  C   UNL     1      -9.656  16.139  68.029  1.00  0.00    -0.220 A  
HETATM   26  C   UNL     1     -10.626  15.872  68.975  1.00  0.00    -0.247 A  
HETATM   27  N   UNL     1     -10.897  17.033  69.644  1.00  0.00    -0.358 NA 
HETATM   28  H   UNL     1     -11.578  17.125  70.397  1.00  0.00     0.000 HD 
HETATM   29  C   UNL     1     -10.121  18.058  69.156  1.00  0.00    -0.196 A  
HETATM   30  C   UNL     1      -9.324  17.526  68.147  1.00  0.00    -0.276 A  
HETATM   31  C   UNL     1      -8.415  18.377  67.477  1.00  0.00    -0.260 A  
HETATM   32  C   UNL     1      -8.349  19.730  67.834  1.00  0.00    -0.342 A  
HETATM   33  C   UNL     1      -9.168  20.233  68.848  1.00  0.00     0.284 A  
HETATM   34  C   UNL     1      -7.436  20.602  67.151  1.00  0.00    -0.330 C  
HETATM   35  N   UNL     1      -6.702  21.315  66.601  1.00  0.00    -0.365 NA 
HETATM   36  C   UNL     1     -10.069  19.406  69.530  1.00  0.00    -0.014 A  
ENDBRANCH  24  25
ENDBRANCH  23  24
ENDBRANCH  22  23
ENDBRANCH  21  22
ENDBRANCH  17  21
ENDBRANCH  10  15
ENDBRANCH   2   6
TORSDOF 7
ENDMDL
MODEL      250
REMARK 921   NORMALIZED FREE ENERGY PREDICTED BY IDOCK:   -3.45 KCAL/MOL
REMARK 922        TOTAL FREE ENERGY PREDICTED BY IDOCK:   -6.14 KCAL/MOL
REMARK 923 INTER-LIGAND FREE ENERGY PREDICTED BY IDOCK:   -5.50 KCAL/MOL
REMARK 924 INTRA-LIGAND FREE ENERGY PREDICTED BY IDOCK:   -0.64 KCAL/MOL
REMARK 927      BINDING AFFINITY PREDICTED BY RF-SCORE:    0.00 PKD
ROOT
HETATM    1  N   UNL     1     -11.068  19.961  65.644  1.00  0.00    -0.106 N  
HETATM    2  C   UNL     1     -10.499  19.692  66.856  1.00  0.00    -0.488 C  
HETATM    3  H1  UNL     1     -11.347  19.199  65.027  1.00  0.00     0.000 HD 
HETATM    4  H2  UNL     1     -11.215  20.929  65.356  1.00  0.00     0.000 HD 
HETATM    5  O   UNL     1     -10.164  20.609  67.599  1.00  0.00    -0.304 OA 
ENDROOT
BRANCH   2   6
HETATM    6  C   UNL     1     -10.358  18.290  67.169  1.00  0.00    -0.384 A  
HETATM    7  C   UNL     1      -9.878  17.245  66.404  1.00  0.00    -0.310 A  
HETATM    8  C   UNL     1      -9.920  16.088  67.217  1.00  0.00    -0.242 A  
HETATM    9  C   UNL     1      -9.562  14.737  67.058  1.00  0.00    -0.248 A  
HETATM   10  C   UNL     1      -9.753  13.812  68.102  1.00  0.00    -0.227 A  
HETATM   11  C   UNL     1     -10.316  14.294  69.299  1.00  0.00    -0.072 A  
HETATM   12  O   UNL     1     -10.722  17.827  68.409  1.00  0.00    -0.316 OA 
HETATM   13  C   UNL     1     -10.456  16.493  68.430  1.00  0.00    -0.307 A  
HETATM   14  C   UNL     1     -10.676  15.637  69.498  1.00  0.00    -0.271 A  
BRANCH  10  15
HETATM   15  N   UNL     1      -9.429  12.480  67.944  1.00  0.00    -0.190 NA 
HETATM   16  C   UNL     1      -8.101  11.946  68.280  1.00  0.00    -0.154 C  
HETATM   17  N   UNL     1      -9.088   9.608  68.465  1.00  0.00    -0.130 NA 
HETATM   18  C   UNL     1      -8.255  10.654  69.113  1.00  0.00    -0.139 C  
HETATM   19  C   UNL     1     -10.356  11.517  67.325  1.00  0.00    -0.206 C  
HETATM   20  C   UNL     1     -10.409  10.215  68.163  1.00  0.00    -0.185 C  
BRANCH  17  21
HETATM   21  C   UNL     1      -8.467   9.072  67.244  1.00  0.00    -0.114 C  
BRANCH  21  22
HETATM   22  C   UNL     1      -6.933   9.093  67.288  1.00  0.00    -0.078 C  
BRANCH  22  23
HETATM   23  C   UNL     1      -6.285   7.773  66.862  1.00  0.00    -0.053 C  
BRANCH  23  24
HETATM   24  C   UNL     1      -5.800   6.969  68.066  1.00  0.00    -0.025 C  
BRANCH  24  25
HETATM   25  C   UNL     1      -6.920   6.510  68.932  1.00  0.00    -0.079 A  
HETATM   26  C   UNL     1      -8.056   5.842  68.517  1.00  0.00    -0.106 A  
HETATM   27  N   UNL     1      -8.845   5.626  69.613  1.00  0.00    -0.116 NA 
HETATM   28  H   UNL     1      -9.748   5.153  69.595  1.00  0.00     0.000 HD 
HETATM   29  C   UNL     1      -8.247   6.137  70.741  1.00  0.00    -0.125 A  
HETATM   30  C   UNL     1      -7.032   6.691  70.347  1.00  0.00    -0.063 A  
HETATM   31  C   UNL     1      -6.204   7.283  71.329  1.00  0.00    -0.036 A  
HETATM   32  C   UNL     1      -6.632   7.312  72.663  1.00  0.00    -0.059 A  
HETATM   33  C   UNL     1      -7.860   6.752  73.022  1.00  0.00    -0.099 A  
HETATM   34  C   UNL     1      -5.801   7.921  73.663  1.00  0.00    -0.063 C  
HETATM   35  N   UNL     1      -5.136   8.415  74.477  1.00  0.00    -0.070 NA 
HETATM   36  C   UNL     1      -8.691   6.152  72.068  1.00  0.00    -0.135 A  
ENDBRANCH  24  25
ENDBRANCH  23  24
ENDBRANCH  22  23
ENDBRANCH  21  22
ENDBRANCH  17  21
ENDBRANCH  10  15
ENDBRANCH   2   6
TORSDOF 7
ENDMDL
MODEL      251
REMARK 921   NORMALIZED FREE ENERGY PREDICTED BY IDOCK:   -3.44 KCAL/MOL
REMARK 922        TOTAL FREE ENERGY PREDICTED BY IDOCK:   -6.12 KCAL/MOL
REMARK 923 INTER-LIGAND FREE ENERGY PREDICTED BY IDOCK:   -5.20 KCAL/MOL
REMARK 924 INTRA-LIGAND FREE ENERGY PREDICTED BY IDOCK:   -0.92 KCAL/MOL
REMARK 927      BINDING AFFINITY PREDICTED BY RF-SCORE:    0.00 PKD
ROOT
HETATM    1  N   UNL     1      -5.720  19.380  69.548  1.00  0.00    -0.225 N  
HETATM    2  C   UNL     1      -6.456  18.971  68.473  1.00  0.00    -0.243 C  
HETATM    3  H1  UNL     1      -5.368  18.698  70.219  1.00  0.00     0.000 HD 
HETATM    4  H2  UNL     1      -5.522  20.372  69.680  1.00  0.00     0.000 HD 
HETATM    5  O   UNL     1      -6.880  19.791  67.666  1.00  0.00    -0.230 OA 
ENDROOT
BRANCH   2   6
HETATM    6  C   UNL     1      -6.656  17.545  68.375  1.00  0.00    -0.190 A  
HETATM    7  C   UNL     1      -7.147  16.779  67.335  1.00  0.00    -0.185 A  
HETATM    8  C   UNL     1      -7.088  15.429  67.755  1.00  0.00    -0.185 A  
HETATM    9  C   UNL     1      -7.403  14.186  67.180  1.00  0.00     0.136 A  
HETATM   10  C   UNL     1      -7.228  12.990  67.904  1.00  0.00    -0.129 A  
HETATM   11  C   UNL     1      -6.731  13.096  69.217  1.00  0.00    -0.061 A  
HETATM   12  O   UNL     1      -6.323  16.733  69.430  1.00  0.00    -0.199 OA 
HETATM   13  C   UNL     1      -6.588  15.454  69.048  1.00  0.00    -0.123 A  
HETATM   14  C   UNL     1      -6.395  14.319  69.820  1.00  0.00    -0.144 A  
BRANCH  10  15
HETATM   15  N   UNL     1      -7.561  11.769  67.355  1.00  0.00    -0.134 NA 
HETATM   16  C   UNL     1      -7.617  11.545  65.903  1.00  0.00     0.396 C  
HETATM   17  N   UNL     1      -7.354   9.043  66.279  1.00  0.00    -0.090 NA 
HETATM   18  C   UNL     1      -6.869  10.241  65.548  1.00  0.00    -0.134 C  
HETATM   19  C   UNL     1      -7.988  10.628  68.184  1.00  0.00    -0.113 C  
HETATM   20  C   UNL     1      -7.262   9.338  67.731  1.00  0.00    -0.083 C  
BRANCH  17  21
HETATM   21  C   UNL     1      -8.730   8.676  65.906  1.00  0.00    -0.172 C  
BRANCH  21  22
HETATM   22  C   UNL     1      -8.837   7.269  65.302  1.00  0.00     0.154 C  
BRANCH  22  23
HETATM   23  C   UNL     1      -8.733   6.145  66.337  1.00  0.00    -0.138 C  
BRANCH  23  24
HETATM   24  C   UNL     1     -10.107   5.728  66.856  1.00  0.00    -0.231 C  
BRANCH  24  25
HETATM   25  C   UNL     1     -10.056   5.219  68.255  1.00  0.00    -0.219 A  
HETATM   26  C   UNL     1      -9.638   3.965  68.655  1.00  0.00    -0.111 A  
HETATM   27  N   UNL     1      -9.769   3.889  70.014  1.00  0.00    -0.201 NA 
HETATM   28  H   UNL     1      -9.533   3.071  70.576  1.00  0.00     0.000 HD 
HETATM   29  C   UNL     1     -10.264   5.070  70.515  1.00  0.00    -0.246 A  
HETATM   30  C   UNL     1     -10.446   5.929  69.434  1.00  0.00    -0.343 A  
HETATM   31  C   UNL     1     -10.943   7.231  69.676  1.00  0.00    -0.204 A  
HETATM   32  C   UNL     1     -11.252   7.616  70.987  1.00  0.00    -0.283 A  
HETATM   33  C   UNL     1     -11.063   6.727  72.047  1.00  0.00    -0.283 A  
HETATM   34  C   UNL     1     -11.767   8.933  71.238  1.00  0.00    -0.306 C  
HETATM   35  N   UNL     1     -12.187   9.995  71.449  1.00  0.00    -0.390 NA 
HETATM   36  C   UNL     1     -10.563   5.437  71.831  1.00  0.00    -0.288 A  
ENDBRANCH  24  25
ENDBRANCH  23  24
ENDBRANCH  22  23
ENDBRANCH  21  22
ENDBRANCH  17  21
ENDBRANCH  10  15
ENDBRANCH   2   6
TORSDOF 7
ENDMDL
MODEL      252
REMARK 921   NORMALIZED FREE ENERGY PREDICTED BY IDOCK:   -3.36 KCAL/MOL
REMARK 922        TOTAL FREE ENERGY PREDICTED BY IDOCK:   -6.01 KCAL/MOL
REMARK 923 INTER-LIGAND FREE ENERGY PREDICTED BY IDOCK:   -4.77 KCAL/MOL
REMARK 924 INTRA-LIGAND FREE ENERGY PREDICTED BY IDOCK:   -1.24 KCAL/MOL
REMARK 927      BINDING AFFINITY PREDICTED BY RF-SCORE:    0.00 PKD
ROOT
HETATM    1  N   UNL     1     -12.589  15.126  63.683  1.00  0.00    -0.776 N  
HETATM    2  C   UNL     1     -11.579  15.151  64.601  1.00  0.00    -0.357 C  
HETATM    3  H1  UNL     1     -12.899  14.239  63.285  1.00  0.00     0.000 HD 
HETATM    4  H2  UNL     1     -13.036  15.996  63.395  1.00  0.00     0.000 HD 
HETATM    5  O   UNL     1     -11.207  16.218  65.081  1.00  0.00    -0.235 OA 
ENDROOT
BRANCH   2   6
HETATM    6  C   UNL     1     -11.035  13.861  64.951  1.00  0.00    -0.386 A  
HETATM    7  C   UNL     1      -9.819  13.286  64.636  1.00  0.00    -0.000 A  
HETATM    8  C   UNL     1      -9.784  12.024  65.274  1.00  0.00    -0.183 A  
HETATM    9  C   UNL     1      -8.849  10.978  65.375  1.00  0.00    -0.157 A  
HETATM   10  C   UNL     1      -9.148   9.812  66.107  1.00  0.00    -0.161 A  
HETATM   11  C   UNL     1     -10.412   9.741  66.724  1.00  0.00    -0.259 A  
HETATM   12  O   UNL     1     -11.766  13.000  65.732  1.00  0.00    -0.343 OA 
HETATM   13  C   UNL     1     -11.002  11.889  65.921  1.00  0.00    -0.307 A  
HETATM   14  C   UNL     1     -11.364  10.770  66.654  1.00  0.00     0.166 A  
BRANCH  10  15
HETATM   15  N   UNL     1      -8.247   8.770  66.187  1.00  0.00    -0.113 NA 
HETATM   16  C   UNL     1      -8.657   7.395  66.509  1.00  0.00    -0.132 C  
HETATM   17  N   UNL     1      -6.520   6.510  65.450  1.00  0.00    -0.038 NA 
HETATM   18  C   UNL     1      -8.001   6.410  65.517  1.00  0.00    -0.116 C  
HETATM   19  C   UNL     1      -6.794   8.979  66.061  1.00  0.00    -0.080 C  
HETATM   20  C   UNL     1      -6.182   7.916  65.116  1.00  0.00    -0.041 C  
BRANCH  17  21
HETATM   21  C   UNL     1      -5.873   6.101  66.707  1.00  0.00    -0.020 C  
BRANCH  21  22
HETATM   22  C   UNL     1      -5.519   4.607  66.745  1.00  0.00    -0.013 C  
BRANCH  22  23
HETATM   23  C   UNL     1      -5.712   3.963  68.120  1.00  0.00    -0.022 C  
BRANCH  23  24
HETATM   24  C   UNL     1      -6.773   2.864  68.084  1.00  0.00    -0.040 C  
BRANCH  24  25
HETATM   25  C   UNL     1      -8.112   3.380  67.685  1.00  0.00    -0.080 A  
HETATM   26  C   UNL     1      -8.757   3.143  66.487  1.00  0.00    -0.131 A  
HETATM   27  N   UNL     1      -9.947   3.815  66.506  1.00  0.00    -0.395 NA 
HETATM   28  H   UNL     1     -10.627   3.817  65.746  1.00  0.00     0.000 HD 
HETATM   29  C   UNL     1     -10.098   4.487  67.696  1.00  0.00    -0.015 A  
HETATM   30  C   UNL     1      -8.965   4.226  68.462  1.00  0.00    -0.154 A  
HETATM   31  C   UNL     1      -8.869   4.796  69.753  1.00  0.00    -0.128 A  
HETATM   32  C   UNL     1      -9.903   5.618  70.220  1.00  0.00    -0.254 A  
HETATM   33  C   UNL     1     -11.024   5.864  69.422  1.00  0.00    -0.421 A  
HETATM   34  C   UNL     1      -9.807   6.208  71.525  1.00  0.00    -0.167 C  
HETATM   35  N   UNL     1      -9.736   6.693  72.578  1.00  0.00    -0.158 NA 
HETATM   36  C   UNL     1     -11.143   5.302  68.146  1.00  0.00     0.746 A  
ENDBRANCH  24  25
ENDBRANCH  23  24
ENDBRANCH  22  23
ENDBRANCH  21  22
ENDBRANCH  17  21
ENDBRANCH  10  15
ENDBRANCH   2   6
TORSDOF 7
ENDMDL
MODEL      253
REMARK 921   NORMALIZED FREE ENERGY PREDICTED BY IDOCK:   -3.33 KCAL/MOL
REMARK 922        TOTAL FREE ENERGY PREDICTED BY IDOCK:   -5.97 KCAL/MOL
REMARK 923 INTER-LIGAND FREE ENERGY PREDICTED BY IDOCK:   -5.21 KCAL/MOL
REMARK 924 INTRA-LIGAND FREE ENERGY PREDICTED BY IDOCK:   -0.76 KCAL/MOL
REMARK 927      BINDING AFFINITY PREDICTED BY RF-SCORE:    0.00 PKD
ROOT
HETATM    1  N   UNL     1     -10.653   3.144  62.845  1.00  0.00    -0.174 N  
HETATM    2  C   UNL     1      -9.676   3.004  63.789  1.00  0.00    -0.136 C  
HETATM    3  H1  UNL     1     -10.979   4.073  62.577  1.00  0.00     0.000 HD 
HETATM    4  H2  UNL     1     -11.058   2.318  62.406  1.00  0.00     0.000 HD 
HETATM    5  O   UNL     1      -9.284   1.887  64.110  1.00  0.00    -0.107 OA 
ENDROOT
BRANCH   2   6
HETATM    6  C   UNL     1      -9.161   4.240  64.327  1.00  0.00    -0.151 A  
HETATM    7  C   UNL     1      -9.557   4.970  65.431  1.00  0.00    -0.066 A  
HETATM    8  C   UNL     1      -8.680   6.076  65.527  1.00  0.00    -0.120 A  
HETATM    9  C   UNL     1      -8.526   7.159  66.412  1.00  0.00    -0.130 A  
HETATM   10  C   UNL     1      -7.520   8.122  66.204  1.00  0.00    -0.078 A  
HETATM   11  C   UNL     1      -6.687   7.957  65.081  1.00  0.00    -0.051 A  
HETATM   12  O   UNL     1      -8.097   4.859  63.720  1.00  0.00    -0.098 OA 
HETATM   13  C   UNL     1      -7.813   5.971  64.451  1.00  0.00    -0.113 A  
HETATM   14  C   UNL     1      -6.804   6.884  64.183  1.00  0.00    -0.046 A  
BRANCH  10  15
HETATM   15  N   UNL     1      -7.380   9.202  67.053  1.00  0.00    -0.090 NA 
HETATM   16  C   UNL     1      -6.742  10.459  66.632  1.00  0.00    -0.090 C  
HETATM   17  N   UNL     1      -7.926  11.689  68.519  1.00  0.00    -0.142 NA 
HETATM   18  C   UNL     1      -7.616  11.656  67.066  1.00  0.00    -0.154 C  
HETATM   19  C   UNL     1      -7.764   9.136  68.473  1.00  0.00    -0.093 C  
HETATM   20  C   UNL     1      -8.570  10.398  68.867  1.00  0.00    -0.149 C  
BRANCH  17  21
HETATM   21  C   UNL     1      -6.728  11.914  69.343  1.00  0.00    -0.081 C  
BRANCH  21  22
HETATM   22  C   UNL     1      -5.791  12.985  68.765  1.00  0.00    -0.074 C  
BRANCH  22  23
HETATM   23  C   UNL     1      -6.243  14.419  69.051  1.00  0.00    -0.094 C  
BRANCH  23  24
HETATM   24  C   UNL     1      -5.666  15.405  68.037  1.00  0.00    -0.146 C  
BRANCH  24  25
HETATM   25  C   UNL     1      -6.678  16.389  67.562  1.00  0.00    -0.181 A  
HETATM   26  C   UNL     1      -6.538  17.763  67.542  1.00  0.00    -0.164 A  
HETATM   27  N   UNL     1      -7.698  18.301  67.061  1.00  0.00    -0.213 NA 
HETATM   28  H   UNL     1      -7.872  19.298  66.940  1.00  0.00     0.000 HD 
HETATM   29  C   UNL     1      -8.599  17.306  66.761  1.00  0.00    -0.249 A  
HETATM   30  C   UNL     1      -7.983  16.093  67.057  1.00  0.00    -0.254 A  
HETATM   31  C   UNL     1      -8.698  14.894  66.829  1.00  0.00    -0.278 A  
HETATM   32  C   UNL     1     -10.005  14.956  66.329  1.00  0.00    -0.300 A  
HETATM   33  C   UNL     1     -10.594  16.191  66.049  1.00  0.00    -0.303 A  
HETATM   34  C   UNL     1     -10.739  13.743  66.105  1.00  0.00    -0.283 C  
HETATM   35  N   UNL     1     -11.341  12.766  65.924  1.00  0.00    -0.310 NA 
HETATM   36  C   UNL     1      -9.902  17.390  66.258  1.00  0.00    -0.291 A  
ENDBRANCH  24  25
ENDBRANCH  23  24
ENDBRANCH  22  23
ENDBRANCH  21  22
ENDBRANCH  17  21
ENDBRANCH  10  15
ENDBRANCH   2   6
TORSDOF 7
ENDMDL
MODEL      254
REMARK 921   NORMALIZED FREE ENERGY PREDICTED BY IDOCK:   -3.32 KCAL/MOL
REMARK 922        TOTAL FREE ENERGY PREDICTED BY IDOCK:   -5.95 KCAL/MOL
REMARK 923 INTER-LIGAND FREE ENERGY PREDICTED BY IDOCK:   -4.95 KCAL/MOL
REMARK 924 INTRA-LIGAND FREE ENERGY PREDICTED BY IDOCK:   -1.01 KCAL/MOL
REMARK 927      BINDING AFFINITY PREDICTED BY RF-SCORE:    0.00 PKD
ROOT
HETATM    1  N   UNL     1      -8.046  18.955  67.779  1.00  0.00    -0.256 N  
HETATM    2  C   UNL     1      -8.942  18.087  68.333  1.00  0.00    -0.279 C  
HETATM    3  H1  UNL     1      -7.225  18.601  67.288  1.00  0.00     0.000 HD 
HETATM    4  H2  UNL     1      -8.197  19.961  67.856  1.00  0.00     0.000 HD 
HETATM    5  O   UNL     1      -9.930  18.514  68.924  1.00  0.00    -0.384 OA 
ENDROOT
BRANCH   2   6
HETATM    6  C   UNL     1      -8.640  16.689  68.145  1.00  0.00    -0.200 A  
HETATM    7  C   UNL     1      -9.455  15.638  67.771  1.00  0.00    -0.208 A  
HETATM    8  C   UNL     1      -8.635  14.488  67.697  1.00  0.00    -0.184 A  
HETATM    9  C   UNL     1      -8.831  13.137  67.358  1.00  0.00    -0.204 A  
HETATM   10  C   UNL     1      -7.762  12.221  67.400  1.00  0.00    -0.165 A  
HETATM   11  C   UNL     1      -6.503  12.712  67.795  1.00  0.00    -0.128 A  
HETATM   12  O   UNL     1      -7.358  16.236  68.333  1.00  0.00    -0.147 OA 
HETATM   13  C   UNL     1      -7.363  14.902  68.061  1.00  0.00    -0.130 A  
HETATM   14  C   UNL     1      -6.268  14.055  68.129  1.00  0.00    -0.132 A  
BRANCH  10  15
HETATM   15  N   UNL     1      -7.953  10.888  67.096  1.00  0.00    -0.123 NA 
HETATM   16  C   UNL     1      -7.765   9.818  68.086  1.00  0.00    -0.082 C  
HETATM   17  N   UNL     1      -9.229   8.272  66.693  1.00  0.00    -0.167 NA 
HETATM   18  C   UNL     1      -8.965   8.847  68.037  1.00  0.00    -0.140 C  
HETATM   19  C   UNL     1      -8.257  10.433  65.728  1.00  0.00    -0.156 C  
HETATM   20  C   UNL     1      -9.415   9.405  65.753  1.00  0.00    -0.259 C  
BRANCH  17  21
HETATM   21  C   UNL     1      -8.144   7.387  66.238  1.00  0.00    -0.117 C  
BRANCH  21  22
HETATM   22  C   UNL     1      -8.349   5.922  66.649  1.00  0.00    -0.110 C  
BRANCH  22  23
HETATM   23  C   UNL     1      -9.804   5.456  66.567  1.00  0.00    -0.195 C  
BRANCH  23  24
HETATM   24  C   UNL     1     -10.373   5.138  67.949  1.00  0.00    -0.148 C  
BRANCH  24  25
HETATM   25  C   UNL     1      -9.563   4.123  68.678  1.00  0.00    -0.199 A  
HETATM   26  C   UNL     1      -9.446   2.785  68.357  1.00  0.00    -0.145 A  
HETATM   27  N   UNL     1      -8.634   2.196  69.286  1.00  0.00    -0.056 NA 
HETATM   28  H   UNL     1      -8.377   1.209  69.293  1.00  0.00     0.000 HD 
HETATM   29  C   UNL     1      -8.213   3.123  70.210  1.00  0.00    -0.044 A  
HETATM   30  C   UNL     1      -8.773   4.346  69.849  1.00  0.00    -0.111 A  
HETATM   31  C   UNL     1      -8.487   5.484  70.639  1.00  0.00    -0.121 A  
HETATM   32  C   UNL     1      -7.666   5.352  71.766  1.00  0.00    -0.110 A  
HETATM   33  C   UNL     1      -7.126   4.108  72.103  1.00  0.00    -0.055 A  
HETATM   34  C   UNL     1      -7.381   6.501  72.577  1.00  0.00    -0.089 C  
HETATM   35  N   UNL     1      -7.149   7.426  73.240  1.00  0.00    -0.072 NA 
HETATM   36  C   UNL     1      -7.387   2.970  71.330  1.00  0.00    -0.033 A  
ENDBRANCH  24  25
ENDBRANCH  23  24
ENDBRANCH  22  23
ENDBRANCH  21  22
ENDBRANCH  17  21
ENDBRANCH  10  15
ENDBRANCH   2   6
TORSDOF 7
ENDMDL
MODEL      255
REMARK 921   NORMALIZED FREE ENERGY PREDICTED BY IDOCK:   -3.30 KCAL/MOL
REMARK 922        TOTAL FREE ENERGY PREDICTED BY IDOCK:   -5.93 KCAL/MOL
REMARK 923 INTER-LIGAND FREE ENERGY PREDICTED BY IDOCK:   -5.13 KCAL/MOL
REMARK 924 INTRA-LIGAND FREE ENERGY PREDICTED BY IDOCK:   -0.80 KCAL/MOL
REMARK 927      BINDING AFFINITY PREDICTED BY RF-SCORE:    0.00 PKD
ROOT
HETATM    1  N   UNL     1      -7.053   2.577  68.851  1.00  0.00    -0.044 N  
HETATM    2  C   UNL     1      -6.900   2.953  67.548  1.00  0.00    -0.045 C  
HETATM    3  H1  UNL     1      -7.529   3.192  69.511  1.00  0.00     0.000 HD 
HETATM    4  H2  UNL     1      -6.689   1.678  69.167  1.00  0.00     0.000 HD 
HETATM    5  O   UNL     1      -6.327   2.213  66.754  1.00  0.00    -0.023 OA 
ENDROOT
BRANCH   2   6
HETATM    6  C   UNL     1      -7.471   4.234  67.208  1.00  0.00    -0.077 A  
HETATM    7  C   UNL     1      -7.030   5.207  66.332  1.00  0.00    -0.067 A  
HETATM    8  C   UNL     1      -7.995   6.243  66.350  1.00  0.00    -0.109 A  
HETATM    9  C   UNL     1      -8.157   7.473  65.688  1.00  0.00    -0.128 A  
HETATM   10  C   UNL     1      -9.267   8.296  65.957  1.00  0.00    -0.166 A  
HETATM   11  C   UNL     1     -10.197   7.838  66.910  1.00  0.00    -0.373 A  
HETATM   12  O   UNL     1      -8.650   4.633  67.788  1.00  0.00    -0.103 OA 
HETATM   13  C   UNL     1      -8.959   5.850  67.265  1.00  0.00    -0.108 A  
HETATM   14  C   UNL     1     -10.074   6.611  67.581  1.00  0.00    -0.192 A  
BRANCH  10  15
HETATM   15  N   UNL     1      -9.418   9.517  65.331  1.00  0.00    -0.266 NA 
HETATM   16  C   UNL     1      -8.653   9.889  64.132  1.00  0.00    -0.191 C  
HETATM   17  N   UNL     1     -10.406  11.642  63.558  1.00  0.00    -0.401 NA 
HETATM   18  C   UNL     1      -9.604  10.488  63.073  1.00  0.00    -0.333 C  
HETATM   19  C   UNL     1     -10.280  10.577  65.882  1.00  0.00    -0.245 C  
HETATM   20  C   UNL     1     -11.153  11.192  64.759  1.00  0.00    -0.066 C  
BRANCH  17  21
HETATM   21  C   UNL     1      -9.572  12.814  63.869  1.00  0.00     0.630 C  
BRANCH  21  22
HETATM   22  C   UNL     1     -10.327  13.903  64.644  1.00  0.00    -0.366 C  
BRANCH  22  23
HETATM   23  C   UNL     1      -9.711  14.230  66.007  1.00  0.00    -0.312 C  
BRANCH  23  24
HETATM   24  C   UNL     1     -10.778  14.360  67.092  1.00  0.00    -0.283 C  
BRANCH  24  25
HETATM   25  C   UNL     1     -10.471  15.446  68.064  1.00  0.00    -0.257 A  
HETATM   26  C   UNL     1     -10.160  15.285  69.399  1.00  0.00    -0.264 A  
HETATM   27  N   UNL     1      -9.974  16.525  69.943  1.00  0.00     0.064 NA 
HETATM   28  H   UNL     1      -9.734  16.703  70.918  1.00  0.00     0.000 HD 
HETATM   29  C   UNL     1     -10.156  17.499  68.989  1.00  0.00    -0.291 A  
HETATM   30  C   UNL     1     -10.461  16.851  67.795  1.00  0.00    -0.340 A  
HETATM   31  C   UNL     1     -10.688  17.630  66.637  1.00  0.00    -0.117 A  
HETATM   32  C   UNL     1     -10.616  19.027  66.723  1.00  0.00    -0.508 A  
HETATM   33  C   UNL     1     -10.314  19.644  67.939  1.00  0.00    -0.583 A  
HETATM   34  C   UNL     1     -10.856  19.824  65.553  1.00  0.00    -0.151 C  
HETATM   35  N   UNL     1     -11.052  20.476  64.612  1.00  0.00     0.803 NA 
HETATM   36  C   UNL     1     -10.075  18.892  69.095  1.00  0.00    -0.212 A  
ENDBRANCH  24  25
ENDBRANCH  23  24
ENDBRANCH  22  23
ENDBRANCH  21  22
ENDBRANCH  17  21
ENDBRANCH  10  15
ENDBRANCH   2   6
TORSDOF 7
ENDMDL
MODEL      256
REMARK 921   NORMALIZED FREE ENERGY PREDICTED BY IDOCK:   -3.25 KCAL/MOL
REMARK 922        TOTAL FREE ENERGY PREDICTED BY IDOCK:   -5.86 KCAL/MOL
REMARK 923 INTER-LIGAND FREE ENERGY PREDICTED BY IDOCK:   -5.92 KCAL/MOL
REMARK 924 INTRA-LIGAND FREE ENERGY PREDICTED BY IDOCK:    0.07 KCAL/MOL
REMARK 927      BINDING AFFINITY PREDICTED BY RF-SCORE:    0.00 PKD
ROOT
HETATM    1  N   UNL     1      -6.577   8.965  62.502  1.00  0.00    -0.095 N  
HETATM    2  C   UNL     1      -7.742   8.530  63.066  1.00  0.00    -0.126 C  
HETATM    3  H1  UNL     1      -6.277   9.932  62.625  1.00  0.00     0.000 HD 
HETATM    4  H2  UNL     1      -6.005   8.321  61.956  1.00  0.00     0.000 HD 
HETATM    5  O   UNL     1      -8.103   7.366  62.918  1.00  0.00    -0.131 OA 
ENDROOT
BRANCH   2   6
HETATM    6  C   UNL     1      -8.459   9.519  63.834  1.00  0.00    -0.190 A  
HETATM    7  C   UNL     1      -8.391   9.831  65.179  1.00  0.00    -0.146 A  
HETATM    8  C   UNL     1      -9.278  10.912  65.394  1.00  0.00    -0.231 A  
HETATM    9  C   UNL     1      -9.650  11.698  66.500  1.00  0.00    -0.226 A  
HETATM   10  C   UNL     1     -10.604  12.725  66.366  1.00  0.00    -0.255 A  
HETATM   11  C   UNL     1     -11.163  12.927  65.090  1.00  0.00    -0.319 A  
HETATM   12  O   UNL     1      -9.367  10.340  63.214  1.00  0.00    -0.266 OA 
HETATM   13  C   UNL     1      -9.860  11.180  64.165  1.00  0.00    -0.291 A  
HETATM   14  C   UNL     1     -10.807  12.171  63.962  1.00  0.00    -0.436 A  
BRANCH  10  15
HETATM   15  N   UNL     1     -10.995  13.482  67.452  1.00  0.00    -0.268 NA 
HETATM   16  C   UNL     1     -12.194  13.166  68.243  1.00  0.00    -0.026 C  
HETATM   17  N   UNL     1     -11.256  14.499  70.196  1.00  0.00    -0.196 NA 
HETATM   18  C   UNL     1     -11.853  13.214  69.748  1.00  0.00    -0.316 C  
HETATM   19  C   UNL     1     -10.298  14.722  67.834  1.00  0.00    -0.240 C  
HETATM   20  C   UNL     1     -10.053  14.746  69.363  1.00  0.00    -0.109 C  
BRANCH  17  21
HETATM   21  C   UNL     1     -12.202  15.622  70.096  1.00  0.00    -0.361 C  
BRANCH  21  22
HETATM   22  C   UNL     1     -11.640  16.935  70.660  1.00  0.00     0.838 C  
BRANCH  22  23
HETATM   23  C   UNL     1     -10.621  17.614  69.742  1.00  0.00     0.574 C  
BRANCH  23  24
HETATM   24  C   UNL     1     -11.145  17.740  68.313  1.00  0.00     0.184 C  
BRANCH  24  25
HETATM   25  C   UNL     1     -10.245  18.550  67.446  1.00  0.00    -0.401 A  
HETATM   26  C   UNL     1     -10.558  19.747  66.833  1.00  0.00    -0.466 A  
HETATM   27  N   UNL     1      -9.470  20.150  66.109  1.00  0.00    -0.594 NA 
HETATM   28  H   UNL     1      -9.424  21.003  65.553  1.00  0.00     0.000 HD 
HETATM   29  C   UNL     1      -8.447  19.239  66.237  1.00  0.00    -0.319 A  
HETATM   30  C   UNL     1      -8.901  18.228  67.078  1.00  0.00    -0.267 A  
HETATM   31  C   UNL     1      -8.029  17.158  67.387  1.00  0.00    -0.197 A  
HETATM   32  C   UNL     1      -6.744  17.134  66.829  1.00  0.00    -0.256 A  
HETATM   33  C   UNL     1      -6.323  18.163  65.983  1.00  0.00    -0.275 A  
HETATM   34  C   UNL     1      -5.858  16.045  67.130  1.00  0.00     0.051 C  
HETATM   35  N   UNL     1      -5.137  15.166  67.365  1.00  0.00    -0.327 NA 
HETATM   36  C   UNL     1      -7.167  19.237  65.672  1.00  0.00    -0.237 A  
ENDBRANCH  24  25
ENDBRANCH  23  24
ENDBRANCH  22  23
ENDBRANCH  21  22
ENDBRANCH  17  21
ENDBRANCH  10  15
ENDBRANCH   2   6
TORSDOF 7
ENDMDL
MODEL      257
REMARK 921   NORMALIZED FREE ENERGY PREDICTED BY IDOCK:   -3.22 KCAL/MOL
REMARK 922        TOTAL FREE ENERGY PREDICTED BY IDOCK:   -5.81 KCAL/MOL
REMARK 923 INTER-LIGAND FREE ENERGY PREDICTED BY IDOCK:   -5.78 KCAL/MOL
REMARK 924 INTRA-LIGAND FREE ENERGY PREDICTED BY IDOCK:   -0.03 KCAL/MOL
REMARK 927      BINDING AFFINITY PREDICTED BY RF-SCORE:    0.00 PKD
ROOT
HETATM    1  N   UNL     1     -10.218   6.395  74.116  1.00  0.00    -0.328 N  
HETATM    2  C   UNL     1     -10.743   6.358  72.856  1.00  0.00    -0.249 C  
HETATM    3  H1  UNL     1     -10.018   7.290  74.562  1.00  0.00     0.000 HD 
HETATM    4  H2  UNL     1     -10.024   5.525  74.612  1.00  0.00     0.000 HD 
HETATM    5  O   UNL     1     -10.983   5.281  72.318  1.00  0.00    -0.228 OA 
ENDROOT
BRANCH   2   6
HETATM    6  C   UNL     1     -10.997   7.646  72.258  1.00  0.00    -0.279 A  
HETATM    7  C   UNL     1     -10.281   8.350  71.308  1.00  0.00    -0.269 A  
HETATM    8  C   UNL     1     -11.002   9.539  71.049  1.00  0.00    -0.424 A  
HETATM    9  C   UNL     1     -10.839  10.644  70.194  1.00  0.00    -0.224 A  
HETATM   10  C   UNL     1     -11.770  11.701  70.195  1.00  0.00    -0.296 A  
HETATM   11  C   UNL     1     -12.859  11.603  71.082  1.00  0.00    -0.392 A  
HETATM   12  O   UNL     1     -12.113   8.360  72.619  1.00  0.00    -0.390 OA 
HETATM   13  C   UNL     1     -12.108   9.505  71.884  1.00  0.00    -0.337 A  
HETATM   14  C   UNL     1     -13.061  10.511  71.940  1.00  0.00    -0.567 A  
BRANCH  10  15
HETATM   15  N   UNL     1     -11.601  12.801  69.379  1.00  0.00    -0.297 NA 
HETATM   16  C   UNL     1     -11.798  12.741  67.923  1.00  0.00    -0.339 C  
HETATM   17  N   UNL     1     -12.136  15.262  67.865  1.00  0.00     0.001 NA 
HETATM   18  C   UNL     1     -12.667  13.933  67.465  1.00  0.00     0.746 C  
HETATM   19  C   UNL     1     -11.108  14.090  69.894  1.00  0.00     0.015 C  
HETATM   20  C   UNL     1     -11.971  15.251  69.340  1.00  0.00    -0.315 C  
BRANCH  17  21
HETATM   21  C   UNL     1     -10.863  15.581  67.198  1.00  0.00    -0.316 C  
BRANCH  21  22
HETATM   22  C   UNL     1     -10.470  14.555  66.126  1.00  0.00    -0.303 C  
BRANCH  22  23
HETATM   23  C   UNL     1      -8.970  14.250  66.085  1.00  0.00     0.117 C  
BRANCH  23  24
HETATM   24  C   UNL     1      -8.693  12.759  66.269  1.00  0.00     0.219 C  
BRANCH  24  25
HETATM   25  C   UNL     1      -7.581  12.501  67.225  1.00  0.00    -0.131 A  
HETATM   26  C   UNL     1      -7.002  11.278  67.497  1.00  0.00    -0.091 A  
HETATM   27  N   UNL     1      -6.038  11.467  68.448  1.00  0.00    -0.045 NA 
HETATM   28  H   UNL     1      -5.452  10.729  68.837  1.00  0.00     0.000 HD 
HETATM   29  C   UNL     1      -5.972  12.793  68.805  1.00  0.00    -0.071 A  
HETATM   30  C   UNL     1      -6.923  13.470  68.047  1.00  0.00    -0.133 A  
HETATM   31  C   UNL     1      -7.057  14.868  68.215  1.00  0.00    -0.112 A  
HETATM   32  C   UNL     1      -6.245  15.530  69.145  1.00  0.00    -0.116 A  
HETATM   33  C   UNL     1      -5.305  14.818  69.893  1.00  0.00    -0.097 A  
HETATM   34  C   UNL     1      -6.383  16.948  69.327  1.00  0.00    -0.223 C  
HETATM   35  N   UNL     1      -6.492  18.093  69.483  1.00  0.00    -0.228 NA 
HETATM   36  C   UNL     1      -5.148  13.436  69.736  1.00  0.00    -0.082 A  
ENDBRANCH  24  25
ENDBRANCH  23  24
ENDBRANCH  22  23
ENDBRANCH  21  22
ENDBRANCH  17  21
ENDBRANCH  10  15
ENDBRANCH   2   6
TORSDOF 7
ENDMDL
MODEL      258
REMARK 921   NORMALIZED FREE ENERGY PREDICTED BY IDOCK:   -3.07 KCAL/MOL
REMARK 922        TOTAL FREE ENERGY PREDICTED BY IDOCK:   -5.60 KCAL/MOL
REMARK 923 INTER-LIGAND FREE ENERGY PREDICTED BY IDOCK:   -5.64 KCAL/MOL
REMARK 924 INTRA-LIGAND FREE ENERGY PREDICTED BY IDOCK:    0.03 KCAL/MOL
REMARK 927      BINDING AFFINITY PREDICTED BY RF-SCORE:    0.00 PKD
ROOT
HETATM    1  N   UNL     1     -11.053   2.281  63.629  1.00  0.00    -0.468 N  
HETATM    2  C   UNL     1      -9.765   2.388  64.070  1.00  0.00    -0.140 C  
HETATM    3  H1  UNL     1     -11.732   3.010  63.848  1.00  0.00     0.000 HD 
HETATM    4  H2  UNL     1     -11.337   1.470  63.080  1.00  0.00     0.000 HD 
HETATM    5  O   UNL     1      -8.947   1.511  63.806  1.00  0.00    -0.083 OA 
ENDROOT
BRANCH   2   6
HETATM    6  C   UNL     1      -9.469   3.585  64.819  1.00  0.00    -0.157 A  
HETATM    7  C   UNL     1      -8.265   4.216  65.061  1.00  0.00    -0.102 A  
HETATM    8  C   UNL     1      -8.554   5.377  65.816  1.00  0.00    -0.139 A  
HETATM    9  C   UNL     1      -7.801   6.437  66.352  1.00  0.00    -0.104 A  
HETATM   10  C   UNL     1      -8.423   7.464  67.089  1.00  0.00    -0.118 A  
HETATM   11  C   UNL     1      -9.817   7.380  67.265  1.00  0.00    -0.230 A  
HETATM   12  O   UNL     1     -10.488   4.287  65.415  1.00  0.00    -0.244 OA 
HETATM   13  C   UNL     1      -9.925   5.370  66.018  1.00  0.00    -0.084 A  
HETATM   14  C   UNL     1     -10.602   6.343  66.735  1.00  0.00    -0.328 A  
BRANCH  10  15
HETATM   15  N   UNL     1      -7.687   8.492  67.641  1.00  0.00    -0.101 NA 
HETATM   16  C   UNL     1      -8.188   9.311  68.755  1.00  0.00    -0.112 C  
HETATM   17  N   UNL     1      -5.803   9.980  69.335  1.00  0.00    -0.037 NA 
HETATM   18  C   UNL     1      -7.094   9.443  69.837  1.00  0.00    -0.075 C  
HETATM   19  C   UNL     1      -6.390   8.913  67.085  1.00  0.00    -0.060 C  
HETATM   20  C   UNL     1      -5.357   9.103  68.223  1.00  0.00    -0.038 C  
BRANCH  17  21
HETATM   21  C   UNL     1      -5.912  11.377  68.888  1.00  0.00    -0.048 C  
BRANCH  21  22
HETATM   22  C   UNL     1      -7.322  11.959  69.064  1.00  0.00    -0.038 C  
BRANCH  22  23
HETATM   23  C   UNL     1      -7.727  12.939  67.961  1.00  0.00    -0.143 C  
BRANCH  23  24
HETATM   24  C   UNL     1      -8.554  14.099  68.512  1.00  0.00    -0.163 C  
BRANCH  24  25
HETATM   25  C   UNL     1      -9.452  14.696  67.486  1.00  0.00    -0.198 A  
HETATM   26  C   UNL     1     -10.367  14.019  66.704  1.00  0.00    -0.278 A  
HETATM   27  N   UNL     1     -10.968  14.923  65.874  1.00  0.00    -0.331 NA 
HETATM   28  H   UNL     1     -11.686  14.696  65.187  1.00  0.00     0.000 HD 
HETATM   29  C   UNL     1     -10.466  16.184  66.097  1.00  0.00    -0.325 A  
HETATM   30  C   UNL     1      -9.518  16.075  67.111  1.00  0.00    -0.225 A  
HETATM   31  C   UNL     1      -8.849  17.243  67.545  1.00  0.00    -0.219 A  
HETATM   32  C   UNL     1      -9.143  18.471  66.938  1.00  0.00    -0.290 A  
HETATM   33  C   UNL     1     -10.096  18.543  65.919  1.00  0.00    -0.183 A  
HETATM   34  C   UNL     1      -8.460  19.658  67.367  1.00  0.00    -0.305 C  
HETATM   35  N   UNL     1      -7.909  20.623  67.706  1.00  0.00    -0.187 NA 
HETATM   36  C   UNL     1     -10.778  17.401  65.480  1.00  0.00    -0.081 A  
ENDBRANCH  24  25
ENDBRANCH  23  24
ENDBRANCH  22  23
ENDBRANCH  21  22
ENDBRANCH  17  21
ENDBRANCH  10  15
ENDBRANCH   2   6
TORSDOF 7
ENDMDL
MODEL      259
REMARK 921   NORMALIZED FREE ENERGY PREDICTED BY IDOCK:   -2.99 KCAL/MOL
REMARK 922        TOTAL FREE ENERGY PREDICTED BY IDOCK:   -5.49 KCAL/MOL
REMARK 923 INTER-LIGAND FREE ENERGY PREDICTED BY IDOCK:   -4.53 KCAL/MOL
REMARK 924 INTRA-LIGAND FREE ENERGY PREDICTED BY IDOCK:   -0.97 KCAL/MOL
REMARK 927      BINDING AFFINITY PREDICTED BY RF-SCORE:    0.00 PKD
ROOT
HETATM    1  N   UNL     1      -8.088  16.218  68.502  1.00  0.00    -0.183 N  
HETATM    2  C   UNL     1      -8.197  15.743  67.226  1.00  0.00    -0.184 C  
HETATM    3  H1  UNL     1      -8.293  15.610  69.295  1.00  0.00     0.000 HD 
HETATM    4  H2  UNL     1      -7.802  17.184  68.662  1.00  0.00     0.000 HD 
HETATM    5  O   UNL     1      -7.950  16.475  66.272  1.00  0.00    -0.308 OA 
ENDROOT
BRANCH   2   6
HETATM    6  C   UNL     1      -8.588  14.359  67.118  1.00  0.00    -0.218 A  
HETATM    7  C   UNL     1      -7.917  13.207  67.479  1.00  0.00    -0.179 A  
HETATM    8  C   UNL     1      -8.779  12.122  67.194  1.00  0.00    -0.190 A  
HETATM    9  C   UNL     1      -8.715  10.725  67.343  1.00  0.00    -0.126 A  
HETATM   10  C   UNL     1      -9.785   9.906  66.931  1.00  0.00    -0.186 A  
HETATM   11  C   UNL     1     -10.907  10.542  66.367  1.00  0.00    -0.094 A  
HETATM   12  O   UNL     1      -9.816  14.035  66.596  1.00  0.00    -0.266 OA 
HETATM   13  C   UNL     1      -9.923  12.679  66.644  1.00  0.00    -0.242 A  
HETATM   14  C   UNL     1     -11.010  11.934  66.213  1.00  0.00    -0.345 A  
BRANCH  10  15
HETATM   15  N   UNL     1      -9.718   8.533  67.049  1.00  0.00    -0.185 NA 
HETATM   16  C   UNL     1      -8.574   7.849  67.671  1.00  0.00    -0.127 C  
HETATM   17  N   UNL     1     -10.026   5.802  68.089  1.00  0.00    -0.138 NA 
HETATM   18  C   UNL     1      -9.083   6.791  68.673  1.00  0.00    -0.127 C  
HETATM   19  C   UNL     1     -10.739   7.646  66.464  1.00  0.00     0.379 C  
HETATM   20  C   UNL     1     -11.152   6.561  67.489  1.00  0.00    -0.308 C  
BRANCH  17  21
HETATM   21  C   UNL     1      -9.383   4.939  67.085  1.00  0.00    -0.130 C  
BRANCH  21  22
HETATM   22  C   UNL     1      -9.347   3.460  67.496  1.00  0.00    -0.248 C  
BRANCH  22  23
HETATM   23  C   UNL     1      -8.136   3.089  68.356  1.00  0.00    -0.074 C  
BRANCH  23  24
HETATM   24  C   UNL     1      -8.559   2.466  69.686  1.00  0.00    -0.111 C  
BRANCH  24  25
HETATM   25  C   UNL     1      -7.571   2.718  70.771  1.00  0.00    -0.036 A  
HETATM   26  C   UNL     1      -6.433   1.981  71.030  1.00  0.00    -0.023 A  
HETATM   27  N   UNL     1      -5.816   2.523  72.123  1.00  0.00    -0.008 NA 
HETATM   28  H   UNL     1      -4.951   2.174  72.535  1.00  0.00     0.000 HD 
HETATM   29  C   UNL     1      -6.527   3.604  72.587  1.00  0.00    -0.017 A  
HETATM   30  C   UNL     1      -7.631   3.758  71.752  1.00  0.00    -0.057 A  
HETATM   31  C   UNL     1      -8.533   4.817  72.006  1.00  0.00    -0.119 A  
HETATM   32  C   UNL     1      -8.304   5.671  73.092  1.00  0.00    -0.118 A  
HETATM   33  C   UNL     1      -7.189   5.485  73.913  1.00  0.00    -0.086 A  
HETATM   34  C   UNL     1      -9.221   6.742  73.361  1.00  0.00    -0.138 C  
HETATM   35  N   UNL     1      -9.961   7.609  73.587  1.00  0.00    -0.295 NA 
HETATM   36  C   UNL     1      -6.278   4.448  73.674  1.00  0.00    -0.040 A  
ENDBRANCH  24  25
ENDBRANCH  23  24
ENDBRANCH  22  23
ENDBRANCH  21  22
ENDBRANCH  17  21
ENDBRANCH  10  15
ENDBRANCH   2   6
TORSDOF 7
ENDMDL
MODEL      260
REMARK 921   NORMALIZED FREE ENERGY PREDICTED BY IDOCK:   -2.93 KCAL/MOL
REMARK 922        TOTAL FREE ENERGY PREDICTED BY IDOCK:   -5.41 KCAL/MOL
REMARK 923 INTER-LIGAND FREE ENERGY PREDICTED BY IDOCK:   -6.36 KCAL/MOL
REMARK 924 INTRA-LIGAND FREE ENERGY PREDICTED BY IDOCK:    0.96 KCAL/MOL
REMARK 927      BINDING AFFINITY PREDICTED BY RF-SCORE:    0.00 PKD
ROOT
HETATM    1  N   UNL     1      -9.790  20.401  65.800  1.00  0.00    -0.591 N  
HETATM    2  C   UNL     1      -9.911  19.945  67.082  1.00  0.00    -0.406 C  
HETATM    3  H1  UNL     1      -9.541  19.758  65.048  1.00  0.00     0.000 HD 
HETATM    4  H2  UNL     1      -9.950  21.386  65.594  1.00  0.00     0.000 HD 
HETATM    5  O   UNL     1     -10.211  20.718  67.986  1.00  0.00    -0.137 OA 
ENDROOT
BRANCH   2   6
HETATM    6  C   UNL     1      -9.683  18.531  67.254  1.00  0.00    -0.300 A  
HETATM    7  C   UNL     1     -10.013  17.464  66.440  1.00  0.00    -0.322 A  
HETATM    8  C   UNL     1      -9.515  16.299  67.069  1.00  0.00    -0.237 A  
HETATM    9  C   UNL     1      -9.494  14.926  66.762  1.00  0.00    -0.269 A  
HETATM   10  C   UNL     1      -8.904  13.999  67.644  1.00  0.00    -0.190 A  
HETATM   11  C   UNL     1      -8.346  14.503  68.834  1.00  0.00    -0.112 A  
HETATM   12  O   UNL     1      -9.029  18.075  68.372  1.00  0.00    -0.269 OA 
HETATM   13  C   UNL     1      -8.932  16.723  68.252  1.00  0.00    -0.228 A  
HETATM   14  C   UNL     1      -8.339  15.867  69.168  1.00  0.00    -0.253 A  
BRANCH  10  15
HETATM   15  N   UNL     1      -8.904  12.648  67.363  1.00  0.00    -0.180 NA 
HETATM   16  C   UNL     1     -10.092  11.949  66.850  1.00  0.00    -0.207 C  
HETATM   17  N   UNL     1      -8.607  10.093  65.944  1.00  0.00    -0.142 NA 
HETATM   18  C   UNL     1      -9.695  11.060  65.651  1.00  0.00    -0.232 C  
HETATM   19  C   UNL     1      -7.745  11.788  67.656  1.00  0.00    -0.137 C  
HETATM   20  C   UNL     1      -7.445  10.867  66.447  1.00  0.00    -0.145 C  
BRANCH  17  21
HETATM   21  C   UNL     1      -9.014   9.068  66.918  1.00  0.00    -0.123 C  
BRANCH  21  22
HETATM   22  C   UNL     1      -9.209   9.626  68.335  1.00  0.00    -0.133 C  
BRANCH  22  23
HETATM   23  C   UNL     1      -9.831   8.626  69.312  1.00  0.00    -0.188 C  
BRANCH  23  24
HETATM   24  C   UNL     1      -8.770   7.744  69.968  1.00  0.00    -0.141 C  
BRANCH  24  25
HETATM   25  C   UNL     1      -9.087   6.294  69.855  1.00  0.00    -0.145 A  
HETATM   26  C   UNL     1      -9.723   5.518  70.804  1.00  0.00    -0.177 A  
HETATM   27  N   UNL     1      -9.797   4.239  70.326  1.00  0.00    -0.208 NA 
HETATM   28  H   UNL     1     -10.218   3.455  70.823  1.00  0.00     0.000 HD 
HETATM   29  C   UNL     1      -9.223   4.161  69.079  1.00  0.00    -0.150 A  
HETATM   30  C   UNL     1      -8.775   5.438  68.752  1.00  0.00    -0.098 A  
HETATM   31  C   UNL     1      -8.147   5.639  67.501  1.00  0.00    -0.102 A  
HETATM   32  C   UNL     1      -7.976   4.552  66.634  1.00  0.00    -0.102 A  
HETATM   33  C   UNL     1      -8.432   3.282  66.997  1.00  0.00    -0.104 A  
HETATM   34  C   UNL     1      -7.330   4.747  65.367  1.00  0.00    -0.072 C  
HETATM   35  N   UNL     1      -6.804   4.896  64.342  1.00  0.00    -0.047 NA 
HETATM   36  C   UNL     1      -9.066   3.062  68.226  1.00  0.00    -0.215 A  
ENDBRANCH  24  25
ENDBRANCH  23  24
ENDBRANCH  22  23
ENDBRANCH  21  22
ENDBRANCH  17  21
ENDBRANCH  10  15
ENDBRANCH   2   6
TORSDOF 7
ENDMDL
MODEL      261
REMARK 921   NORMALIZED FREE ENERGY PREDICTED BY IDOCK:   -2.93 KCAL/MOL
REMARK 922        TOTAL FREE ENERGY PREDICTED BY IDOCK:   -5.40 KCAL/MOL
REMARK 923 INTER-LIGAND FREE ENERGY PREDICTED BY IDOCK:   -4.56 KCAL/MOL
REMARK 924 INTRA-LIGAND FREE ENERGY PREDICTED BY IDOCK:   -0.84 KCAL/MOL
REMARK 927      BINDING AFFINITY PREDICTED BY RF-SCORE:    0.00 PKD
ROOT
HETATM    1  N   UNL     1      -7.963  17.891  65.860  1.00  0.00    -0.107 N  
HETATM    2  C   UNL     1      -8.897  17.039  66.377  1.00  0.00    -0.278 C  
HETATM    3  H1  UNL     1      -6.971  17.664  65.923  1.00  0.00     0.000 HD 
HETATM    4  H2  UNL     1      -8.259  18.757  65.409  1.00  0.00     0.000 HD 
HETATM    5  O   UNL     1     -10.091  17.312  66.300  1.00  0.00    -0.299 OA 
ENDROOT
BRANCH   2   6
HETATM    6  C   UNL     1      -8.368  15.836  66.971  1.00  0.00    -0.226 A  
HETATM    7  C   UNL     1      -8.627  14.508  66.689  1.00  0.00    -0.092 A  
HETATM    8  C   UNL     1      -7.802  13.739  67.543  1.00  0.00    -0.189 A  
HETATM    9  C   UNL     1      -7.568  12.366  67.741  1.00  0.00    -0.134 A  
HETATM   10  C   UNL     1      -6.655  11.923  68.717  1.00  0.00    -0.080 A  
HETATM   11  C   UNL     1      -5.996  12.906  69.480  1.00  0.00    -0.111 A  
HETATM   12  O   UNL     1      -7.441  15.922  67.981  1.00  0.00    -0.120 OA 
HETATM   13  C   UNL     1      -7.105  14.649  68.322  1.00  0.00    -0.115 A  
HETATM   14  C   UNL     1      -6.196  14.284  69.303  1.00  0.00    -0.108 A  
BRANCH  10  15
HETATM   15  N   UNL     1      -6.441  10.577  68.935  1.00  0.00    -0.047 NA 
HETATM   16  C   UNL     1      -6.788   9.919  70.204  1.00  0.00    -0.125 C  
HETATM   17  N   UNL     1      -6.834   7.667  69.022  1.00  0.00    -0.056 NA 
HETATM   18  C   UNL     1      -7.553   8.608  69.918  1.00  0.00    -0.071 C  
HETATM   19  C   UNL     1      -5.753   9.724  67.951  1.00  0.00    -0.040 C  
HETATM   20  C   UNL     1      -6.526   8.395  67.765  1.00  0.00    -0.061 C  
BRANCH  17  21
HETATM   21  C   UNL     1      -5.605   7.136  69.634  1.00  0.00    -0.023 C  
BRANCH  21  22
HETATM   22  C   UNL     1      -5.790   5.739  70.243  1.00  0.00    -0.024 C  
BRANCH  22  23
HETATM   23  C   UNL     1      -6.243   4.681  69.233  1.00  0.00    -0.030 C  
BRANCH  23  24
HETATM   24  C   UNL     1      -7.734   4.377  69.365  1.00  0.00    -0.054 C  
BRANCH  24  25
HETATM   25  C   UNL     1      -8.143   4.139  70.776  1.00  0.00    -0.063 A  
HETATM   26  C   UNL     1      -7.567   3.243  71.656  1.00  0.00    -0.052 A  
HETATM   27  N   UNL     1      -8.250   3.311  72.838  1.00  0.00    -0.079 NA 
HETATM   28  H   UNL     1      -8.038   2.754  73.665  1.00  0.00     0.000 HD 
HETATM   29  C   UNL     1      -9.264   4.236  72.753  1.00  0.00    -0.116 A  
HETATM   30  C   UNL     1      -9.217   4.780  71.472  1.00  0.00    -0.186 A  
HETATM   31  C   UNL     1     -10.157   5.776  71.121  1.00  0.00    -0.257 A  
HETATM   32  C   UNL     1     -11.116   6.178  72.059  1.00  0.00    -0.322 A  
HETATM   33  C   UNL     1     -11.139   5.607  73.333  1.00  0.00    -0.238 A  
HETATM   34  C   UNL     1     -12.080   7.182  71.705  1.00  0.00    -0.328 C  
HETATM   35  N   UNL     1     -12.865   7.990  71.425  1.00  0.00    -0.301 NA 
HETATM   36  C   UNL     1     -10.212   4.626  73.705  1.00  0.00    -0.234 A  
ENDBRANCH  24  25
ENDBRANCH  23  24
ENDBRANCH  22  23
ENDBRANCH  21  22
ENDBRANCH  17  21
ENDBRANCH  10  15
ENDBRANCH   2   6
TORSDOF 7
ENDMDL
MODEL      262
REMARK 921   NORMALIZED FREE ENERGY PREDICTED BY IDOCK:   -2.87 KCAL/MOL
REMARK 922        TOTAL FREE ENERGY PREDICTED BY IDOCK:   -5.32 KCAL/MOL
REMARK 923 INTER-LIGAND FREE ENERGY PREDICTED BY IDOCK:   -5.02 KCAL/MOL
REMARK 924 INTRA-LIGAND FREE ENERGY PREDICTED BY IDOCK:   -0.30 KCAL/MOL
REMARK 927      BINDING AFFINITY PREDICTED BY RF-SCORE:    0.00 PKD
ROOT
HETATM    1  N   UNL     1      -7.035   3.823  72.843  1.00  0.00    -0.046 N  
HETATM    2  C   UNL     1      -7.879   4.779  73.329  1.00  0.00    -0.096 C  
HETATM    3  H1  UNL     1      -6.714   3.864  71.876  1.00  0.00     0.000 HD 
HETATM    4  H2  UNL     1      -6.723   3.064  73.450  1.00  0.00     0.000 HD 
HETATM    5  O   UNL     1      -8.265   4.729  74.493  1.00  0.00    -0.097 OA 
ENDROOT
BRANCH   2   6
HETATM    6  C   UNL     1      -8.237   5.815  72.391  1.00  0.00    -0.107 A  
HETATM    7  C   UNL     1      -7.862   6.001  71.075  1.00  0.00    -0.111 A  
HETATM    8  C   UNL     1      -8.541   7.153  70.612  1.00  0.00    -0.143 A  
HETATM    9  C   UNL     1      -8.616   7.850  69.394  1.00  0.00    -0.137 A  
HETATM   10  C   UNL     1      -9.407   9.009  69.273  1.00  0.00    -0.150 A  
HETATM   11  C   UNL     1     -10.110   9.435  70.417  1.00  0.00    -0.310 A  
HETATM   12  O   UNL     1      -9.095   6.817  72.773  1.00  0.00    -0.135 OA 
HETATM   13  C   UNL     1      -9.273   7.623  71.691  1.00  0.00    -0.134 A  
HETATM   14  C   UNL     1     -10.067   8.758  71.646  1.00  0.00    -0.390 A  
BRANCH  10  15
HETATM   15  N   UNL     1      -9.464   9.714  68.088  1.00  0.00    -0.132 NA 
HETATM   16  C   UNL     1      -8.590  10.864  67.811  1.00  0.00    -0.128 C  
HETATM   17  N   UNL     1      -8.977  10.557  65.316  1.00  0.00    -0.181 NA 
HETATM   18  C   UNL     1      -7.976  10.724  66.401  1.00  0.00    -0.151 C  
HETATM   19  C   UNL     1     -10.477   9.432  67.057  1.00  0.00    -0.231 C  
HETATM   20  C   UNL     1      -9.814   9.380  65.658  1.00  0.00    -0.223 C  
BRANCH  17  21
HETATM   21  C   UNL     1      -9.811  11.756  65.132  1.00  0.00    -0.235 C  
BRANCH  21  22
HETATM   22  C   UNL     1     -11.031  11.510  64.232  1.00  0.00    -0.406 C  
BRANCH  22  23
HETATM   23  C   UNL     1     -12.222  12.418  64.547  1.00  0.00    -0.509 C  
BRANCH  23  24
HETATM   24  C   UNL     1     -11.770  13.814  64.973  1.00  0.00    -0.356 C  
BRANCH  24  25
HETATM   25  C   UNL     1     -11.788  13.990  66.452  1.00  0.00    -0.437 A  
HETATM   26  C   UNL     1     -12.910  14.085  67.251  1.00  0.00     0.988 A  
HETATM   27  N   UNL     1     -12.497  14.266  68.542  1.00  0.00    -0.508 NA 
HETATM   28  H   UNL     1     -13.119  14.369  69.343  1.00  0.00     0.000 HD 
HETATM   29  C   UNL     1     -11.124  14.291  68.606  1.00  0.00    -0.253 A  
HETATM   30  C   UNL     1     -10.649  14.111  67.309  1.00  0.00    -0.277 A  
HETATM   31  C   UNL     1      -9.252  14.085  67.093  1.00  0.00    -0.240 A  
HETATM   32  C   UNL     1      -8.385  14.257  68.180  1.00  0.00    -0.162 A  
HETATM   33  C   UNL     1      -8.895  14.441  69.468  1.00  0.00     0.432 A  
HETATM   34  C   UNL     1      -6.965  14.243  67.967  1.00  0.00    -0.144 C  
HETATM   35  N   UNL     1      -5.816  14.236  67.801  1.00  0.00    -0.291 NA 
HETATM   36  C   UNL     1     -10.275  14.460  69.705  1.00  0.00     0.279 A  
ENDBRANCH  24  25
ENDBRANCH  23  24
ENDBRANCH  22  23
ENDBRANCH  21  22
ENDBRANCH  17  21
ENDBRANCH  10  15
ENDBRANCH   2   6
TORSDOF 7
ENDMDL
MODEL      263
REMARK 921   NORMALIZED FREE ENERGY PREDICTED BY IDOCK:   -2.79 KCAL/MOL
REMARK 922        TOTAL FREE ENERGY PREDICTED BY IDOCK:   -5.21 KCAL/MOL
REMARK 923 INTER-LIGAND FREE ENERGY PREDICTED BY IDOCK:   -4.43 KCAL/MOL
REMARK 924 INTRA-LIGAND FREE ENERGY PREDICTED BY IDOCK:   -0.79 KCAL/MOL
REMARK 927      BINDING AFFINITY PREDICTED BY RF-SCORE:    0.00 PKD
ROOT
HETATM    1  N   UNL     1      -8.822   3.569  63.678  1.00  0.00    -0.094 N  
HETATM    2  C   UNL     1      -8.007   3.950  64.705  1.00  0.00    -0.089 C  
HETATM    3  H1  UNL     1      -9.473   4.237  63.264  1.00  0.00     0.000 HD 
HETATM    4  H2  UNL     1      -8.779   2.614  63.322  1.00  0.00     0.000 HD 
HETATM    5  O   UNL     1      -7.224   3.147  65.203  1.00  0.00    -0.064 OA 
ENDROOT
BRANCH   2   6
HETATM    6  C   UNL     1      -8.137   5.328  65.113  1.00  0.00    -0.122 A  
HETATM    7  C   UNL     1      -9.145   5.965  65.811  1.00  0.00    -0.101 A  
HETATM    8  C   UNL     1      -8.742   7.311  65.978  1.00  0.00    -0.168 A  
HETATM    9  C   UNL     1      -9.283   8.449  66.601  1.00  0.00    -0.226 A  
HETATM   10  C   UNL     1      -8.602   9.682  66.570  1.00  0.00    -0.127 A  
HETATM   11  C   UNL     1      -7.369   9.723  65.891  1.00  0.00    -0.103 A  
HETATM   12  O   UNL     1      -7.141   6.225  64.815  1.00  0.00    -0.053 OA 
HETATM   13  C   UNL     1      -7.516   7.424  65.341  1.00  0.00    -0.090 A  
HETATM   14  C   UNL     1      -6.793   8.605  65.267  1.00  0.00    -0.071 A  
BRANCH  10  15
HETATM   15  N   UNL     1      -9.140  10.809  67.156  1.00  0.00    -0.144 NA 
HETATM   16  C   UNL     1      -8.333  11.998  67.467  1.00  0.00    -0.166 C  
HETATM   17  N   UNL     1     -10.443  13.418  67.512  1.00  0.00    -0.235 NA 
HETATM   18  C   UNL     1      -9.065  13.267  66.978  1.00  0.00    -0.232 C  
HETATM   19  C   UNL     1     -10.541  10.863  67.609  1.00  0.00    -0.224 C  
HETATM   20  C   UNL     1     -11.197  12.191  67.155  1.00  0.00    -0.314 C  
BRANCH  17  21
HETATM   21  C   UNL     1     -10.461  13.638  68.967  1.00  0.00    -0.078 C  
BRANCH  21  22
HETATM   22  C   UNL     1     -11.465  14.716  69.402  1.00  0.00    -0.330 C  
BRANCH  22  23
HETATM   23  C   UNL     1     -11.291  16.051  68.674  1.00  0.00    -0.383 C  
BRANCH  23  24
HETATM   24  C   UNL     1     -10.023  16.776  69.121  1.00  0.00    -0.252 C  
BRANCH  24  25
HETATM   25  C   UNL     1     -10.014  18.208  68.715  1.00  0.00    -0.389 A  
HETATM   26  C   UNL     1     -10.896  19.184  69.136  1.00  0.00     1.194 A  
HETATM   27  N   UNL     1     -10.562  20.354  68.513  1.00  0.00    -0.158 NA 
HETATM   28  H   UNL     1     -11.050  21.241  68.639  1.00  0.00     0.000 HD 
HETATM   29  C   UNL     1      -9.475  20.166  67.691  1.00  0.00    -0.387 A  
HETATM   30  C   UNL     1      -9.103  18.830  67.804  1.00  0.00    -0.311 A  
HETATM   31  C   UNL     1      -7.991  18.369  67.060  1.00  0.00    -0.238 A  
HETATM   32  C   UNL     1      -7.308  19.258  66.222  1.00  0.00    -0.278 A  
HETATM   33  C   UNL     1      -7.713  20.592  66.128  1.00  0.00     0.061 A  
HETATM   34  C   UNL     1      -6.185  18.794  65.457  1.00  0.00    -0.260 C  
HETATM   35  N   UNL     1      -5.279  18.425  64.831  1.00  0.00    -0.152 NA 
HETATM   36  C   UNL     1      -8.804  21.072  66.863  1.00  0.00     0.156 A  
ENDBRANCH  24  25
ENDBRANCH  23  24
ENDBRANCH  22  23
ENDBRANCH  21  22
ENDBRANCH  17  21
ENDBRANCH  10  15
ENDBRANCH   2   6
TORSDOF 7
ENDMDL
MODEL      264
REMARK 921   NORMALIZED FREE ENERGY PREDICTED BY IDOCK:   -2.77 KCAL/MOL
REMARK 922        TOTAL FREE ENERGY PREDICTED BY IDOCK:   -5.18 KCAL/MOL
REMARK 923 INTER-LIGAND FREE ENERGY PREDICTED BY IDOCK:   -4.62 KCAL/MOL
REMARK 924 INTRA-LIGAND FREE ENERGY PREDICTED BY IDOCK:   -0.56 KCAL/MOL
REMARK 927      BINDING AFFINITY PREDICTED BY RF-SCORE:    0.00 PKD
ROOT
HETATM    1  N   UNL     1      -7.714   1.771  69.023  1.00  0.00    -0.042 N  
HETATM    2  C   UNL     1      -8.992   2.217  68.842  1.00  0.00    -0.113 C  
HETATM    3  H1  UNL     1      -7.013   2.379  69.447  1.00  0.00     0.000 HD 
HETATM    4  H2  UNL     1      -7.459   0.827  68.733  1.00  0.00     0.000 HD 
HETATM    5  O   UNL     1      -9.835   1.485  68.333  1.00  0.00    -0.136 OA 
ENDROOT
BRANCH   2   6
HETATM    6  C   UNL     1      -9.245   3.559  69.308  1.00  0.00    -0.161 A  
HETATM    7  C   UNL     1     -10.018   4.566  68.762  1.00  0.00    -0.120 A  
HETATM    8  C   UNL     1      -9.952   5.663  69.652  1.00  0.00    -0.267 A  
HETATM    9  C   UNL     1     -10.514   6.951  69.699  1.00  0.00    -0.240 A  
HETATM   10  C   UNL     1     -10.221   7.828  70.761  1.00  0.00    -0.197 A  
HETATM   11  C   UNL     1      -9.348   7.363  71.763  1.00  0.00    -0.161 A  
HETATM   12  O   UNL     1      -8.681   3.993  70.482  1.00  0.00    -0.072 OA 
HETATM   13  C   UNL     1      -9.112   5.269  70.682  1.00  0.00    -0.142 A  
HETATM   14  C   UNL     1      -8.777   6.080  71.755  1.00  0.00    -0.138 A  
BRANCH  10  15
HETATM   15  N   UNL     1     -10.747   9.104  70.799  1.00  0.00    -0.241 NA 
HETATM   16  C   UNL     1     -10.648  10.032  69.663  1.00  0.00    -0.252 C  
HETATM   17  N   UNL     1     -12.616  11.360  70.577  1.00  0.00    -0.258 NA 
HETATM   18  C   UNL     1     -12.025  10.678  69.397  1.00  0.00    -0.226 C  
HETATM   19  C   UNL     1     -11.353   9.665  72.019  1.00  0.00     0.285 C  
HETATM   20  C   UNL     1     -12.692  10.364  71.676  1.00  0.00    -0.455 C  
BRANCH  17  21
HETATM   21  C   UNL     1     -11.839  12.539  70.992  1.00  0.00     0.599 C  
BRANCH  21  22
HETATM   22  C   UNL     1     -11.303  13.355  69.807  1.00  0.00    -0.150 C  
BRANCH  22  23
HETATM   23  C   UNL     1     -10.386  14.510  70.218  1.00  0.00     0.514 C  
BRANCH  23  24
HETATM   24  C   UNL     1      -9.927  15.323  69.009  1.00  0.00    -0.229 C  
BRANCH  24  25
HETATM   25  C   UNL     1     -10.368  14.722  67.719  1.00  0.00    -0.244 A  
HETATM   26  C   UNL     1     -11.331  15.227  66.868  1.00  0.00    -0.209 A  
HETATM   27  N   UNL     1     -11.456  14.367  65.812  1.00  0.00    -0.330 NA 
HETATM   28  H   UNL     1     -12.099  14.494  65.031  1.00  0.00     0.000 HD 
HETATM   29  C   UNL     1     -10.590  13.308  65.953  1.00  0.00    -0.281 A  
HETATM   30  C   UNL     1      -9.886  13.507  67.137  1.00  0.00    -0.245 A  
HETATM   31  C   UNL     1      -8.912  12.556  67.518  1.00  0.00    -0.185 A  
HETATM   32  C   UNL     1      -8.692  11.434  66.707  1.00  0.00    -0.174 A  
HETATM   33  C   UNL     1      -9.421  11.262  65.528  1.00  0.00    -0.255 A  
HETATM   34  C   UNL     1      -7.711  10.459  67.094  1.00  0.00    -0.100 C  
HETATM   35  N   UNL     1      -6.923   9.664  67.402  1.00  0.00    -0.083 NA 
HETATM   36  C   UNL     1     -10.383  12.197  65.127  1.00  0.00    -0.311 A  
ENDBRANCH  24  25
ENDBRANCH  23  24
ENDBRANCH  22  23
ENDBRANCH  21  22
ENDBRANCH  17  21
ENDBRANCH  10  15
ENDBRANCH   2   6
TORSDOF 7
ENDMDL
MODEL      265
REMARK 921   NORMALIZED FREE ENERGY PREDICTED BY IDOCK:   -2.73 KCAL/MOL
REMARK 922        TOTAL FREE ENERGY PREDICTED BY IDOCK:   -5.13 KCAL/MOL
REMARK 923 INTER-LIGAND FREE ENERGY PREDICTED BY IDOCK:   -4.40 KCAL/MOL
REMARK 924 INTRA-LIGAND FREE ENERGY PREDICTED BY IDOCK:   -0.73 KCAL/MOL
REMARK 927      BINDING AFFINITY PREDICTED BY RF-SCORE:    0.00 PKD
ROOT
HETATM    1  N   UNL     1      -5.852  18.070  70.361  1.00  0.00    -0.158 N  
HETATM    2  C   UNL     1      -6.715  17.735  69.357  1.00  0.00    -0.171 C  
HETATM    3  H1  UNL     1      -5.404  17.342  70.917  1.00  0.00     0.000 HD 
HETATM    4  H2  UNL     1      -5.654  19.052  70.555  1.00  0.00     0.000 HD 
HETATM    5  O   UNL     1      -7.254  18.611  68.688  1.00  0.00    -0.274 OA 
ENDROOT
BRANCH   2   6
HETATM    6  C   UNL     1      -6.904  16.319  69.158  1.00  0.00    -0.202 A  
HETATM    7  C   UNL     1      -7.854  15.636  68.424  1.00  0.00    -0.127 A  
HETATM    8  C   UNL     1      -7.549  14.259  68.536  1.00  0.00    -0.127 A  
HETATM    9  C   UNL     1      -8.093  13.067  68.025  1.00  0.00    -0.157 A  
HETATM   10  C   UNL     1      -7.532  11.818  68.355  1.00  0.00    -0.105 A  
HETATM   11  C   UNL     1      -6.415  11.817  69.213  1.00  0.00    -0.107 A  
HETATM   12  O   UNL     1      -6.041  15.425  69.743  1.00  0.00    -0.131 OA 
HETATM   13  C   UNL     1      -6.440  14.180  69.363  1.00  0.00    -0.122 A  
HETATM   14  C   UNL     1      -5.839  12.987  69.732  1.00  0.00    -0.123 A  
BRANCH  10  15
HETATM   15  N   UNL     1      -8.077  10.643  67.879  1.00  0.00    -0.110 NA 
HETATM   16  C   UNL     1      -8.748  10.556  66.574  1.00  0.00    -0.139 C  
HETATM   17  N   UNL     1      -8.371   8.041  66.548  1.00  0.00    -0.117 NA 
HETATM   18  C   UNL     1      -8.233   9.320  65.805  1.00  0.00    -0.117 C  
HETATM   19  C   UNL     1      -8.120   9.415  68.691  1.00  0.00    -0.104 C  
HETATM   20  C   UNL     1      -7.667   8.200  67.844  1.00  0.00    -0.114 C  
BRANCH  17  21
HETATM   21  C   UNL     1      -9.778   7.663  66.759  1.00  0.00    -0.222 C  
BRANCH  21  22
HETATM   22  C   UNL     1     -10.141   6.312  66.126  1.00  0.00     0.104 C  
BRANCH  22  23
HETATM   23  C   UNL     1      -9.343   5.133  66.689  1.00  0.00    -0.137 C  
BRANCH  23  24
HETATM   24  C   UNL     1     -10.078   4.453  67.842  1.00  0.00    -0.008 C  
BRANCH  24  25
HETATM   25  C   UNL     1      -9.199   3.530  68.612  1.00  0.00    -0.225 A  
HETATM   26  C   UNL     1      -8.306   2.619  68.083  1.00  0.00    -0.070 A  
HETATM   27  N   UNL     1      -7.717   1.952  69.121  1.00  0.00    -0.043 NA 
HETATM   28  H   UNL     1      -7.016   1.219  69.018  1.00  0.00     0.000 HD 
HETATM   29  C   UNL     1      -8.206   2.408  70.322  1.00  0.00    -0.041 A  
HETATM   30  C   UNL     1      -9.132   3.407  70.036  1.00  0.00    -0.199 A  
HETATM   31  C   UNL     1      -9.784   4.059  71.108  1.00  0.00    -0.257 A  
HETATM   32  C   UNL     1      -9.495   3.675  72.424  1.00  0.00    -0.185 A  
HETATM   33  C   UNL     1      -8.564   2.664  72.676  1.00  0.00    -0.075 A  
HETATM   34  C   UNL     1     -10.161   4.325  73.517  1.00  0.00    -0.146 C  
HETATM   35  N   UNL     1     -10.698   4.844  74.407  1.00  0.00    -0.354 NA 
HETATM   36  C   UNL     1      -7.900   2.013  71.629  1.00  0.00    -0.041 A  
ENDBRANCH  24  25
ENDBRANCH  23  24
ENDBRANCH  22  23
ENDBRANCH  21  22
ENDBRANCH  17  21
ENDBRANCH  10  15
ENDBRANCH   2   6
TORSDOF 7
ENDMDL
MODEL      266
REMARK 921   NORMALIZED FREE ENERGY PREDICTED BY IDOCK:   -2.70 KCAL/MOL
REMARK 922        TOTAL FREE ENERGY PREDICTED BY IDOCK:   -5.09 KCAL/MOL
REMARK 923 INTER-LIGAND FREE ENERGY PREDICTED BY IDOCK:   -3.99 KCAL/MOL
REMARK 924 INTRA-LIGAND FREE ENERGY PREDICTED BY IDOCK:   -1.10 KCAL/MOL
REMARK 927      BINDING AFFINITY PREDICTED BY RF-SCORE:    0.00 PKD
ROOT
HETATM    1  N   UNL     1      -8.024   1.621  70.804  1.00  0.00    -0.038 N  
HETATM    2  C   UNL     1      -8.509   2.869  71.070  1.00  0.00    -0.062 C  
HETATM    3  H1  UNL     1      -7.745   1.370  69.856  1.00  0.00     0.000 HD 
HETATM    4  H2  UNL     1      -7.939   0.938  71.557  1.00  0.00     0.000 HD 
HETATM    5  O   UNL     1      -8.844   3.172  72.211  1.00  0.00    -0.084 OA 
ENDROOT
BRANCH   2   6
HETATM    6  C   UNL     1      -8.566   3.760  69.936  1.00  0.00    -0.061 A  
HETATM    7  C   UNL     1      -7.957   4.983  69.726  1.00  0.00    -0.074 A  
HETATM    8  C   UNL     1      -8.317   5.402  68.424  1.00  0.00    -0.094 A  
HETATM    9  C   UNL     1      -8.023   6.512  67.611  1.00  0.00    -0.114 A  
HETATM   10  C   UNL     1      -8.577   6.628  66.321  1.00  0.00    -0.138 A  
HETATM   11  C   UNL     1      -9.430   5.595  65.888  1.00  0.00    -0.087 A  
HETATM   12  O   UNL     1      -9.308   3.417  68.834  1.00  0.00    -0.154 OA 
HETATM   13  C   UNL     1      -9.154   4.417  67.923  1.00  0.00    -0.127 A  
HETATM   14  C   UNL     1      -9.737   4.468  66.666  1.00  0.00    -0.222 A  
BRANCH  10  15
HETATM   15  N   UNL     1      -8.315   7.727  65.529  1.00  0.00    -0.143 NA 
HETATM   16  C   UNL     1      -7.107   8.550  65.696  1.00  0.00    -0.079 C  
HETATM   17  N   UNL     1      -7.366   9.411  63.316  1.00  0.00    -0.099 NA 
HETATM   18  C   UNL     1      -6.455   8.801  64.319  1.00  0.00    -0.071 C  
HETATM   19  C   UNL     1      -9.278   8.219  64.529  1.00  0.00     0.964 C  
HETATM   20  C   UNL     1      -8.553   8.526  63.196  1.00  0.00     0.027 C  
BRANCH  17  21
HETATM   21  C   UNL     1      -7.768  10.779  63.680  1.00  0.00     0.263 C  
BRANCH  21  22
HETATM   22  C   UNL     1      -9.093  11.210  63.035  1.00  0.00    -0.285 C  
BRANCH  22  23
HETATM   23  C   UNL     1     -10.166  11.622  64.047  1.00  0.00    -0.391 C  
BRANCH  23  24
HETATM   24  C   UNL     1      -9.593  12.523  65.140  1.00  0.00     0.062 C  
BRANCH  24  25
HETATM   25  C   UNL     1     -10.590  12.834  66.201  1.00  0.00    -0.286 A  
HETATM   26  C   UNL     1     -11.439  13.923  66.234  1.00  0.00    -0.339 A  
HETATM   27  N   UNL     1     -12.174  13.854  67.384  1.00  0.00    -0.491 NA 
HETATM   28  H   UNL     1     -12.880  14.533  67.666  1.00  0.00     0.000 HD 
HETATM   29  C   UNL     1     -11.825  12.737  68.108  1.00  0.00    -0.324 A  
HETATM   30  C   UNL     1     -10.839  12.072  67.386  1.00  0.00    -0.285 A  
HETATM   31  C   UNL     1     -10.306  10.871  67.909  1.00  0.00    -0.216 A  
HETATM   32  C   UNL     1     -10.769  10.392  69.142  1.00  0.00    -0.266 A  
HETATM   33  C   UNL     1     -11.756  11.089  69.843  1.00  0.00    -0.424 A  
HETATM   34  C   UNL     1     -10.225   9.179  69.684  1.00  0.00    -0.203 C  
HETATM   35  N   UNL     1      -9.787   8.201  70.131  1.00  0.00    -0.183 NA 
HETATM   36  C   UNL     1     -12.304  12.275  69.338  1.00  0.00     0.036 A  
ENDBRANCH  24  25
ENDBRANCH  23  24
ENDBRANCH  22  23
ENDBRANCH  21  22
ENDBRANCH  17  21
ENDBRANCH  10  15
ENDBRANCH   2   6
TORSDOF 7
ENDMDL
MODEL      267
REMARK 921   NORMALIZED FREE ENERGY PREDICTED BY IDOCK:   -2.66 KCAL/MOL
REMARK 922        TOTAL FREE ENERGY PREDICTED BY IDOCK:   -5.02 KCAL/MOL
REMARK 923 INTER-LIGAND FREE ENERGY PREDICTED BY IDOCK:   -3.83 KCAL/MOL
REMARK 924 INTRA-LIGAND FREE ENERGY PREDICTED BY IDOCK:   -1.19 KCAL/MOL
REMARK 927      BINDING AFFINITY PREDICTED BY RF-SCORE:    0.00 PKD
ROOT
HETATM    1  N   UNL     1      -5.830  11.005  64.834  1.00  0.00    -0.327 N  
HETATM    2  C   UNL     1      -6.984  10.335  65.124  1.00  0.00    -0.122 C  
HETATM    3  H1  UNL     1      -4.976  10.804  65.352  1.00  0.00     0.000 HD 
HETATM    4  H2  UNL     1      -5.824  11.709  64.096  1.00  0.00     0.000 HD 
HETATM    5  O   UNL     1      -8.013  10.577  64.500  1.00  0.00    -0.127 OA 
ENDROOT
BRANCH   2   6
HETATM    6  C   UNL     1      -6.873   9.347  66.170  1.00  0.00    -0.085 A  
HETATM    7  C   UNL     1      -7.035   9.468  67.537  1.00  0.00    -0.084 A  
HETATM    8  C   UNL     1      -6.856   8.177  68.087  1.00  0.00    -0.076 A  
HETATM    9  C   UNL     1      -6.911   7.621  69.378  1.00  0.00    -0.063 A  
HETATM   10  C   UNL     1      -6.662   6.250  69.584  1.00  0.00    -0.053 A  
HETATM   11  C   UNL     1      -6.357   5.470  68.453  1.00  0.00    -0.038 A  
HETATM   12  O   UNL     1      -6.574   8.045  65.853  1.00  0.00    -0.045 OA 
HETATM   13  C   UNL     1      -6.565   7.344  67.019  1.00  0.00    -0.061 A  
HETATM   14  C   UNL     1      -6.305   5.988  67.149  1.00  0.00    -0.041 A  
BRANCH  10  15
HETATM   15  N   UNL     1      -6.687   5.703  70.852  1.00  0.00    -0.047 NA 
HETATM   16  C   UNL     1      -5.807   4.595  71.250  1.00  0.00    -0.017 C  
HETATM   17  N   UNL     1      -6.126   5.221  73.695  1.00  0.00    -0.045 NA 
HETATM   18  C   UNL     1      -5.155   4.912  72.613  1.00  0.00    -0.008 C  
HETATM   19  C   UNL     1      -7.671   6.121  71.865  1.00  0.00    -0.097 C  
HETATM   20  C   UNL     1      -6.970   6.349  73.227  1.00  0.00    -0.078 C  
BRANCH  17  21
HETATM   21  C   UNL     1      -6.956   4.060  74.054  1.00  0.00    -0.060 C  
BRANCH  21  22
HETATM   22  C   UNL     1      -8.454   4.290  73.808  1.00  0.00    -0.092 C  
BRANCH  22  23
HETATM   23  C   UNL     1      -9.148   3.126  73.098  1.00  0.00    -0.103 C  
BRANCH  23  24
HETATM   24  C   UNL     1     -10.658   3.342  73.005  1.00  0.00    -0.241 C  
BRANCH  24  25
HETATM   25  C   UNL     1     -11.008   4.689  72.475  1.00  0.00    -0.132 A  
HETATM   26  C   UNL     1     -11.535   5.741  73.197  1.00  0.00    -0.053 A  
HETATM   27  N   UNL     1     -11.735   6.786  72.339  1.00  0.00    -0.424 NA 
HETATM   28  H   UNL     1     -12.118   7.693  72.605  1.00  0.00     0.000 HD 
HETATM   29  C   UNL     1     -11.348   6.440  71.065  1.00  0.00    -0.328 A  
HETATM   30  C   UNL     1     -10.878   5.131  71.121  1.00  0.00    -0.060 A  
HETATM   31  C   UNL     1     -10.402   4.528  69.933  1.00  0.00     0.123 A  
HETATM   32  C   UNL     1     -10.431   5.253  68.734  1.00  0.00    -0.166 A  
HETATM   33  C   UNL     1     -10.915   6.563  68.714  1.00  0.00    -0.371 A  
HETATM   34  C   UNL     1      -9.959   4.643  67.523  1.00  0.00    -0.121 C  
HETATM   35  N   UNL     1      -9.583   4.155  66.538  1.00  0.00    -0.193 NA 
HETATM   36  C   UNL     1     -11.382   7.183  69.880  1.00  0.00    -0.199 A  
ENDBRANCH  24  25
ENDBRANCH  23  24
ENDBRANCH  22  23
ENDBRANCH  21  22
ENDBRANCH  17  21
ENDBRANCH  10  15
ENDBRANCH   2   6
TORSDOF 7
ENDMDL
MODEL      268
REMARK 921   NORMALIZED FREE ENERGY PREDICTED BY IDOCK:   -2.53 KCAL/MOL
REMARK 922        TOTAL FREE ENERGY PREDICTED BY IDOCK:   -4.85 KCAL/MOL
REMARK 923 INTER-LIGAND FREE ENERGY PREDICTED BY IDOCK:   -4.70 KCAL/MOL
REMARK 924 INTRA-LIGAND FREE ENERGY PREDICTED BY IDOCK:   -0.14 KCAL/MOL
REMARK 927      BINDING AFFINITY PREDICTED BY RF-SCORE:    0.00 PKD
ROOT
HETATM    1  N   UNL     1     -13.929   6.729  71.859  1.00  0.00    -0.437 N  
HETATM    2  C   UNL     1     -12.608   6.393  71.936  1.00  0.00    -0.093 C  
HETATM    3  H1  UNL     1     -14.226   7.516  71.282  1.00  0.00     0.000 HD 
HETATM    4  H2  UNL     1     -14.621   6.192  72.380  1.00  0.00     0.000 HD 
HETATM    5  O   UNL     1     -12.251   5.446  72.630  1.00  0.00    -0.115 OA 
ENDROOT
BRANCH   2   6
HETATM    6  C   UNL     1     -11.720   7.207  71.142  1.00  0.00    -0.313 A  
HETATM    7  C   UNL     1     -10.931   8.284  71.499  1.00  0.00    -0.312 A  
HETATM    8  C   UNL     1     -10.227   8.680  70.338  1.00  0.00    -0.218 A  
HETATM    9  C   UNL     1      -9.271   9.666  70.033  1.00  0.00    -0.275 A  
HETATM   10  C   UNL     1      -8.766   9.800  68.725  1.00  0.00    -0.128 A  
HETATM   11  C   UNL     1      -9.257   8.915  67.747  1.00  0.00    -0.153 A  
HETATM   12  O   UNL     1     -11.557   6.938  69.805  1.00  0.00    -0.240 OA 
HETATM   13  C   UNL     1     -10.653   7.835  69.326  1.00  0.00    -0.192 A  
HETATM   14  C   UNL     1     -10.202   7.913  68.017  1.00  0.00    -0.256 A  
BRANCH  10  15
HETATM   15  N   UNL     1      -7.848  10.783  68.413  1.00  0.00    -0.113 NA 
HETATM   16  C   UNL     1      -8.029  12.187  68.812  1.00  0.00     0.007 C  
HETATM   17  N   UNL     1      -5.529  12.582  68.551  1.00  0.00    -0.054 NA 
HETATM   18  C   UNL     1      -6.719  12.726  69.429  1.00  0.00    -0.018 C  
HETATM   19  C   UNL     1      -6.673  10.516  67.566  1.00  0.00    -0.070 C  
HETATM   20  C   UNL     1      -5.406  11.146  68.197  1.00  0.00    -0.042 C  
BRANCH  17  21
HETATM   21  C   UNL     1      -5.621  13.414  67.340  1.00  0.00     0.151 C  
BRANCH  21  22
HETATM   22  C   UNL     1      -6.441  14.694  67.549  1.00  0.00    -0.079 C  
BRANCH  22  23
HETATM   23  C   UNL     1      -7.832  14.647  66.911  1.00  0.00     0.090 C  
BRANCH  23  24
HETATM   24  C   UNL     1      -8.115  15.898  66.081  1.00  0.00     0.165 C  
BRANCH  24  25
HETATM   25  C   UNL     1      -9.022  16.850  66.778  1.00  0.00    -0.264 A  
HETATM   26  C   UNL     1     -10.375  17.008  66.552  1.00  0.00    -0.298 A  
HETATM   27  N   UNL     1     -10.831  17.998  67.377  1.00  0.00    -0.306 NA 
HETATM   28  H   UNL     1     -11.796  18.324  67.418  1.00  0.00     0.000 HD 
HETATM   29  C   UNL     1      -9.802  18.493  68.144  1.00  0.00    -0.346 A  
HETATM   30  C   UNL     1      -8.654  17.785  67.797  1.00  0.00    -0.237 A  
HETATM   31  C   UNL     1      -7.440  18.094  68.453  1.00  0.00    -0.287 A  
HETATM   32  C   UNL     1      -7.419  19.109  69.419  1.00  0.00    -0.126 A  
HETATM   33  C   UNL     1      -8.589  19.804  69.738  1.00  0.00     0.696 A  
HETATM   34  C   UNL     1      -6.188  19.435  70.081  1.00  0.00    -0.195 C  
HETATM   35  N   UNL     1      -5.195  19.706  70.619  1.00  0.00    -0.213 NA 
HETATM   36  C   UNL     1      -9.803  19.507  69.108  1.00  0.00    -0.431 A  
ENDBRANCH  24  25
ENDBRANCH  23  24
ENDBRANCH  22  23
ENDBRANCH  21  22
ENDBRANCH  17  21
ENDBRANCH  10  15
ENDBRANCH   2   6
TORSDOF 7
ENDMDL
MODEL      269
REMARK 921   NORMALIZED FREE ENERGY PREDICTED BY IDOCK:   -2.51 KCAL/MOL
REMARK 922        TOTAL FREE ENERGY PREDICTED BY IDOCK:   -4.82 KCAL/MOL
REMARK 923 INTER-LIGAND FREE ENERGY PREDICTED BY IDOCK:   -4.26 KCAL/MOL
REMARK 924 INTRA-LIGAND FREE ENERGY PREDICTED BY IDOCK:   -0.56 KCAL/MOL
REMARK 927      BINDING AFFINITY PREDICTED BY RF-SCORE:    0.00 PKD
ROOT
HETATM    1  N   UNL     1     -10.703   2.465  63.987  1.00  0.00    -0.423 N  
HETATM    2  C   UNL     1      -9.382   2.560  64.323  1.00  0.00    -0.130 C  
HETATM    3  H1  UNL     1     -11.364   3.176  64.300  1.00  0.00     0.000 HD 
HETATM    4  H2  UNL     1     -11.028   1.682  63.422  1.00  0.00     0.000 HD 
HETATM    5  O   UNL     1      -8.587   1.705  63.946  1.00  0.00    -0.076 OA 
ENDROOT
BRANCH   2   6
HETATM    6  C   UNL     1      -9.030   3.719  65.106  1.00  0.00    -0.132 A  
HETATM    7  C   UNL     1      -8.382   4.884  64.742  1.00  0.00    -0.136 A  
HETATM    8  C   UNL     1      -8.336   5.706  65.893  1.00  0.00    -0.128 A  
HETATM    9  C   UNL     1      -7.851   6.992  66.186  1.00  0.00    -0.102 A  
HETATM   10  C   UNL     1      -7.960   7.525  67.486  1.00  0.00    -0.116 A  
HETATM   11  C   UNL     1      -8.568   6.719  68.467  1.00  0.00    -0.125 A  
HETATM   12  O   UNL     1      -9.361   3.771  66.437  1.00  0.00    -0.164 OA 
HETATM   13  C   UNL     1      -8.937   4.976  66.907  1.00  0.00    -0.112 A  
HETATM   14  C   UNL     1      -9.074   5.435  68.207  1.00  0.00    -0.116 A  
BRANCH  10  15
HETATM   15  N   UNL     1      -7.461   8.776  67.788  1.00  0.00    -0.092 NA 
HETATM   16  C   UNL     1      -7.663   9.410  69.099  1.00  0.00    -0.079 C  
HETATM   17  N   UNL     1      -5.664  10.925  68.674  1.00  0.00    -0.040 NA 
HETATM   18  C   UNL     1      -6.324   9.982  69.613  1.00  0.00    -0.053 C  
HETATM   19  C   UNL     1      -6.780   9.611  66.783  1.00  0.00    -0.075 C  
HETATM   20  C   UNL     1      -5.487  10.217  67.382  1.00  0.00    -0.041 C  
BRANCH  17  21
HETATM   21  C   UNL     1      -6.435  12.165  68.489  1.00  0.00    -0.059 C  
BRANCH  21  22
HETATM   22  C   UNL     1      -5.589  13.434  68.668  1.00  0.00    -0.081 C  
BRANCH  22  23
HETATM   23  C   UNL     1      -6.392  14.649  69.139  1.00  0.00    -0.106 C  
BRANCH  23  24
HETATM   24  C   UNL     1      -6.239  15.831  68.183  1.00  0.00    -0.132 C  
BRANCH  24  25
HETATM   25  C   UNL     1      -6.551  17.133  68.834  1.00  0.00    -0.199 A  
HETATM   26  C   UNL     1      -5.928  17.662  69.948  1.00  0.00    -0.221 A  
HETATM   27  N   UNL     1      -6.525  18.857  70.239  1.00  0.00     0.069 NA 
HETATM   28  H   UNL     1      -6.264  19.463  71.016  1.00  0.00     0.000 HD 
HETATM   29  C   UNL     1      -7.528  19.124  69.337  1.00  0.00    -0.091 A  
HETATM   30  C   UNL     1      -7.562  18.063  68.436  1.00  0.00    -0.288 A  
HETATM   31  C   UNL     1      -8.509  18.093  67.386  1.00  0.00    -0.240 A  
HETATM   32  C   UNL     1      -9.394  19.175  67.288  1.00  0.00    -0.351 A  
HETATM   33  C   UNL     1      -9.335  20.220  68.213  1.00  0.00    -0.148 A  
HETATM   34  C   UNL     1     -10.364  19.207  66.230  1.00  0.00    -0.474 C  
HETATM   35  N   UNL     1     -11.154  19.238  65.379  1.00  0.00    -0.259 NA 
HETATM   36  C   UNL     1      -8.399  20.215  69.255  1.00  0.00     0.455 A  
ENDBRANCH  24  25
ENDBRANCH  23  24
ENDBRANCH  22  23
ENDBRANCH  21  22
ENDBRANCH  17  21
ENDBRANCH  10  15
ENDBRANCH   2   6
TORSDOF 7
ENDMDL
MODEL      270
REMARK 921   NORMALIZED FREE ENERGY PREDICTED BY IDOCK:   -2.47 KCAL/MOL
REMARK 922        TOTAL FREE ENERGY PREDICTED BY IDOCK:   -4.75 KCAL/MOL
REMARK 923 INTER-LIGAND FREE ENERGY PREDICTED BY IDOCK:   -3.95 KCAL/MOL
REMARK 924 INTRA-LIGAND FREE ENERGY PREDICTED BY IDOCK:   -0.80 KCAL/MOL
REMARK 927      BINDING AFFINITY PREDICTED BY RF-SCORE:    0.00 PKD
ROOT
HETATM    1  N   UNL     1     -10.213  19.637  69.531  1.00  0.00    -0.560 N  
HETATM    2  C   UNL     1      -9.891  19.253  68.261  1.00  0.00    -0.400 C  
HETATM    3  H1  UNL     1     -10.576  18.955  70.197  1.00  0.00     0.000 HD 
HETATM    4  H2  UNL     1     -10.091  20.609  69.815  1.00  0.00     0.000 HD 
HETATM    5  O   UNL     1      -9.454  20.073  67.460  1.00  0.00    -0.337 OA 
ENDROOT
BRANCH   2   6
HETATM    6  C   UNL     1     -10.084  17.852  67.976  1.00  0.00    -0.358 A  
HETATM    7  C   UNL     1      -9.170  16.872  67.638  1.00  0.00    -0.228 A  
HETATM    8  C   UNL     1      -9.893  15.662  67.513  1.00  0.00    -0.228 A  
HETATM    9  C   UNL     1      -9.567  14.325  67.222  1.00  0.00    -0.232 A  
HETATM   10  C   UNL     1     -10.567  13.335  67.163  1.00  0.00    -0.258 A  
HETATM   11  C   UNL     1     -11.893  13.740  67.405  1.00  0.00    -0.431 A  
HETATM   12  O   UNL     1     -11.343  17.309  68.038  1.00  0.00    -0.067 OA 
HETATM   13  C   UNL     1     -11.219  15.983  67.755  1.00  0.00    -0.231 A  
HETATM   14  C   UNL     1     -12.254  15.062  67.709  1.00  0.00     0.180 A  
BRANCH  10  15
HETATM   15  N   UNL     1     -10.257  12.027  66.851  1.00  0.00    -0.207 NA 
HETATM   16  C   UNL     1      -8.885  11.503  66.918  1.00  0.00    -0.182 C  
HETATM   17  N   UNL     1      -9.798   9.135  67.087  1.00  0.00    -0.180 NA 
HETATM   18  C   UNL     1      -8.880  10.151  67.663  1.00  0.00    -0.125 C  
HETATM   19  C   UNL     1     -11.264  11.088  66.325  1.00  0.00     0.065 C  
HETATM   20  C   UNL     1     -11.158   9.728  67.058  1.00  0.00     0.173 C  
BRANCH  17  21
HETATM   21  C   UNL     1      -9.386   8.705  65.741  1.00  0.00    -0.158 C  
BRANCH  21  22
HETATM   22  C   UNL     1      -9.537   7.193  65.518  1.00  0.00     0.736 C  
BRANCH  22  23
HETATM   23  C   UNL     1      -8.676   6.342  66.455  1.00  0.00    -0.140 C  
BRANCH  23  24
HETATM   24  C   UNL     1      -9.528   5.588  67.474  1.00  0.00    -0.123 C  
BRANCH  24  25
HETATM   25  C   UNL     1      -8.742   5.156  68.663  1.00  0.00    -0.098 A  
HETATM   26  C   UNL     1      -8.823   3.932  69.298  1.00  0.00    -0.093 A  
HETATM   27  N   UNL     1      -7.960   3.947  70.358  1.00  0.00    -0.050 NA 
HETATM   28  H   UNL     1      -7.818   3.170  71.003  1.00  0.00     0.000 HD 
HETATM   29  C   UNL     1      -7.311   5.157  70.430  1.00  0.00    -0.062 A  
HETATM   30  C   UNL     1      -7.775   5.935  69.373  1.00  0.00    -0.093 A  
HETATM   31  C   UNL     1      -7.255   7.240  69.210  1.00  0.00    -0.081 A  
HETATM   32  C   UNL     1      -6.304   7.720  70.119  1.00  0.00    -0.033 A  
HETATM   33  C   UNL     1      -5.865   6.915  71.172  1.00  0.00    -0.035 A  
HETATM   34  C   UNL     1      -5.779   9.048  69.965  1.00  0.00    -0.031 C  
HETATM   35  N   UNL     1      -5.353  10.122  69.849  1.00  0.00    -0.037 NA 
HETATM   36  C   UNL     1      -6.359   5.616  71.347  1.00  0.00    -0.043 A  
ENDBRANCH  24  25
ENDBRANCH  23  24
ENDBRANCH  22  23
ENDBRANCH  21  22
ENDBRANCH  17  21
ENDBRANCH  10  15
ENDBRANCH   2   6
TORSDOF 7
ENDMDL
MODEL      271
REMARK 921   NORMALIZED FREE ENERGY PREDICTED BY IDOCK:   -2.46 KCAL/MOL
REMARK 922        TOTAL FREE ENERGY PREDICTED BY IDOCK:   -4.75 KCAL/MOL
REMARK 923 INTER-LIGAND FREE ENERGY PREDICTED BY IDOCK:   -4.34 KCAL/MOL
REMARK 924 INTRA-LIGAND FREE ENERGY PREDICTED BY IDOCK:   -0.41 KCAL/MOL
REMARK 927      BINDING AFFINITY PREDICTED BY RF-SCORE:    0.00 PKD
ROOT
HETATM    1  N   UNL     1     -12.428  16.184  64.419  1.00  0.00     0.343 N  
HETATM    2  C   UNL     1     -12.048  14.928  64.042  1.00  0.00    -0.126 C  
HETATM    3  H1  UNL     1     -12.111  16.571  65.308  1.00  0.00     0.000 HD 
HETATM    4  H2  UNL     1     -13.032  16.737  63.810  1.00  0.00     0.000 HD 
HETATM    5  O   UNL     1     -12.430  14.462  62.972  1.00  0.00    -0.273 OA 
ENDROOT
BRANCH   2   6
HETATM    6  C   UNL     1     -11.178  14.246  64.969  1.00  0.00    -0.364 A  
HETATM    7  C   UNL     1     -11.050  12.900  65.253  1.00  0.00    -0.313 A  
HETATM    8  C   UNL     1     -10.014  12.779  66.209  1.00  0.00    -0.269 A  
HETATM    9  C   UNL     1      -9.389  11.712  66.880  1.00  0.00    -0.195 A  
HETATM   10  C   UNL     1      -8.360  11.950  67.811  1.00  0.00    -0.149 A  
HETATM   11  C   UNL     1      -7.991  13.289  68.041  1.00  0.00    -0.152 A  
HETATM   12  O   UNL     1     -10.287  14.965  65.726  1.00  0.00    -0.292 OA 
HETATM   13  C   UNL     1      -9.588  14.070  66.476  1.00  0.00    -0.293 A  
HETATM   14  C   UNL     1      -8.585  14.378  67.382  1.00  0.00    -0.213 A  
BRANCH  10  15
HETATM   15  N   UNL     1      -7.761  10.910  68.493  1.00  0.00    -0.111 NA 
HETATM   16  C   UNL     1      -8.532   9.806  69.084  1.00  0.00    -0.143 C  
HETATM   17  N   UNL     1      -6.446   8.349  69.083  1.00  0.00    -0.042 NA 
HETATM   18  C   UNL     1      -7.880   8.457  68.710  1.00  0.00    -0.115 C  
HETATM   19  C   UNL     1      -6.314  10.885  68.770  1.00  0.00    -0.048 C  
HETATM   20  C   UNL     1      -5.734   9.486  68.448  1.00  0.00    -0.040 C  
BRANCH  17  21
HETATM   21  C   UNL     1      -6.244   8.354  70.541  1.00  0.00    -0.035 C  
BRANCH  21  22
HETATM   22  C   UNL     1      -6.332   6.954  71.166  1.00  0.00    -0.041 C  
BRANCH  22  23
HETATM   23  C   UNL     1      -5.583   5.878  70.377  1.00  0.00    -0.013 C  
BRANCH  23  24
HETATM   24  C   UNL     1      -6.415   5.356  69.206  1.00  0.00    -0.038 C  
BRANCH  24  25
HETATM   25  C   UNL     1      -6.928   3.978  69.443  1.00  0.00    -0.046 A  
HETATM   26  C   UNL     1      -6.519   2.830  68.793  1.00  0.00    -0.029 A  
HETATM   27  N   UNL     1      -7.251   1.784  69.282  1.00  0.00    -0.036 NA 
HETATM   28  H   UNL     1      -7.157   0.815  68.977  1.00  0.00     0.000 HD 
HETATM   29  C   UNL     1      -8.132   2.223  70.242  1.00  0.00    -0.041 A  
HETATM   30  C   UNL     1      -7.946   3.596  70.372  1.00  0.00    -0.053 A  
HETATM   31  C   UNL     1      -8.731   4.303  71.313  1.00  0.00    -0.133 A  
HETATM   32  C   UNL     1      -9.681   3.610  72.075  1.00  0.00    -0.238 A  
HETATM   33  C   UNL     1      -9.846   2.232  71.914  1.00  0.00    -0.225 A  
HETATM   34  C   UNL     1     -10.488   4.323  73.024  1.00  0.00    -0.180 C  
HETATM   35  N   UNL     1     -11.147   4.894  73.792  1.00  0.00    -0.296 NA 
HETATM   36  C   UNL     1      -9.073   1.512  70.996  1.00  0.00    -0.137 A  
ENDBRANCH  24  25
ENDBRANCH  23  24
ENDBRANCH  22  23
ENDBRANCH  21  22
ENDBRANCH  17  21
ENDBRANCH  10  15
ENDBRANCH   2   6
TORSDOF 7
ENDMDL
MODEL      272
REMARK 921   NORMALIZED FREE ENERGY PREDICTED BY IDOCK:   -2.46 KCAL/MOL
REMARK 922        TOTAL FREE ENERGY PREDICTED BY IDOCK:   -4.75 KCAL/MOL
REMARK 923 INTER-LIGAND FREE ENERGY PREDICTED BY IDOCK:   -5.56 KCAL/MOL
REMARK 924 INTRA-LIGAND FREE ENERGY PREDICTED BY IDOCK:    0.81 KCAL/MOL
REMARK 927      BINDING AFFINITY PREDICTED BY RF-SCORE:    0.00 PKD
ROOT
HETATM    1  N   UNL     1      -9.520  20.752  66.808  1.00  0.00    -0.665 N  
HETATM    2  C   UNL     1     -10.040  20.111  67.896  1.00  0.00    -0.392 C  
HETATM    3  H1  UNL     1      -9.036  20.222  66.084  1.00  0.00     0.000 HD 
HETATM    4  H2  UNL     1      -9.617  21.763  66.720  1.00  0.00     0.000 HD 
HETATM    5  O   UNL     1     -10.623  20.747  68.768  1.00  0.00     0.168 OA 
ENDROOT
BRANCH   2   6
HETATM    6  C   UNL     1      -9.864  18.679  67.907  1.00  0.00    -0.329 A  
HETATM    7  C   UNL     1      -8.711  17.917  67.864  1.00  0.00    -0.252 A  
HETATM    8  C   UNL     1      -9.111  16.562  67.946  1.00  0.00    -0.206 A  
HETATM    9  C   UNL     1      -8.449  15.322  67.978  1.00  0.00    -0.147 A  
HETATM   10  C   UNL     1      -9.175  14.118  68.055  1.00  0.00    -0.195 A  
HETATM   11  C   UNL     1     -10.579  14.211  68.096  1.00  0.00    -0.249 A  
HETATM   12  O   UNL     1     -10.960  17.855  67.983  1.00  0.00    -0.276 OA 
HETATM   13  C   UNL     1     -10.496  16.576  68.005  1.00  0.00    -0.313 A  
HETATM   14  C   UNL     1     -11.274  15.431  68.077  1.00  0.00    -0.326 A  
BRANCH  10  15
HETATM   15  N   UNL     1      -8.533  12.896  68.059  1.00  0.00    -0.169 NA 
HETATM   16  C   UNL     1      -7.283  12.660  67.320  1.00  0.00    -0.103 C  
HETATM   17  N   UNL     1      -6.773  10.671  68.822  1.00  0.00    -0.053 NA 
HETATM   18  C   UNL     1      -6.268  11.938  68.233  1.00  0.00    -0.050 C  
HETATM   19  C   UNL     1      -9.108  11.711  68.717  1.00  0.00    -0.021 C  
HETATM   20  C   UNL     1      -8.025  10.987  69.554  1.00  0.00     0.147 C  
BRANCH  17  21
HETATM   21  C   UNL     1      -7.010   9.634  67.805  1.00  0.00    -0.079 C  
BRANCH  21  22
HETATM   22  C   UNL     1      -8.196   9.953  66.883  1.00  0.00    -0.120 C  
BRANCH  22  23
HETATM   23  C   UNL     1      -8.207   9.138  65.588  1.00  0.00    -0.121 C  
BRANCH  23  24
HETATM   24  C   UNL     1      -9.222   7.998  65.647  1.00  0.00     0.010 C  
BRANCH  24  25
HETATM   25  C   UNL     1      -8.751   6.860  66.485  1.00  0.00    -0.137 A  
HETATM   26  C   UNL     1      -7.844   5.889  66.112  1.00  0.00    -0.104 A  
HETATM   27  N   UNL     1      -7.704   5.016  67.155  1.00  0.00    -0.091 NA 
HETATM   28  H   UNL     1      -7.095   4.198  67.152  1.00  0.00     0.000 HD 
HETATM   29  C   UNL     1      -8.502   5.398  68.208  1.00  0.00    -0.097 A  
HETATM   30  C   UNL     1      -9.166   6.558  67.821  1.00  0.00    -0.113 A  
HETATM   31  C   UNL     1     -10.053   7.172  68.736  1.00  0.00    -0.175 A  
HETATM   32  C   UNL     1     -10.253   6.592  69.995  1.00  0.00    -0.215 A  
HETATM   33  C   UNL     1      -9.575   5.423  70.349  1.00  0.00    -0.233 A  
HETATM   34  C   UNL     1     -11.160   7.205  70.924  1.00  0.00    -0.263 C  
HETATM   35  N   UNL     1     -11.895   7.692  71.680  1.00  0.00    -0.280 NA 
HETATM   36  C   UNL     1      -8.684   4.804  69.462  1.00  0.00    -0.111 A  
ENDBRANCH  24  25
ENDBRANCH  23  24
ENDBRANCH  22  23
ENDBRANCH  21  22
ENDBRANCH  17  21
ENDBRANCH  10  15
ENDBRANCH   2   6
TORSDOF 7
ENDMDL
MODEL      273
REMARK 921   NORMALIZED FREE ENERGY PREDICTED BY IDOCK:   -2.33 KCAL/MOL
REMARK 922        TOTAL FREE ENERGY PREDICTED BY IDOCK:   -4.56 KCAL/MOL
REMARK 923 INTER-LIGAND FREE ENERGY PREDICTED BY IDOCK:   -4.14 KCAL/MOL
REMARK 924 INTRA-LIGAND FREE ENERGY PREDICTED BY IDOCK:   -0.42 KCAL/MOL
REMARK 927      BINDING AFFINITY PREDICTED BY RF-SCORE:    0.00 PKD
ROOT
HETATM    1  N   UNL     1      -6.298  16.407  69.557  1.00  0.00    -0.196 N  
HETATM    2  C   UNL     1      -6.872  16.129  68.349  1.00  0.00    -0.128 C  
HETATM    3  H1  UNL     1      -5.950  15.650  70.146  1.00  0.00     0.000 HD 
HETATM    4  H2  UNL     1      -6.216  17.374  69.870  1.00  0.00     0.000 HD 
HETATM    5  O   UNL     1      -7.291  17.039  67.641  1.00  0.00    -0.154 OA 
ENDROOT
BRANCH   2   6
HETATM    6  C   UNL     1      -6.916  14.730  67.998  1.00  0.00    -0.140 A  
HETATM    7  C   UNL     1      -7.968  13.836  68.010  1.00  0.00    -0.156 A  
HETATM    8  C   UNL     1      -7.466  12.604  67.527  1.00  0.00    -0.155 A  
HETATM    9  C   UNL     1      -8.008  11.331  67.274  1.00  0.00    -0.141 A  
HETATM   10  C   UNL     1      -7.198  10.286  66.787  1.00  0.00    -0.105 A  
HETATM   11  C   UNL     1      -5.837  10.570  66.570  1.00  0.00    -0.075 A  
HETATM   12  O   UNL     1      -5.778  14.101  67.556  1.00  0.00    -0.345 OA 
HETATM   13  C   UNL     1      -6.120  12.814  67.274  1.00  0.00    -0.035 A  
HETATM   14  C   UNL     1      -5.264  11.831  66.800  1.00  0.00    -0.085 A  
BRANCH  10  15
HETATM   15  N   UNL     1      -7.717   9.027  66.563  1.00  0.00    -0.095 NA 
HETATM   16  C   UNL     1      -7.082   7.808  67.085  1.00  0.00    -0.085 C  
HETATM   17  N   UNL     1      -9.289   6.562  66.860  1.00  0.00    -0.141 NA 
HETATM   18  C   UNL     1      -8.148   6.908  67.747  1.00  0.00    -0.114 C  
HETATM   19  C   UNL     1      -8.887   8.805  65.696  1.00  0.00    -0.199 C  
HETATM   20  C   UNL     1      -9.882   7.836  66.380  1.00  0.00    -0.128 C  
BRANCH  17  21
HETATM   21  C   UNL     1      -8.883   5.715  65.727  1.00  0.00    -0.153 C  
BRANCH  21  22
HETATM   22  C   UNL     1      -7.519   5.042  65.936  1.00  0.00    -0.082 C  
BRANCH  22  23
HETATM   23  C   UNL     1      -7.612   3.618  66.490  1.00  0.00    -0.080 C  
BRANCH  23  24
HETATM   24  C   UNL     1      -7.020   3.520  67.895  1.00  0.00    -0.051 C  
BRANCH  24  25
HETATM   25  C   UNL     1      -7.998   2.997  68.889  1.00  0.00    -0.065 A  
HETATM   26  C   UNL     1      -8.538   1.726  68.916  1.00  0.00    -0.062 A  
HETATM   27  N   UNL     1      -9.410   1.659  69.967  1.00  0.00    -0.103 NA 
HETATM   28  H   UNL     1      -9.952   0.834  70.221  1.00  0.00     0.000 HD 
HETATM   29  C   UNL     1      -9.451   2.861  70.632  1.00  0.00    -0.147 A  
HETATM   30  C   UNL     1      -8.568   3.720  69.984  1.00  0.00    -0.107 A  
HETATM   31  C   UNL     1      -8.411   5.035  70.479  1.00  0.00    -0.101 A  
HETATM   32  C   UNL     1      -9.155   5.445  71.593  1.00  0.00    -0.154 A  
HETATM   33  C   UNL     1     -10.037   4.559  72.216  1.00  0.00    -0.253 A  
HETATM   34  C   UNL     1      -9.008   6.782  72.095  1.00  0.00    -0.133 C  
HETATM   35  N   UNL     1      -8.897   7.863  72.504  1.00  0.00    -0.146 NA 
HETATM   36  C   UNL     1     -10.201   3.249  71.749  1.00  0.00    -0.020 A  
ENDBRANCH  24  25
ENDBRANCH  23  24
ENDBRANCH  22  23
ENDBRANCH  21  22
ENDBRANCH  17  21
ENDBRANCH  10  15
ENDBRANCH   2   6
TORSDOF 7
ENDMDL
MODEL      274
REMARK 921   NORMALIZED FREE ENERGY PREDICTED BY IDOCK:   -2.27 KCAL/MOL
REMARK 922        TOTAL FREE ENERGY PREDICTED BY IDOCK:   -4.48 KCAL/MOL
REMARK 923 INTER-LIGAND FREE ENERGY PREDICTED BY IDOCK:   -3.52 KCAL/MOL
REMARK 924 INTRA-LIGAND FREE ENERGY PREDICTED BY IDOCK:   -0.96 KCAL/MOL
REMARK 927      BINDING AFFINITY PREDICTED BY RF-SCORE:    0.00 PKD
ROOT
HETATM    1  N   UNL     1      -5.990  18.653  70.486  1.00  0.00    -0.074 N  
HETATM    2  C   UNL     1      -6.747  18.267  69.418  1.00  0.00    -0.168 C  
HETATM    3  H1  UNL     1      -5.588  17.953  71.110  1.00  0.00     0.000 HD 
HETATM    4  H2  UNL     1      -5.825  19.644  70.661  1.00  0.00     0.000 HD 
HETATM    5  O   UNL     1      -7.230  19.109  68.667  1.00  0.00    -0.292 OA 
ENDROOT
BRANCH   2   6
HETATM    6  C   UNL     1      -6.896  16.842  69.254  1.00  0.00    -0.225 A  
HETATM    7  C   UNL     1      -6.265  15.795  69.898  1.00  0.00    -0.157 A  
HETATM    8  C   UNL     1      -6.821  14.600  69.383  1.00  0.00    -0.159 A  
HETATM    9  C   UNL     1      -6.643  13.226  69.624  1.00  0.00     0.002 A  
HETATM   10  C   UNL     1      -7.376  12.266  68.900  1.00  0.00    -0.041 A  
HETATM   11  C   UNL     1      -8.284  12.738  67.934  1.00  0.00    -0.168 A  
HETATM   12  O   UNL     1      -7.797  16.349  68.343  1.00  0.00    -0.161 OA 
HETATM   13  C   UNL     1      -7.744  14.991  68.426  1.00  0.00    -0.113 A  
HETATM   14  C   UNL     1      -8.496  14.102  67.674  1.00  0.00    -0.189 A  
BRANCH  10  15
HETATM   15  N   UNL     1      -7.187  10.915  69.112  1.00  0.00    -0.107 NA 
HETATM   16  C   UNL     1      -6.877  10.361  70.439  1.00  0.00    -0.065 C  
HETATM   17  N   UNL     1      -7.704   8.079  69.677  1.00  0.00    -0.100 NA 
HETATM   18  C   UNL     1      -7.779   9.139  70.716  1.00  0.00    -0.141 C  
HETATM   19  C   UNL     1      -7.176   9.943  68.006  1.00  0.00    -0.083 C  
HETATM   20  C   UNL     1      -8.034   8.707  68.374  1.00  0.00    -0.113 C  
BRANCH  17  21
HETATM   21  C   UNL     1      -6.382   7.435  69.627  1.00  0.00    -0.031 C  
BRANCH  21  22
HETATM   22  C   UNL     1      -6.458   5.901  69.606  1.00  0.00    -0.042 C  
BRANCH  22  23
HETATM   23  C   UNL     1      -7.181   5.337  68.381  1.00  0.00    -0.067 C  
BRANCH  23  24
HETATM   24  C   UNL     1      -6.278   5.325  67.149  1.00  0.00    -0.031 C  
BRANCH  24  25
HETATM   25  C   UNL     1      -7.051   5.272  65.877  1.00  0.00    -0.068 A  
HETATM   26  C   UNL     1      -7.867   4.240  65.458  1.00  0.00    -0.090 A  
HETATM   27  N   UNL     1      -8.369   4.569  64.230  1.00  0.00    -0.108 NA 
HETATM   28  H   UNL     1      -9.002   3.985  63.684  1.00  0.00     0.000 HD 
HETATM   29  C   UNL     1      -7.899   5.800  63.834  1.00  0.00    -0.117 A  
HETATM   30  C   UNL     1      -7.076   6.271  64.853  1.00  0.00    -0.060 A  
HETATM   31  C   UNL     1      -6.464   7.537  64.703  1.00  0.00    -0.041 A  
HETATM   32  C   UNL     1      -6.687   8.274  63.533  1.00  0.00    -0.084 A  
HETATM   33  C   UNL     1      -7.515   7.769  62.528  1.00  0.00    -0.107 A  
HETATM   34  C   UNL     1      -6.061   9.556  63.370  1.00  0.00    -0.095 C  
HETATM   35  N   UNL     1      -5.555  10.592  63.228  1.00  0.00    -0.155 NA 
HETATM   36  C   UNL     1      -8.139   6.522  62.660  1.00  0.00    -0.072 A  
ENDBRANCH  24  25
ENDBRANCH  23  24
ENDBRANCH  22  23
ENDBRANCH  21  22
ENDBRANCH  17  21
ENDBRANCH  10  15
ENDBRANCH   2   6
TORSDOF 7
ENDMDL
MODEL      275
REMARK 921   NORMALIZED FREE ENERGY PREDICTED BY IDOCK:   -2.20 KCAL/MOL
REMARK 922        TOTAL FREE ENERGY PREDICTED BY IDOCK:   -4.37 KCAL/MOL
REMARK 923 INTER-LIGAND FREE ENERGY PREDICTED BY IDOCK:   -4.34 KCAL/MOL
REMARK 924 INTRA-LIGAND FREE ENERGY PREDICTED BY IDOCK:   -0.04 KCAL/MOL
REMARK 927      BINDING AFFINITY PREDICTED BY RF-SCORE:    0.00 PKD
ROOT
HETATM    1  N   UNL     1      -6.967   6.463  72.342  1.00  0.00    -0.073 N  
HETATM    2  C   UNL     1      -7.580   7.533  72.929  1.00  0.00    -0.088 C  
HETATM    3  H1  UNL     1      -7.029   6.326  71.333  1.00  0.00     0.000 HD 
HETATM    4  H2  UNL     1      -6.444   5.800  72.914  1.00  0.00     0.000 HD 
HETATM    5  O   UNL     1      -7.505   7.698  74.142  1.00  0.00    -0.113 OA 
ENDROOT
BRANCH   2   6
HETATM    6  C   UNL     1      -8.273   8.416  72.022  1.00  0.00    -0.155 A  
HETATM    7  C   UNL     1      -7.781   9.331  71.112  1.00  0.00    -0.052 A  
HETATM    8  C   UNL     1      -8.898   9.895  70.452  1.00  0.00     0.025 A  
HETATM    9  C   UNL     1      -9.084  10.842  69.428  1.00  0.00     0.018 A  
HETATM   10  C   UNL     1     -10.379  11.196  69.001  1.00  0.00    -0.194 A  
HETATM   11  C   UNL     1     -11.466  10.569  69.639  1.00  0.00    -0.349 A  
HETATM   12  O   UNL     1      -9.645   8.409  71.976  1.00  0.00    -0.218 OA 
HETATM   13  C   UNL     1     -10.016   9.308  71.023  1.00  0.00    -0.293 A  
HETATM   14  C   UNL     1     -11.317   9.613  70.656  1.00  0.00    -0.379 A  
BRANCH  10  15
HETATM   15  N   UNL     1     -10.570  12.144  68.016  1.00  0.00    -0.204 NA 
HETATM   16  C   UNL     1     -11.394  11.889  66.825  1.00  0.00    -0.330 C  
HETATM   17  N   UNL     1     -11.677  14.395  66.485  1.00  0.00    -0.383 NA 
HETATM   18  C   UNL     1     -12.354  13.077  66.592  1.00  0.00    -0.061 C  
HETATM   19  C   UNL     1      -9.876  13.444  68.035  1.00  0.00    -0.229 C  
HETATM   20  C   UNL     1     -10.874  14.585  67.719  1.00  0.00    -0.264 C  
BRANCH  17  21
HETATM   21  C   UNL     1     -10.827  14.494  65.288  1.00  0.00    -0.367 C  
BRANCH  21  22
HETATM   22  C   UNL     1     -10.656  15.935  64.788  1.00  0.00    -0.146 C  
BRANCH  22  23
HETATM   23  C   UNL     1      -9.551  16.711  65.509  1.00  0.00     0.175 C  
BRANCH  23  24
HETATM   24  C   UNL     1      -8.430  15.788  65.982  1.00  0.00     0.082 C  
BRANCH  24  25
HETATM   25  C   UNL     1      -7.445  16.488  66.852  1.00  0.00    -0.256 A  
HETATM   26  C   UNL     1      -6.120  16.144  67.031  1.00  0.00     0.033 A  
HETATM   27  N   UNL     1      -5.571  17.021  67.925  1.00  0.00    -0.118 NA 
HETATM   28  H   UNL     1      -4.602  16.998  68.242  1.00  0.00     0.000 HD 
HETATM   29  C   UNL     1      -6.511  17.936  68.336  1.00  0.00    -0.198 A  
HETATM   30  C   UNL     1      -7.697  17.633  67.673  1.00  0.00    -0.211 A  
HETATM   31  C   UNL     1      -8.835  18.439  67.911  1.00  0.00    -0.293 A  
HETATM   32  C   UNL     1      -8.746  19.505  68.816  1.00  0.00    -0.342 A  
HETATM   33  C   UNL     1      -7.542  19.777  69.469  1.00  0.00     0.012 A  
HETATM   34  C   UNL     1      -9.900  20.319  69.070  1.00  0.00     0.083 C  
HETATM   35  N   UNL     1     -10.831  20.981  69.284  1.00  0.00     0.865 NA 
HETATM   36  C   UNL     1      -6.400  18.998  69.240  1.00  0.00    -0.314 A  
ENDBRANCH  24  25
ENDBRANCH  23  24
ENDBRANCH  22  23
ENDBRANCH  21  22
ENDBRANCH  17  21
ENDBRANCH  10  15
ENDBRANCH   2   6
TORSDOF 7
ENDMDL
MODEL      276
REMARK 921   NORMALIZED FREE ENERGY PREDICTED BY IDOCK:   -2.11 KCAL/MOL
REMARK 922        TOTAL FREE ENERGY PREDICTED BY IDOCK:   -4.26 KCAL/MOL
REMARK 923 INTER-LIGAND FREE ENERGY PREDICTED BY IDOCK:   -3.42 KCAL/MOL
REMARK 924 INTRA-LIGAND FREE ENERGY PREDICTED BY IDOCK:   -0.84 KCAL/MOL
REMARK 927      BINDING AFFINITY PREDICTED BY RF-SCORE:    0.00 PKD
ROOT
HETATM    1  N   UNL     1     -12.722  15.819  63.544  1.00  0.00     0.177 N  
HETATM    2  C   UNL     1     -11.711  15.845  64.462  1.00  0.00    -0.161 C  
HETATM    3  H1  UNL     1     -13.031  14.933  63.146  1.00  0.00     0.000 HD 
HETATM    4  H2  UNL     1     -13.168  16.690  63.256  1.00  0.00     0.000 HD 
HETATM    5  O   UNL     1     -11.339  16.911  64.942  1.00  0.00    -0.425 OA 
ENDROOT
BRANCH   2   6
HETATM    6  C   UNL     1     -11.168  14.555  64.812  1.00  0.00    -0.390 A  
HETATM    7  C   UNL     1      -9.951  13.980  64.497  1.00  0.00     0.312 A  
HETATM    8  C   UNL     1      -9.916  12.718  65.135  1.00  0.00    -0.185 A  
HETATM    9  C   UNL     1      -8.982  11.671  65.236  1.00  0.00     0.129 A  
HETATM   10  C   UNL     1      -9.281  10.506  65.968  1.00  0.00    -0.176 A  
HETATM   11  C   UNL     1     -10.544  10.435  66.585  1.00  0.00    -0.245 A  
HETATM   12  O   UNL     1     -11.898  13.693  65.593  1.00  0.00    -0.335 OA 
HETATM   13  C   UNL     1     -11.134  12.583  65.782  1.00  0.00    -0.308 A  
HETATM   14  C   UNL     1     -11.497  11.463  66.515  1.00  0.00    -0.093 A  
BRANCH  10  15
HETATM   15  N   UNL     1      -8.379   9.463  66.048  1.00  0.00    -0.117 NA 
HETATM   16  C   UNL     1      -8.790   8.088  66.370  1.00  0.00    -0.157 C  
HETATM   17  N   UNL     1      -6.652   7.204  65.311  1.00  0.00    -0.046 NA 
HETATM   18  C   UNL     1      -8.133   7.104  65.377  1.00  0.00    -0.137 C  
HETATM   19  C   UNL     1      -6.927   9.673  65.922  1.00  0.00    -0.097 C  
HETATM   20  C   UNL     1      -6.315   8.610  64.977  1.00  0.00    -0.061 C  
BRANCH  17  21
HETATM   21  C   UNL     1      -6.005   6.795  66.568  1.00  0.00    -0.029 C  
BRANCH  21  22
HETATM   22  C   UNL     1      -5.652   5.301  66.606  1.00  0.00    -0.017 C  
BRANCH  22  23
HETATM   23  C   UNL     1      -5.845   4.657  67.981  1.00  0.00    -0.022 C  
BRANCH  23  24
HETATM   24  C   UNL     1      -6.905   3.558  67.945  1.00  0.00    -0.050 C  
BRANCH  24  25
HETATM   25  C   UNL     1      -8.058   3.851  68.841  1.00  0.00    -0.075 A  
HETATM   26  C   UNL     1      -9.335   4.198  68.446  1.00  0.00    -0.155 A  
HETATM   27  N   UNL     1     -10.084   4.407  69.570  1.00  0.00    -0.112 NA 
HETATM   28  H   UNL     1     -11.068   4.678  69.572  1.00  0.00     0.000 HD 
HETATM   29  C   UNL     1      -9.324   4.202  70.697  1.00  0.00    -0.148 A  
HETATM   30  C   UNL     1      -8.048   3.842  70.271  1.00  0.00    -0.056 A  
HETATM   31  C   UNL     1      -7.061   3.562  71.244  1.00  0.00    -0.033 A  
HETATM   32  C   UNL     1      -7.384   3.668  72.603  1.00  0.00    -0.054 A  
HETATM   33  C   UNL     1      -8.673   4.038  72.995  1.00  0.00    -0.100 A  
HETATM   34  C   UNL     1      -6.383   3.395  73.596  1.00  0.00    -0.024 C  
HETATM   35  N   UNL     1      -5.578   3.179  74.404  1.00  0.00     0.000 NA 
HETATM   36  C   UNL     1      -9.669   4.310  72.049  1.00  0.00    -0.227 A  
ENDBRANCH  24  25
ENDBRANCH  23  24
ENDBRANCH  22  23
ENDBRANCH  21  22
ENDBRANCH  17  21
ENDBRANCH  10  15
ENDBRANCH   2   6
TORSDOF 7
ENDMDL
MODEL      277
REMARK 921   NORMALIZED FREE ENERGY PREDICTED BY IDOCK:   -2.09 KCAL/MOL
REMARK 922        TOTAL FREE ENERGY PREDICTED BY IDOCK:   -4.22 KCAL/MOL
REMARK 923 INTER-LIGAND FREE ENERGY PREDICTED BY IDOCK:   -3.48 KCAL/MOL
REMARK 924 INTRA-LIGAND FREE ENERGY PREDICTED BY IDOCK:   -0.74 KCAL/MOL
REMARK 927      BINDING AFFINITY PREDICTED BY RF-SCORE:    0.00 PKD
ROOT
HETATM    1  N   UNL     1      -7.173   5.974  72.024  1.00  0.00    -0.090 N  
HETATM    2  C   UNL     1      -7.657   7.007  72.774  1.00  0.00    -0.084 C  
HETATM    3  H1  UNL     1      -7.339   5.948  71.018  1.00  0.00     0.000 HD 
HETATM    4  H2  UNL     1      -6.644   5.225  72.471  1.00  0.00     0.000 HD 
HETATM    5  O   UNL     1      -7.457   7.038  73.985  1.00  0.00    -0.097 OA 
ENDROOT
BRANCH   2   6
HETATM    6  C   UNL     1      -8.372   8.019  72.036  1.00  0.00    -0.139 A  
HETATM    7  C   UNL     1      -7.923   8.928  71.097  1.00  0.00    -0.181 A  
HETATM    8  C   UNL     1      -9.054   9.657  70.658  1.00  0.00    -0.126 A  
HETATM    9  C   UNL     1      -9.284  10.681  69.722  1.00  0.00     0.242 A  
HETATM   10  C   UNL     1     -10.577  11.208  69.532  1.00  0.00    -0.090 A  
HETATM   11  C   UNL     1     -11.616  10.669  70.314  1.00  0.00    -0.424 A  
HETATM   12  O   UNL     1      -9.725   8.171  72.217  1.00  0.00    -0.203 OA 
HETATM   13  C   UNL     1     -10.129   9.166  71.381  1.00  0.00    -0.322 A  
HETATM   14  C   UNL     1     -11.426   9.639  71.249  1.00  0.00    -0.463 A  
BRANCH  10  15
HETATM   15  N   UNL     1     -10.805  12.232  68.636  1.00  0.00    -0.229 NA 
HETATM   16  C   UNL     1     -11.898  12.191  67.652  1.00  0.00    -0.246 C  
HETATM   17  N   UNL     1     -11.801  14.724  67.440  1.00  0.00    -0.354 NA 
HETATM   18  C   UNL     1     -12.661  13.533  67.665  1.00  0.00     0.534 C  
HETATM   19  C   UNL     1      -9.906  13.394  68.529  1.00  0.00    -0.178 C  
HETATM   20  C   UNL     1     -10.731  14.703  68.468  1.00  0.00    -0.247 C  
BRANCH  17  21
HETATM   21  C   UNL     1     -11.225  14.752  66.086  1.00  0.00    -0.337 C  
BRANCH  21  22
HETATM   22  C   UNL     1      -9.706  14.981  66.081  1.00  0.00    -0.334 C  
BRANCH  22  23
HETATM   23  C   UNL     1      -8.905  13.797  65.536  1.00  0.00     1.413 C  
BRANCH  23  24
HETATM   24  C   UNL     1      -9.791  12.830  64.752  1.00  0.00    -0.055 C  
BRANCH  24  25
HETATM   25  C   UNL     1      -9.294  11.427  64.812  1.00  0.00    -0.118 A  
HETATM   26  C   UNL     1      -9.719  10.374  64.027  1.00  0.00    -0.311 A  
HETATM   27  N   UNL     1      -9.035   9.255  64.413  1.00  0.00    -0.382 NA 
HETATM   28  H   UNL     1      -9.152   8.330  64.001  1.00  0.00     0.000 HD 
HETATM   29  C   UNL     1      -8.167   9.554  65.437  1.00  0.00    -0.127 A  
HETATM   30  C   UNL     1      -8.300  10.914  65.704  1.00  0.00    -0.105 A  
HETATM   31  C   UNL     1      -7.503  11.489  66.721  1.00  0.00    -0.118 A  
HETATM   32  C   UNL     1      -6.616  10.678  67.441  1.00  0.00    -0.071 A  
HETATM   33  C   UNL     1      -6.512   9.315  67.150  1.00  0.00    -0.063 A  
HETATM   34  C   UNL     1      -5.811  11.253  68.481  1.00  0.00    -0.042 C  
HETATM   35  N   UNL     1      -5.159  11.711  69.326  1.00  0.00    -0.048 NA 
HETATM   36  C   UNL     1      -7.284   8.728  66.141  1.00  0.00    -0.085 A  
ENDBRANCH  24  25
ENDBRANCH  23  24
ENDBRANCH  22  23
ENDBRANCH  21  22
ENDBRANCH  17  21
ENDBRANCH  10  15
ENDBRANCH   2   6
TORSDOF 7
ENDMDL
MODEL      278
REMARK 921   NORMALIZED FREE ENERGY PREDICTED BY IDOCK:   -2.05 KCAL/MOL
REMARK 922        TOTAL FREE ENERGY PREDICTED BY IDOCK:   -4.16 KCAL/MOL
REMARK 923 INTER-LIGAND FREE ENERGY PREDICTED BY IDOCK:   -4.01 KCAL/MOL
REMARK 924 INTRA-LIGAND FREE ENERGY PREDICTED BY IDOCK:   -0.16 KCAL/MOL
REMARK 927      BINDING AFFINITY PREDICTED BY RF-SCORE:    0.00 PKD
ROOT
HETATM    1  N   UNL     1     -10.672  17.524  65.540  1.00  0.00    -0.204 N  
HETATM    2  C   UNL     1     -10.963  16.383  64.847  1.00  0.00    -0.263 C  
HETATM    3  H1  UNL     1     -10.040  17.491  66.339  1.00  0.00     0.000 HD 
HETATM    4  H2  UNL     1     -11.088  18.411  65.256  1.00  0.00     0.000 HD 
HETATM    5  O   UNL     1     -11.723  16.422  63.885  1.00  0.00    -1.085 OA 
ENDROOT
BRANCH   2   6
HETATM    6  C   UNL     1     -10.303  15.192  65.322  1.00  0.00    -0.396 A  
HETATM    7  C   UNL     1     -10.408  13.880  64.900  1.00  0.00    -0.430 A  
HETATM    8  C   UNL     1      -9.504  13.123  65.682  1.00  0.00     0.090 A  
HETATM    9  C   UNL     1      -9.117  11.773  65.740  1.00  0.00    -0.088 A  
HETATM   10  C   UNL     1      -8.163  11.336  66.679  1.00  0.00    -0.164 A  
HETATM   11  C   UNL     1      -7.622  12.301  67.550  1.00  0.00    -0.155 A  
HETATM   12  O   UNL     1      -9.395  15.276  66.348  1.00  0.00    -0.253 OA 
HETATM   13  C   UNL     1      -8.917  14.019  66.561  1.00  0.00    -0.092 A  
HETATM   14  C   UNL     1      -7.976  13.659  67.513  1.00  0.00    -0.189 A  
BRANCH  10  15
HETATM   15  N   UNL     1      -7.798  10.007  66.760  1.00  0.00    -0.109 NA 
HETATM   16  C   UNL     1      -6.617   9.557  67.512  1.00  0.00    -0.063 C  
HETATM   17  N   UNL     1      -7.602   7.216  67.657  1.00  0.00    -0.108 NA 
HETATM   18  C   UNL     1      -6.993   8.350  68.399  1.00  0.00    -0.069 C  
HETATM   19  C   UNL     1      -8.506   8.954  66.011  1.00  0.00    -0.129 C  
HETATM   20  C   UNL     1      -8.786   7.741  66.933  1.00  0.00    -0.131 C  
BRANCH  17  21
HETATM   21  C   UNL     1      -6.656   6.583  66.724  1.00  0.00    -0.048 C  
BRANCH  21  22
HETATM   22  C   UNL     1      -5.497   5.869  67.433  1.00  0.00    -0.005 C  
BRANCH  22  23
HETATM   23  C   UNL     1      -5.869   4.494  67.994  1.00  0.00    -0.022 C  
BRANCH  23  24
HETATM   24  C   UNL     1      -5.263   4.266  69.378  1.00  0.00    -0.007 C  
BRANCH  24  25
HETATM   25  C   UNL     1      -6.294   3.955  70.406  1.00  0.00    -0.027 A  
HETATM   26  C   UNL     1      -6.075   3.354  71.630  1.00  0.00    -0.014 A  
HETATM   27  N   UNL     1      -7.280   3.225  72.261  1.00  0.00    -0.045 NA 
HETATM   28  H   UNL     1      -7.413   2.812  73.184  1.00  0.00     0.000 HD 
HETATM   29  C   UNL     1      -8.289   3.732  71.475  1.00  0.00    -0.069 A  
HETATM   30  C   UNL     1      -7.699   4.207  70.307  1.00  0.00    -0.048 A  
HETATM   31  C   UNL     1      -8.523   4.796  69.319  1.00  0.00    -0.087 A  
HETATM   32  C   UNL     1      -9.905   4.872  69.533  1.00  0.00    -0.287 A  
HETATM   33  C   UNL     1     -10.464   4.381  70.715  1.00  0.00     0.193 A  
HETATM   34  C   UNL     1     -10.748   5.460  68.530  1.00  0.00    -0.005 C  
HETATM   35  N   UNL     1     -11.437   5.930  67.722  1.00  0.00     0.552 NA 
HETATM   36  C   UNL     1      -9.666   3.803  71.710  1.00  0.00    -0.245 A  
ENDBRANCH  24  25
ENDBRANCH  23  24
ENDBRANCH  22  23
ENDBRANCH  21  22
ENDBRANCH  17  21
ENDBRANCH  10  15
ENDBRANCH   2   6
TORSDOF 7
ENDMDL
MODEL      279
REMARK 921   NORMALIZED FREE ENERGY PREDICTED BY IDOCK:   -2.03 KCAL/MOL
REMARK 922        TOTAL FREE ENERGY PREDICTED BY IDOCK:   -4.14 KCAL/MOL
REMARK 923 INTER-LIGAND FREE ENERGY PREDICTED BY IDOCK:   -3.49 KCAL/MOL
REMARK 924 INTRA-LIGAND FREE ENERGY PREDICTED BY IDOCK:   -0.65 KCAL/MOL
REMARK 927      BINDING AFFINITY PREDICTED BY RF-SCORE:    0.00 PKD
ROOT
HETATM    1  N   UNL     1      -8.014   1.552  70.886  1.00  0.00    -0.035 N  
HETATM    2  C   UNL     1      -8.375   2.813  71.266  1.00  0.00    -0.062 C  
HETATM    3  H1  UNL     1      -7.846   1.340  69.903  1.00  0.00     0.000 HD 
HETATM    4  H2  UNL     1      -7.912   0.820  71.588  1.00  0.00     0.000 HD 
HETATM    5  O   UNL     1      -8.576   3.068  72.449  1.00  0.00    -0.073 OA 
ENDROOT
BRANCH   2   6
HETATM    6  C   UNL     1      -8.469   3.774  70.193  1.00  0.00    -0.060 A  
HETATM    7  C   UNL     1      -7.771   4.947  69.977  1.00  0.00    -0.059 A  
HETATM    8  C   UNL     1      -8.230   5.477  68.748  1.00  0.00    -0.102 A  
HETATM    9  C   UNL     1      -7.921   6.603  67.965  1.00  0.00    -0.110 A  
HETATM   10  C   UNL     1      -8.599   6.848  66.755  1.00  0.00    -0.120 A  
HETATM   11  C   UNL     1      -9.591   5.927  66.370  1.00  0.00    -0.173 A  
HETATM   12  O   UNL     1      -9.358   3.568  69.167  1.00  0.00    -0.150 OA 
HETATM   13  C   UNL     1      -9.208   4.604  68.298  1.00  0.00    -0.128 A  
HETATM   14  C   UNL     1      -9.918   4.786  67.121  1.00  0.00    -0.224 A  
BRANCH  10  15
HETATM   15  N   UNL     1      -8.320   7.966  65.995  1.00  0.00    -0.121 NA 
HETATM   16  C   UNL     1      -7.016   8.645  66.039  1.00  0.00    -0.079 C  
HETATM   17  N   UNL     1      -7.484   9.689  63.767  1.00  0.00    -0.117 NA 
HETATM   18  C   UNL     1      -6.524   8.921  64.602  1.00  0.00    -0.066 C  
HETATM   19  C   UNL     1      -9.343   8.623  65.164  1.00  0.00     0.239 C  
HETATM   20  C   UNL     1      -8.767   8.944  63.762  1.00  0.00    -0.022 C  
BRANCH  17  21
HETATM   21  C   UNL     1      -7.678  11.064  64.256  1.00  0.00     0.630 C  
BRANCH  21  22
HETATM   22  C   UNL     1      -9.004  11.686  63.794  1.00  0.00     0.332 C  
BRANCH  22  23
HETATM   23  C   UNL     1      -9.883  12.187  64.942  1.00  0.00    -0.173 C  
BRANCH  23  24
HETATM   24  C   UNL     1      -9.053  12.843  66.043  1.00  0.00     0.150 C  
BRANCH  24  25
HETATM   25  C   UNL     1      -9.894  13.367  67.155  1.00  0.00    -0.237 A  
HETATM   26  C   UNL     1     -10.504  12.618  68.143  1.00  0.00    -0.231 A  
HETATM   27  N   UNL     1     -11.202  13.472  68.951  1.00  0.00    -0.263 NA 
HETATM   28  H   UNL     1     -11.750  13.188  69.762  1.00  0.00     0.000 HD 
HETATM   29  C   UNL     1     -11.061  14.768  68.513  1.00  0.00    -0.264 A  
HETATM   30  C   UNL     1     -10.237  14.735  67.392  1.00  0.00    -0.236 A  
HETATM   31  C   UNL     1      -9.919  15.952  66.745  1.00  0.00    -0.255 A  
HETATM   32  C   UNL     1     -10.451  17.151  67.236  1.00  0.00    -0.313 A  
HETATM   33  C   UNL     1     -11.280  17.147  68.361  1.00  0.00     0.036 A  
HETATM   34  C   UNL     1     -10.141  18.389  66.578  1.00  0.00    -0.388 C  
HETATM   35  N   UNL     1      -9.898  19.394  66.049  1.00  0.00    -0.425 NA 
HETATM   36  C   UNL     1     -11.599  15.955  69.022  1.00  0.00    -0.392 A  
ENDBRANCH  24  25
ENDBRANCH  23  24
ENDBRANCH  22  23
ENDBRANCH  21  22
ENDBRANCH  17  21
ENDBRANCH  10  15
ENDBRANCH   2   6
TORSDOF 7
ENDMDL
MODEL      280
REMARK 921   NORMALIZED FREE ENERGY PREDICTED BY IDOCK:   -2.03 KCAL/MOL
REMARK 922        TOTAL FREE ENERGY PREDICTED BY IDOCK:   -4.14 KCAL/MOL
REMARK 923 INTER-LIGAND FREE ENERGY PREDICTED BY IDOCK:   -5.28 KCAL/MOL
REMARK 924 INTRA-LIGAND FREE ENERGY PREDICTED BY IDOCK:    1.14 KCAL/MOL
REMARK 927      BINDING AFFINITY PREDICTED BY RF-SCORE:    0.00 PKD
ROOT
HETATM    1  N   UNL     1     -10.663   7.341  74.257  1.00  0.00    -0.064 N  
HETATM    2  C   UNL     1     -11.220   7.546  73.027  1.00  0.00    -0.322 C  
HETATM    3  H1  UNL     1      -9.654   7.413  74.383  1.00  0.00     0.000 HD 
HETATM    4  H2  UNL     1     -11.260   7.116  75.054  1.00  0.00     0.000 HD 
HETATM    5  O   UNL     1     -12.434   7.460  72.876  1.00  0.00     0.285 OA 
ENDROOT
BRANCH   2   6
HETATM    6  C   UNL     1     -10.285   7.878  71.979  1.00  0.00    -0.211 A  
HETATM    7  C   UNL     1     -10.502   8.178  70.648  1.00  0.00    -0.224 A  
HETATM    8  C   UNL     1      -9.239   8.471  70.082  1.00  0.00    -0.159 A  
HETATM    9  C   UNL     1      -8.775   8.863  68.813  1.00  0.00    -0.137 A  
HETATM   10  C   UNL     1      -7.401   9.069  68.579  1.00  0.00    -0.077 A  
HETATM   11  C   UNL     1      -6.523   8.864  69.660  1.00  0.00    -0.042 A  
HETATM   12  O   UNL     1      -8.942   7.946  72.256  1.00  0.00    -0.130 OA 
HETATM   13  C   UNL     1      -8.315   8.304  71.102  1.00  0.00    -0.129 A  
HETATM   14  C   UNL     1      -6.950   8.485  70.942  1.00  0.00    -0.057 A  
BRANCH  10  15
HETATM   15  N   UNL     1      -6.937   9.427  67.330  1.00  0.00    -0.084 NA 
HETATM   16  C   UNL     1      -6.987  10.811  66.836  1.00  0.00    -0.109 C  
HETATM   17  N   UNL     1      -5.158  10.275  65.151  1.00  0.00    -0.067 NA 
HETATM   18  C   UNL     1      -5.623  11.194  66.222  1.00  0.00    -0.149 C  
HETATM   19  C   UNL     1      -6.454   8.429  66.359  1.00  0.00    -0.058 C  
HETATM   20  C   UNL     1      -5.125   8.906  65.722  1.00  0.00    -0.029 C  
BRANCH  17  21
HETATM   21  C   UNL     1      -6.017  10.324  63.957  1.00  0.00    -0.132 C  
BRANCH  21  22
HETATM   22  C   UNL     1      -6.395   8.933  63.429  1.00  0.00    -0.089 C  
BRANCH  22  23
HETATM   23  C   UNL     1      -7.602   8.312  64.135  1.00  0.00    -0.127 C  
BRANCH  23  24
HETATM   24  C   UNL     1      -8.903   8.603  63.390  1.00  0.00     0.244 C  
BRANCH  24  25
HETATM   25  C   UNL     1      -9.240  10.054  63.379  1.00  0.00    -0.317 A  
HETATM   26  C   UNL     1      -8.943  10.956  62.377  1.00  0.00    -0.309 A  
HETATM   27  N   UNL     1      -9.400  12.185  62.765  1.00  0.00    -0.277 NA 
HETATM   28  H   UNL     1      -9.312  13.039  62.214  1.00  0.00     0.000 HD 
HETATM   29  C   UNL     1      -9.993  12.107  64.003  1.00  0.00    -0.274 A  
HETATM   30  C   UNL     1      -9.916  10.778  64.411  1.00  0.00    -0.400 A  
HETATM   31  C   UNL     1     -10.468  10.418  65.663  1.00  0.00    -0.185 A  
HETATM   32  C   UNL     1     -11.060  11.404  66.463  1.00  0.00    -0.312 A  
HETATM   33  C   UNL     1     -11.115  12.729  66.025  1.00  0.00    -0.315 A  
HETATM   34  C   UNL     1     -11.613  11.047  67.739  1.00  0.00    -0.194 C  
HETATM   35  N   UNL     1     -12.059  10.766  68.774  1.00  0.00    -0.436 NA 
HETATM   36  C   UNL     1     -10.583  13.106  64.785  1.00  0.00    -0.390 A  
ENDBRANCH  24  25
ENDBRANCH  23  24
ENDBRANCH  22  23
ENDBRANCH  21  22
ENDBRANCH  17  21
ENDBRANCH  10  15
ENDBRANCH   2   6
TORSDOF 7
ENDMDL
MODEL      281
REMARK 921   NORMALIZED FREE ENERGY PREDICTED BY IDOCK:   -1.97 KCAL/MOL
REMARK 922        TOTAL FREE ENERGY PREDICTED BY IDOCK:   -4.05 KCAL/MOL
REMARK 923 INTER-LIGAND FREE ENERGY PREDICTED BY IDOCK:   -4.24 KCAL/MOL
REMARK 924 INTRA-LIGAND FREE ENERGY PREDICTED BY IDOCK:    0.19 KCAL/MOL
REMARK 927      BINDING AFFINITY PREDICTED BY RF-SCORE:    0.00 PKD
ROOT
HETATM    1  N   UNL     1      -8.926   2.297  62.394  1.00  0.00    -0.074 N  
HETATM    2  C   UNL     1      -7.993   2.432  63.382  1.00  0.00    -0.072 C  
HETATM    3  H1  UNL     1      -9.493   3.096  62.111  1.00  0.00     0.000 HD 
HETATM    4  H2  UNL     1      -9.056   1.394  61.938  1.00  0.00     0.000 HD 
HETATM    5  O   UNL     1      -7.311   1.470  63.723  1.00  0.00    -0.045 OA 
ENDROOT
BRANCH   2   6
HETATM    6  C   UNL     1      -7.880   3.756  63.943  1.00  0.00    -0.084 A  
HETATM    7  C   UNL     1      -8.847   4.594  64.465  1.00  0.00    -0.153 A  
HETATM    8  C   UNL     1      -8.182   5.758  64.917  1.00  0.00    -0.137 A  
HETATM    9  C   UNL     1      -8.569   6.952  65.552  1.00  0.00    -0.087 A  
HETATM   10  C   UNL     1      -7.620   7.944  65.863  1.00  0.00    -0.083 A  
HETATM   11  C   UNL     1      -6.280   7.692  65.512  1.00  0.00    -0.038 A  
HETATM   12  O   UNL     1      -6.650   4.361  64.026  1.00  0.00    -0.040 OA 
HETATM   13  C   UNL     1      -6.842   5.573  64.615  1.00  0.00    -0.048 A  
HETATM   14  C   UNL     1      -5.855   6.508  64.888  1.00  0.00    -0.030 A  
BRANCH  10  15
HETATM   15  N   UNL     1      -7.998   9.130  66.461  1.00  0.00    -0.100 NA 
HETATM   16  C   UNL     1      -7.041  10.000  67.161  1.00  0.00    -0.089 C  
HETATM   17  N   UNL     1      -8.626  11.969  66.879  1.00  0.00    -0.187 NA 
HETATM   18  C   UNL     1      -7.240  11.463  66.708  1.00  0.00    -0.131 C  
HETATM   19  C   UNL     1      -9.406   9.556  66.533  1.00  0.00    -0.171 C  
HETATM   20  C   UNL     1      -9.530  11.050  66.143  1.00  0.00    -0.203 C  
BRANCH  17  21
HETATM   21  C   UNL     1      -9.019  12.067  68.294  1.00  0.00    -0.186 C  
BRANCH  21  22
HETATM   22  C   UNL     1     -10.537  11.988  68.505  1.00  0.00    -0.252 C  
BRANCH  22  23
HETATM   23  C   UNL     1     -11.350  12.679  67.407  1.00  0.00    -0.367 C  
BRANCH  23  24
HETATM   24  C   UNL     1     -11.589  14.154  67.726  1.00  0.00    -0.379 C  
BRANCH  24  25
HETATM   25  C   UNL     1     -11.184  15.050  66.607  1.00  0.00    -0.311 A  
HETATM   26  C   UNL     1     -10.983  14.679  65.293  1.00  0.00    -0.367 A  
HETATM   27  N   UNL     1     -10.596  15.788  64.593  1.00  0.00    -0.722 NA 
HETATM   28  H   UNL     1     -10.379  15.802  63.597  1.00  0.00     0.000 HD 
HETATM   29  C   UNL     1     -10.541  16.883  65.424  1.00  0.00    -0.162 A  
HETATM   30  C   UNL     1     -10.914  16.452  66.695  1.00  0.00     0.024 A  
HETATM   31  C   UNL     1     -10.951  17.395  67.749  1.00  0.00    -0.142 A  
HETATM   32  C   UNL     1     -10.599  18.727  67.493  1.00  0.00    -0.497 A  
HETATM   33  C   UNL     1     -10.224  19.123  66.207  1.00  0.00    -0.527 A  
HETATM   34  C   UNL     1     -10.625  19.686  68.561  1.00  0.00    -0.035 C  
HETATM   35  N   UNL     1     -10.639  20.467  69.420  1.00  0.00     0.315 NA 
HETATM   36  C   UNL     1     -10.190  18.208  65.147  1.00  0.00     1.144 A  
ENDBRANCH  24  25
ENDBRANCH  23  24
ENDBRANCH  22  23
ENDBRANCH  21  22
ENDBRANCH  17  21
ENDBRANCH  10  15
ENDBRANCH   2   6
TORSDOF 7
ENDMDL
MODEL      282
REMARK 921   NORMALIZED FREE ENERGY PREDICTED BY IDOCK:   -1.94 KCAL/MOL
REMARK 922        TOTAL FREE ENERGY PREDICTED BY IDOCK:   -4.01 KCAL/MOL
REMARK 923 INTER-LIGAND FREE ENERGY PREDICTED BY IDOCK:   -4.19 KCAL/MOL
REMARK 924 INTRA-LIGAND FREE ENERGY PREDICTED BY IDOCK:    0.18 KCAL/MOL
REMARK 927      BINDING AFFINITY PREDICTED BY RF-SCORE:    0.00 PKD
ROOT
HETATM    1  N   UNL     1     -10.867   2.483  63.563  1.00  0.00    -0.380 N  
HETATM    2  C   UNL     1      -9.628   2.406  64.131  1.00  0.00    -0.141 C  
HETATM    3  H1  UNL     1     -11.491   3.256  63.794  1.00  0.00     0.000 HD 
HETATM    4  H2  UNL     1     -11.169   1.766  62.904  1.00  0.00     0.000 HD 
HETATM    5  O   UNL     1      -8.877   1.477  63.852  1.00  0.00    -0.080 OA 
ENDROOT
BRANCH   2   6
HETATM    6  C   UNL     1      -9.297   3.485  65.030  1.00  0.00    -0.155 A  
HETATM    7  C   UNL     1      -8.155   3.714  65.774  1.00  0.00    -0.093 A  
HETATM    8  C   UNL     1      -8.343   4.944  66.447  1.00  0.00    -0.107 A  
HETATM    9  C   UNL     1      -7.575   5.737  67.318  1.00  0.00    -0.096 A  
HETATM   10  C   UNL     1      -8.085   6.945  67.833  1.00  0.00    -0.114 A  
HETATM   11  C   UNL     1      -9.386   7.317  67.442  1.00  0.00    -0.148 A  
HETATM   12  O   UNL     1     -10.194   4.504  65.234  1.00  0.00    -0.206 OA 
HETATM   13  C   UNL     1      -9.610   5.382  66.095  1.00  0.00    -0.153 A  
HETATM   14  C   UNL     1     -10.176   6.557  66.566  1.00  0.00    -0.134 A  
BRANCH  10  15
HETATM   15  N   UNL     1      -7.348   7.714  68.710  1.00  0.00    -0.089 NA 
HETATM   16  C   UNL     1      -7.974   8.637  69.669  1.00  0.00    -0.096 C  
HETATM   17  N   UNL     1      -5.867   8.585  71.094  1.00  0.00    -0.034 NA 
HETATM   18  C   UNL     1      -7.346   8.441  71.066  1.00  0.00    -0.069 C  
HETATM   19  C   UNL     1      -5.876   7.746  68.677  1.00  0.00    -0.031 C  
HETATM   20  C   UNL     1      -5.307   7.623  70.112  1.00  0.00    -0.023 C  
BRANCH  17  21
HETATM   21  C   UNL     1      -5.431   9.957  70.790  1.00  0.00    -0.061 C  
BRANCH  21  22
HETATM   22  C   UNL     1      -6.564  10.846  70.259  1.00  0.00    -0.065 C  
BRANCH  22  23
HETATM   23  C   UNL     1      -6.097  11.914  69.266  1.00  0.00    -0.086 C  
BRANCH  23  24
HETATM   24  C   UNL     1      -6.936  13.186  69.369  1.00  0.00     0.097 C  
BRANCH  24  25
HETATM   25  C   UNL     1      -8.020  13.237  68.350  1.00  0.00    -0.132 A  
HETATM   26  C   UNL     1      -8.128  14.145  67.315  1.00  0.00    -0.168 A  
HETATM   27  N   UNL     1      -9.276  13.866  66.625  1.00  0.00    -0.362 NA 
HETATM   28  H   UNL     1      -9.605  14.383  65.810  1.00  0.00     0.000 HD 
HETATM   29  C   UNL     1      -9.922  12.791  67.187  1.00  0.00    -0.218 A  
HETATM   30  C   UNL     1      -9.153  12.368  68.267  1.00  0.00    -0.183 A  
HETATM   31  C   UNL     1      -9.594  11.256  69.022  1.00  0.00    -0.048 A  
HETATM   32  C   UNL     1     -10.794  10.622  68.677  1.00  0.00    -0.266 A  
HETATM   33  C   UNL     1     -11.545  11.076  67.590  1.00  0.00    -0.228 A  
HETATM   34  C   UNL     1     -11.252   9.499  69.446  1.00  0.00    -0.035 C  
HETATM   35  N   UNL     1     -11.631   8.593  70.065  1.00  0.00     0.062 NA 
HETATM   36  C   UNL     1     -11.122  12.169  66.823  1.00  0.00    -0.349 A  
ENDBRANCH  24  25
ENDBRANCH  23  24
ENDBRANCH  22  23
ENDBRANCH  21  22
ENDBRANCH  17  21
ENDBRANCH  10  15
ENDBRANCH   2   6
TORSDOF 7
ENDMDL
MODEL      283
REMARK 921   NORMALIZED FREE ENERGY PREDICTED BY IDOCK:   -1.83 KCAL/MOL
REMARK 922        TOTAL FREE ENERGY PREDICTED BY IDOCK:   -3.86 KCAL/MOL
REMARK 923 INTER-LIGAND FREE ENERGY PREDICTED BY IDOCK:   -3.47 KCAL/MOL
REMARK 924 INTRA-LIGAND FREE ENERGY PREDICTED BY IDOCK:   -0.39 KCAL/MOL
REMARK 927      BINDING AFFINITY PREDICTED BY RF-SCORE:    0.00 PKD
ROOT
HETATM    1  N   UNL     1     -10.879   3.497  73.716  1.00  0.00    -0.220 N  
HETATM    2  C   UNL     1      -9.572   3.293  73.379  1.00  0.00    -0.103 C  
HETATM    3  H1  UNL     1     -11.427   4.212  73.239  1.00  0.00     0.000 HD 
HETATM    4  H2  UNL     1     -11.310   2.931  74.447  1.00  0.00     0.000 HD 
HETATM    5  O   UNL     1      -8.913   2.432  73.953  1.00  0.00    -0.073 OA 
ENDROOT
BRANCH   2   6
HETATM    6  C   UNL     1      -9.074   4.134  72.318  1.00  0.00    -0.116 A  
HETATM    7  C   UNL     1      -9.728   5.055  71.522  1.00  0.00    -0.227 A  
HETATM    8  C   UNL     1      -8.753   5.630  70.673  1.00  0.00    -0.138 A  
HETATM    9  C   UNL     1      -8.753   6.619  69.673  1.00  0.00    -0.140 A  
HETATM   10  C   UNL     1      -7.567   6.955  68.992  1.00  0.00    -0.104 A  
HETATM   11  C   UNL     1      -6.395   6.263  69.351  1.00  0.00    -0.035 A  
HETATM   12  O   UNL     1      -7.743   4.094  71.981  1.00  0.00    -0.071 OA 
HETATM   13  C   UNL     1      -7.558   5.001  70.983  1.00  0.00    -0.082 A  
HETATM   14  C   UNL     1      -6.356   5.278  70.351  1.00  0.00    -0.027 A  
BRANCH  10  15
HETATM   15  N   UNL     1      -7.565   7.905  67.990  1.00  0.00    -0.110 NA 
HETATM   16  C   UNL     1      -6.583   8.998  67.942  1.00  0.00    -0.060 C  
HETATM   17  N   UNL     1      -7.026   9.286  65.453  1.00  0.00    -0.083 NA 
HETATM   18  C   UNL     1      -6.002   9.113  66.516  1.00  0.00    -0.059 C  
HETATM   19  C   UNL     1      -8.613   7.955  66.956  1.00  0.00    -0.128 C  
HETATM   20  C   UNL     1      -7.973   8.148  65.558  1.00  0.00    -0.112 C  
BRANCH  17  21
HETATM   21  C   UNL     1      -7.736  10.570  65.561  1.00  0.00    -0.127 C  
BRANCH  21  22
HETATM   22  C   UNL     1      -6.852  11.705  66.099  1.00  0.00     0.379 C  
BRANCH  22  23
HETATM   23  C   UNL     1      -7.389  12.350  67.379  1.00  0.00    -0.149 C  
BRANCH  23  24
HETATM   24  C   UNL     1      -7.274  13.873  67.333  1.00  0.00    -0.113 C  
BRANCH  24  25
HETATM   25  C   UNL     1      -8.099  14.537  68.379  1.00  0.00    -0.143 A  
HETATM   26  C   UNL     1      -8.200  14.161  69.704  1.00  0.00     0.675 A  
HETATM   27  N   UNL     1      -9.076  15.010  70.320  1.00  0.00    -0.045 NA 
HETATM   28  H   UNL     1      -9.340  14.961  71.304  1.00  0.00     0.000 HD 
HETATM   29  C   UNL     1      -9.553  15.939  69.425  1.00  0.00    -0.265 A  
HETATM   30  C   UNL     1      -8.950  15.673  68.199  1.00  0.00    -0.179 A  
HETATM   31  C   UNL     1      -9.263  16.499  67.094  1.00  0.00    -0.226 A  
HETATM   32  C   UNL     1     -10.178  17.547  67.256  1.00  0.00    -0.335 A  
HETATM   33  C   UNL     1     -10.769  17.782  68.499  1.00  0.00    -0.148 A  
HETATM   34  C   UNL     1     -10.507  18.383  66.135  1.00  0.00    -0.395 C  
HETATM   35  N   UNL     1     -10.782  19.060  65.233  1.00  0.00    -0.408 NA 
HETATM   36  C   UNL     1     -10.466  16.983  69.609  1.00  0.00    -0.099 A  
ENDBRANCH  24  25
ENDBRANCH  23  24
ENDBRANCH  22  23
ENDBRANCH  21  22
ENDBRANCH  17  21
ENDBRANCH  10  15
ENDBRANCH   2   6
TORSDOF 7
ENDMDL
MODEL      284
REMARK 921   NORMALIZED FREE ENERGY PREDICTED BY IDOCK:   -1.80 KCAL/MOL
REMARK 922        TOTAL FREE ENERGY PREDICTED BY IDOCK:   -3.81 KCAL/MOL
REMARK 923 INTER-LIGAND FREE ENERGY PREDICTED BY IDOCK:   -3.89 KCAL/MOL
REMARK 924 INTRA-LIGAND FREE ENERGY PREDICTED BY IDOCK:    0.08 KCAL/MOL
REMARK 927      BINDING AFFINITY PREDICTED BY RF-SCORE:    0.00 PKD
ROOT
HETATM    1  N   UNL     1      -8.539   3.213  66.894  1.00  0.00    -0.107 N  
HETATM    2  C   UNL     1      -7.971   4.212  67.631  1.00  0.00    -0.091 C  
HETATM    3  H1  UNL     1      -9.280   3.425  66.226  1.00  0.00     0.000 HD 
HETATM    4  H2  UNL     1      -8.222   2.251  67.012  1.00  0.00     0.000 HD 
HETATM    5  O   UNL     1      -7.079   3.956  68.434  1.00  0.00    -0.050 OA 
ENDROOT
BRANCH   2   6
HETATM    6  C   UNL     1      -8.482   5.535  67.368  1.00  0.00    -0.109 A  
HETATM    7  C   UNL     1      -8.633   6.216  66.175  1.00  0.00    -0.141 A  
HETATM    8  C   UNL     1      -9.224   7.464  66.487  1.00  0.00    -0.206 A  
HETATM    9  C   UNL     1      -9.652   8.582  65.749  1.00  0.00    -0.068 A  
HETATM   10  C   UNL     1     -10.207   9.703  66.396  1.00  0.00    -0.217 A  
HETATM   11  C   UNL     1     -10.311   9.655  67.800  1.00  0.00    -0.286 A  
HETATM   12  O   UNL     1      -8.926   6.316  68.406  1.00  0.00    -0.118 OA 
HETATM   13  C   UNL     1      -9.372   7.482  67.865  1.00  0.00    -0.138 A  
HETATM   14  C   UNL     1      -9.905   8.552  68.567  1.00  0.00    -0.186 A  
BRANCH  10  15
HETATM   15  N   UNL     1     -10.603  10.816  65.682  1.00  0.00    -0.178 NA 
HETATM   16  C   UNL     1     -10.323  10.972  64.246  1.00  0.00    -0.364 C  
HETATM   17  N   UNL     1     -12.213  12.666  64.063  1.00  0.00    -0.464 NA 
HETATM   18  C   UNL     1     -11.604  11.427  63.513  1.00  0.00    -0.026 C  
HETATM   19  C   UNL     1     -11.243  11.975  66.328  1.00  0.00    -0.342 C  
HETATM   20  C   UNL     1     -12.473  12.432  65.505  1.00  0.00    -0.009 C  
BRANCH  17  21
HETATM   21  C   UNL     1     -11.355  13.846  63.871  1.00  0.00     0.061 C  
BRANCH  21  22
HETATM   22  C   UNL     1     -10.721  14.350  65.175  1.00  0.00    -0.413 C  
BRANCH  22  23
HETATM   23  C   UNL     1     -10.121  15.753  65.067  1.00  0.00    -0.025 C  
BRANCH  23  24
HETATM   24  C   UNL     1      -8.803  15.864  65.833  1.00  0.00    -0.168 C  
BRANCH  24  25
HETATM   25  C   UNL     1      -8.832  16.940  66.862  1.00  0.00    -0.248 A  
HETATM   26  C   UNL     1      -8.070  18.091  66.864  1.00  0.00    -0.236 A  
HETATM   27  N   UNL     1      -8.376  18.800  67.992  1.00  0.00    -0.281 NA 
HETATM   28  H   UNL     1      -7.958  19.694  68.249  1.00  0.00     0.000 HD 
HETATM   29  C   UNL     1      -9.327  18.137  68.731  1.00  0.00    -0.247 A  
HETATM   30  C   UNL     1      -9.640  16.968  68.042  1.00  0.00    -0.260 A  
HETATM   31  C   UNL     1     -10.612  16.097  68.587  1.00  0.00    -0.283 A  
HETATM   32  C   UNL     1     -11.219  16.421  69.807  1.00  0.00    -0.252 A  
HETATM   33  C   UNL     1     -10.877  17.599  70.475  1.00  0.00     1.526 A  
HETATM   34  C   UNL     1     -12.199  15.536  70.371  1.00  0.00    -0.406 C  
HETATM   35  N   UNL     1     -12.989  14.823  70.835  1.00  0.00    -0.353 NA 
HETATM   36  C   UNL     1      -9.925  18.481  69.948  1.00  0.00     0.795 A  
ENDBRANCH  24  25
ENDBRANCH  23  24
ENDBRANCH  22  23
ENDBRANCH  21  22
ENDBRANCH  17  21
ENDBRANCH  10  15
ENDBRANCH   2   6
TORSDOF 7
ENDMDL
MODEL      285
REMARK 921   NORMALIZED FREE ENERGY PREDICTED BY IDOCK:   -1.74 KCAL/MOL
REMARK 922        TOTAL FREE ENERGY PREDICTED BY IDOCK:   -3.73 KCAL/MOL
REMARK 923 INTER-LIGAND FREE ENERGY PREDICTED BY IDOCK:   -4.12 KCAL/MOL
REMARK 924 INTRA-LIGAND FREE ENERGY PREDICTED BY IDOCK:    0.39 KCAL/MOL
REMARK 927      BINDING AFFINITY PREDICTED BY RF-SCORE:    0.00 PKD
ROOT
HETATM    1  N   UNL     1      -5.299  14.160  72.131  1.00  0.00    -0.206 N  
HETATM    2  C   UNL     1      -5.892  14.227  70.903  1.00  0.00    -0.210 C  
HETATM    3  H1  UNL     1      -4.938  13.272  72.479  1.00  0.00     0.000 HD 
HETATM    4  H2  UNL     1      -5.217  15.000  72.703  1.00  0.00     0.000 HD 
HETATM    5  O   UNL     1      -6.327  15.296  70.485  1.00  0.00    -0.060 OA 
ENDROOT
BRANCH   2   6
HETATM    6  C   UNL     1      -5.934  12.983  70.173  1.00  0.00    -0.135 A  
HETATM    7  C   UNL     1      -6.510  11.771  70.501  1.00  0.00     0.530 A  
HETATM    8  C   UNL     1      -6.293  10.903  69.406  1.00  0.00    -0.070 A  
HETATM    9  C   UNL     1      -6.634   9.574  69.096  1.00  0.00    -0.049 A  
HETATM   10  C   UNL     1      -6.236   8.992  67.877  1.00  0.00    -0.051 A  
HETATM   11  C   UNL     1      -5.486   9.791  66.993  1.00  0.00    -0.046 A  
HETATM   12  O   UNL     1      -5.346  12.896  68.936  1.00  0.00    -0.066 OA 
HETATM   13  C   UNL     1      -5.565  11.633  68.479  1.00  0.00    -0.045 A  
HETATM   14  C   UNL     1      -5.137  11.123  67.263  1.00  0.00    -0.047 A  
BRANCH  10  15
HETATM   15  N   UNL     1      -6.544   7.680  67.579  1.00  0.00    -0.061 NA 
HETATM   16  C   UNL     1      -7.277   7.298  66.363  1.00  0.00    -0.079 C  
HETATM   17  N   UNL     1      -6.359   4.933  66.552  1.00  0.00    -0.039 NA 
HETATM   18  C   UNL     1      -6.563   6.115  65.675  1.00  0.00    -0.047 C  
HETATM   19  C   UNL     1      -6.253   6.576  68.511  1.00  0.00    -0.030 C  
HETATM   20  C   UNL     1      -5.610   5.391  67.749  1.00  0.00    -0.012 C  
BRANCH  17  21
HETATM   21  C   UNL     1      -7.627   4.297  66.941  1.00  0.00    -0.081 C  
BRANCH  21  22
HETATM   22  C   UNL     1      -8.186   4.827  68.269  1.00  0.00    -0.088 C  
BRANCH  22  23
HETATM   23  C   UNL     1      -9.574   4.282  68.615  1.00  0.00    -0.210 C  
BRANCH  23  24
HETATM   24  C   UNL     1      -9.592   3.618  69.990  1.00  0.00    -0.244 C  
BRANCH  24  25
HETATM   25  C   UNL     1      -9.186   4.550  71.078  1.00  0.00    -0.200 A  
HETATM   26  C   UNL     1      -7.974   4.560  71.738  1.00  0.00    -0.097 A  
HETATM   27  N   UNL     1      -8.012   5.550  72.680  1.00  0.00    -0.102 NA 
HETATM   28  H   UNL     1      -7.247   5.779  73.315  1.00  0.00     0.000 HD 
HETATM   29  C   UNL     1      -9.227   6.193  72.650  1.00  0.00    -0.140 A  
HETATM   30  C   UNL     1      -9.983   5.593  71.647  1.00  0.00    -0.222 A  
HETATM   31  C   UNL     1     -11.288   6.079  71.396  1.00  0.00    -0.301 A  
HETATM   32  C   UNL     1     -11.790   7.133  72.170  1.00  0.00    -0.315 A  
HETATM   33  C   UNL     1     -11.005   7.708  73.173  1.00  0.00    -0.411 A  
HETATM   34  C   UNL     1     -13.117   7.624  71.928  1.00  0.00    -0.259 C  
HETATM   35  N   UNL     1     -14.192   8.023  71.741  1.00  0.00    -0.432 NA 
HETATM   36  C   UNL     1      -9.707   7.250  73.430  1.00  0.00    -0.297 A  
ENDBRANCH  24  25
ENDBRANCH  23  24
ENDBRANCH  22  23
ENDBRANCH  21  22
ENDBRANCH  17  21
ENDBRANCH  10  15
ENDBRANCH   2   6
TORSDOF 7
ENDMDL
MODEL      286
REMARK 921   NORMALIZED FREE ENERGY PREDICTED BY IDOCK:   -1.36 KCAL/MOL
REMARK 922        TOTAL FREE ENERGY PREDICTED BY IDOCK:   -3.20 KCAL/MOL
REMARK 923 INTER-LIGAND FREE ENERGY PREDICTED BY IDOCK:   -3.98 KCAL/MOL
REMARK 924 INTRA-LIGAND FREE ENERGY PREDICTED BY IDOCK:    0.78 KCAL/MOL
REMARK 927      BINDING AFFINITY PREDICTED BY RF-SCORE:    0.00 PKD
ROOT
HETATM    1  N   UNL     1      -5.979  14.561  71.440  1.00  0.00    -0.072 N  
HETATM    2  C   UNL     1      -6.475  14.639  70.170  1.00  0.00    -0.166 C  
HETATM    3  H1  UNL     1      -5.574  13.690  71.781  1.00  0.00     0.000 HD 
HETATM    4  H2  UNL     1      -6.014  15.378  72.050  1.00  0.00     0.000 HD 
HETATM    5  O   UNL     1      -6.963  15.688  69.761  1.00  0.00    -0.183 OA 
ENDROOT
BRANCH   2   6
HETATM    6  C   UNL     1      -6.354  13.432  69.390  1.00  0.00    -0.111 A  
HETATM    7  C   UNL     1      -6.808  12.152  69.643  1.00  0.00     0.111 A  
HETATM    8  C   UNL     1      -6.455  11.361  68.524  1.00  0.00    -0.056 A  
HETATM    9  C   UNL     1      -6.639  10.019  68.147  1.00  0.00    -0.055 A  
HETATM   10  C   UNL     1      -6.133   9.538  66.924  1.00  0.00    -0.064 A  
HETATM   11  C   UNL     1      -5.440  10.450  66.106  1.00  0.00    -0.068 A  
HETATM   12  O   UNL     1      -5.711  13.463  68.177  1.00  0.00    -0.087 OA 
HETATM   13  C   UNL     1      -5.776  12.205  67.660  1.00  0.00    -0.101 A  
HETATM   14  C   UNL     1      -5.247  11.799  66.444  1.00  0.00     0.081 A  
BRANCH  10  15
HETATM   15  N   UNL     1      -6.285   8.215  66.560  1.00  0.00    -0.049 NA 
HETATM   16  C   UNL     1      -6.473   7.798  65.162  1.00  0.00    -0.041 C  
HETATM   17  N   UNL     1      -5.683   5.454  65.756  1.00  0.00    -0.014 NA 
HETATM   18  C   UNL     1      -5.534   6.615  64.841  1.00  0.00    -0.026 C  
HETATM   19  C   UNL     1      -6.377   7.134  67.557  1.00  0.00    -0.047 C  
HETATM   20  C   UNL     1      -5.474   5.947  67.140  1.00  0.00    -0.005 C  
BRANCH  17  21
HETATM   21  C   UNL     1      -6.996   4.801  65.626  1.00  0.00    -0.063 C  
BRANCH  21  22
HETATM   22  C   UNL     1      -8.045   5.358  66.599  1.00  0.00    -0.105 C  
BRANCH  22  23
HETATM   23  C   UNL     1      -9.448   4.784  66.388  1.00  0.00    -0.159 C  
BRANCH  23  24
HETATM   24  C   UNL     1     -10.024   4.212  67.683  1.00  0.00    -0.049 C  
BRANCH  24  25
HETATM   25  C   UNL     1     -10.151   5.241  68.752  1.00  0.00    -0.248 A  
HETATM   26  C   UNL     1     -10.280   5.003  70.106  1.00  0.00    -0.259 A  
HETATM   27  N   UNL     1     -10.394   6.209  70.739  1.00  0.00    -0.204 NA 
HETATM   28  H   UNL     1     -10.503   6.330  71.746  1.00  0.00     0.000 HD 
HETATM   29  C   UNL     1     -10.340   7.236  69.826  1.00  0.00    -0.220 A  
HETATM   30  C   UNL     1     -10.178   6.660  68.569  1.00  0.00    -0.185 A  
HETATM   31  C   UNL     1     -10.083   7.506  67.440  1.00  0.00    -0.282 A  
HETATM   32  C   UNL     1     -10.169   8.894  67.611  1.00  0.00    -0.296 A  
HETATM   33  C   UNL     1     -10.337   9.438  68.886  1.00  0.00    -0.230 A  
HETATM   34  C   UNL     1     -10.083   9.757  66.467  1.00  0.00    -0.239 C  
HETATM   35  N   UNL     1     -10.019  10.463  65.547  1.00  0.00    -0.267 NA 
HETATM   36  C   UNL     1     -10.424   8.620  70.019  1.00  0.00    -0.229 A  
ENDBRANCH  24  25
ENDBRANCH  23  24
ENDBRANCH  22  23
ENDBRANCH  21  22
ENDBRANCH  17  21
ENDBRANCH  10  15
ENDBRANCH   2   6
TORSDOF 7
ENDMDL
MODEL      287
REMARK 921   NORMALIZED FREE ENERGY PREDICTED BY IDOCK:   -1.18 KCAL/MOL
REMARK 922        TOTAL FREE ENERGY PREDICTED BY IDOCK:   -2.94 KCAL/MOL
REMARK 923 INTER-LIGAND FREE ENERGY PREDICTED BY IDOCK:   -1.97 KCAL/MOL
REMARK 924 INTRA-LIGAND FREE ENERGY PREDICTED BY IDOCK:   -0.97 KCAL/MOL
REMARK 927      BINDING AFFINITY PREDICTED BY RF-SCORE:    0.00 PKD
ROOT
HETATM    1  N   UNL     1      -5.450   3.109  66.318  1.00  0.00    -0.016 N  
HETATM    2  C   UNL     1      -6.623   3.585  66.831  1.00  0.00    -0.041 C  
HETATM    3  H1  UNL     1      -5.006   3.579  65.529  1.00  0.00     0.000 HD 
HETATM    4  H2  UNL     1      -5.017   2.280  66.725  1.00  0.00     0.000 HD 
HETATM    5  O   UNL     1      -7.157   3.019  67.780  1.00  0.00    -0.049 OA 
ENDROOT
BRANCH   2   6
HETATM    6  C   UNL     1      -7.134   4.773  66.192  1.00  0.00    -0.075 A  
HETATM    7  C   UNL     1      -7.943   5.779  66.686  1.00  0.00    -0.102 A  
HETATM    8  C   UNL     1      -8.101   6.726  65.647  1.00  0.00    -0.122 A  
HETATM    9  C   UNL     1      -8.764   7.958  65.507  1.00  0.00    -0.112 A  
HETATM   10  C   UNL     1      -8.727   8.663  64.288  1.00  0.00     0.056 A  
HETATM   11  C   UNL     1      -8.006   8.083  63.227  1.00  0.00    -0.143 A  
HETATM   12  O   UNL     1      -6.807   5.042  64.886  1.00  0.00    -0.047 OA 
HETATM   13  C   UNL     1      -7.398   6.225  64.563  1.00  0.00    -0.070 A  
HETATM   14  C   UNL     1      -7.322   6.861  63.334  1.00  0.00    -0.080 A  
BRANCH  10  15
HETATM   15  N   UNL     1      -9.398   9.859  64.134  1.00  0.00    -0.269 NA 
HETATM   16  C   UNL     1      -9.330  10.649  62.896  1.00  0.00    -0.331 C  
HETATM   17  N   UNL     1     -11.496  11.825  63.527  1.00  0.00    -0.424 NA 
HETATM   18  C   UNL     1     -10.751  11.084  62.477  1.00  0.00     0.984 C  
HETATM   19  C   UNL     1     -10.147  10.484  65.239  1.00  0.00    -0.300 C  
HETATM   20  C   UNL     1     -11.531  10.967  64.738  1.00  0.00     0.448 C  
BRANCH  17  21
HETATM   21  C   UNL     1     -10.890  13.132  63.829  1.00  0.00    -0.137 C  
BRANCH  21  22
HETATM   22  C   UNL     1     -11.857  14.097  64.530  1.00  0.00    -0.451 C  
BRANCH  22  23
HETATM   23  C   UNL     1     -11.246  14.811  65.739  1.00  0.00    -0.337 C  
BRANCH  23  24
HETATM   24  C   UNL     1     -12.165  14.743  66.957  1.00  0.00     0.013 C  
BRANCH  24  25
HETATM   25  C   UNL     1     -11.952  13.508  67.761  1.00  0.00    -0.369 A  
HETATM   26  C   UNL     1     -12.898  12.857  68.529  1.00  0.00     1.712 A  
HETATM   27  N   UNL     1     -12.295  11.785  69.125  1.00  0.00    -0.181 NA 
HETATM   28  H   UNL     1     -12.762  11.129  69.751  1.00  0.00     0.000 HD 
HETATM   29  C   UNL     1     -10.970  11.717  68.762  1.00  0.00    -0.234 A  
HETATM   30  C   UNL     1     -10.727  12.782  67.898  1.00  0.00    -0.235 A  
HETATM   31  C   UNL     1      -9.428  12.940  67.363  1.00  0.00    -0.198 A  
HETATM   32  C   UNL     1      -8.420  12.037  67.725  1.00  0.00    -0.157 A  
HETATM   33  C   UNL     1      -8.697  10.984  68.600  1.00  0.00    -0.161 A  
HETATM   34  C   UNL     1      -7.096  12.198  67.194  1.00  0.00    -0.120 C  
HETATM   35  N   UNL     1      -6.021  12.324  66.771  1.00  0.00    -0.211 NA 
HETATM   36  C   UNL     1      -9.979  10.803  69.134  1.00  0.00    -0.206 A  
ENDBRANCH  24  25
ENDBRANCH  23  24
ENDBRANCH  22  23
ENDBRANCH  21  22
ENDBRANCH  17  21
ENDBRANCH  10  15
ENDBRANCH   2   6
TORSDOF 7
ENDMDL
MODEL      288
REMARK 921   NORMALIZED FREE ENERGY PREDICTED BY IDOCK:   -1.15 KCAL/MOL
REMARK 922        TOTAL FREE ENERGY PREDICTED BY IDOCK:   -2.89 KCAL/MOL
REMARK 923 INTER-LIGAND FREE ENERGY PREDICTED BY IDOCK:   -3.05 KCAL/MOL
REMARK 924 INTRA-LIGAND FREE ENERGY PREDICTED BY IDOCK:    0.16 KCAL/MOL
REMARK 927      BINDING AFFINITY PREDICTED BY RF-SCORE:    0.00 PKD
ROOT
HETATM    1  N   UNL     1     -13.301  15.706  72.239  1.00  0.00    -0.462 N  
HETATM    2  C   UNL     1     -13.372  15.226  70.963  1.00  0.00    -0.474 C  
HETATM    3  H1  UNL     1     -12.440  15.608  72.778  1.00  0.00     0.000 HD 
HETATM    4  H2  UNL     1     -14.111  16.166  72.655  1.00  0.00     0.000 HD 
HETATM    5  O   UNL     1     -14.407  15.344  70.315  1.00  0.00     0.521 OA 
ENDROOT
BRANCH   2   6
HETATM    6  C   UNL     1     -12.162  14.615  70.469  1.00  0.00    -0.324 A  
HETATM    7  C   UNL     1     -11.914  13.318  70.061  1.00  0.00    -0.399 A  
HETATM    8  C   UNL     1     -10.568  13.273  69.629  1.00  0.00     0.471 A  
HETATM    9  C   UNL     1      -9.721  12.289  69.088  1.00  0.00     0.430 A  
HETATM   10  C   UNL     1      -8.382  12.587  68.767  1.00  0.00     0.136 A  
HETATM   11  C   UNL     1      -7.934  13.899  69.011  1.00  0.00     0.098 A  
HETATM   12  O   UNL     1     -11.021  15.368  70.335  1.00  0.00    -0.290 OA 
HETATM   13  C   UNL     1     -10.061  14.548  69.827  1.00  0.00     0.273 A  
HETATM   14  C   UNL     1      -8.754  14.909  69.539  1.00  0.00     0.018 A  
BRANCH  10  15
HETATM   15  N   UNL     1      -7.538  11.619  68.261  1.00  0.00    -0.112 NA 
HETATM   16  C   UNL     1      -7.822  10.899  67.011  1.00  0.00    -0.132 C  
HETATM   17  N   UNL     1      -5.358  10.308  66.792  1.00  0.00    -0.040 NA 
HETATM   18  C   UNL     1      -6.558  10.875  66.125  1.00  0.00    -0.108 C  
HETATM   19  C   UNL     1      -6.344  11.162  68.993  1.00  0.00    -0.054 C  
HETATM   20  C   UNL     1      -5.129  11.085  68.036  1.00  0.00    -0.036 C  
BRANCH  17  21
HETATM   21  C   UNL     1      -5.507   8.874  67.091  1.00  0.00    -0.041 C  
BRANCH  21  22
HETATM   22  C   UNL     1      -5.860   8.598  68.559  1.00  0.00    -0.045 C  
BRANCH  22  23
HETATM   23  C   UNL     1      -6.317   7.161  68.824  1.00  0.00    -0.031 C  
BRANCH  23  24
HETATM   24  C   UNL     1      -7.446   6.746  67.883  1.00  0.00    -0.098 C  
BRANCH  24  25
HETATM   25  C   UNL     1      -8.780   7.213  68.354  1.00  0.00    -0.125 A  
HETATM   26  C   UNL     1      -9.586   8.147  67.734  1.00  0.00    -0.151 A  
HETATM   27  N   UNL     1     -10.708   8.312  68.498  1.00  0.00    -0.414 NA 
HETATM   28  H   UNL     1     -11.475   8.946  68.276  1.00  0.00     0.000 HD 
HETATM   29  C   UNL     1     -10.655   7.501  69.608  1.00  0.00    -0.239 A  
HETATM   30  C   UNL     1      -9.459   6.792  69.540  1.00  0.00    -0.148 A  
HETATM   31  C   UNL     1      -9.157   5.868  70.568  1.00  0.00    -0.158 A  
HETATM   32  C   UNL     1     -10.056   5.702  71.629  1.00  0.00    -0.245 A  
HETATM   33  C   UNL     1     -11.245   6.435  71.669  1.00  0.00    -0.327 A  
HETATM   34  C   UNL     1      -9.751   4.773  72.681  1.00  0.00    -0.141 C  
HETATM   35  N   UNL     1      -9.510   4.027  73.537  1.00  0.00    -0.103 NA 
HETATM   36  C   UNL     1     -11.568   7.348  70.657  1.00  0.00    -0.295 A  
ENDBRANCH  24  25
ENDBRANCH  23  24
ENDBRANCH  22  23
ENDBRANCH  21  22
ENDBRANCH  17  21
ENDBRANCH  10  15
ENDBRANCH   2   6
TORSDOF 7
ENDMDL
MODEL      289
REMARK 921   NORMALIZED FREE ENERGY PREDICTED BY IDOCK:   -0.96 KCAL/MOL
REMARK 922        TOTAL FREE ENERGY PREDICTED BY IDOCK:   -2.63 KCAL/MOL
REMARK 923 INTER-LIGAND FREE ENERGY PREDICTED BY IDOCK:   -1.99 KCAL/MOL
REMARK 924 INTRA-LIGAND FREE ENERGY PREDICTED BY IDOCK:   -0.64 KCAL/MOL
REMARK 927      BINDING AFFINITY PREDICTED BY RF-SCORE:    0.00 PKD
ROOT
HETATM    1  N   UNL     1      -9.281   3.161  70.624  1.00  0.00    -0.123 N  
HETATM    2  C   UNL     1      -9.814   3.923  71.624  1.00  0.00    -0.177 C  
HETATM    3  H1  UNL     1      -9.130   3.561  69.699  1.00  0.00     0.000 HD 
HETATM    4  H2  UNL     1      -9.033   2.188  70.804  1.00  0.00     0.000 HD 
HETATM    5  O   UNL     1      -9.996   3.440  72.738  1.00  0.00    -0.136 OA 
ENDROOT
BRANCH   2   6
HETATM    6  C   UNL     1     -10.107   5.289  71.265  1.00  0.00    -0.213 A  
HETATM    7  C   UNL     1      -9.577   6.087  70.270  1.00  0.00    -0.194 A  
HETATM    8  C   UNL     1     -10.256   7.327  70.333  1.00  0.00    -0.200 A  
HETATM    9  C   UNL     1     -10.214   8.531  69.606  1.00  0.00    -0.209 A  
HETATM   10  C   UNL     1     -11.048   9.612  69.952  1.00  0.00    -0.235 A  
HETATM   11  C   UNL     1     -11.914   9.435  71.048  1.00  0.00    -0.389 A  
HETATM   12  O   UNL     1     -11.063   5.988  71.959  1.00  0.00    -0.250 OA 
HETATM   13  C   UNL     1     -11.146   7.222  71.390  1.00  0.00    -0.243 A  
HETATM   14  C   UNL     1     -11.992   8.245  71.788  1.00  0.00    -0.364 A  
BRANCH  10  15
HETATM   15  N   UNL     1     -10.992  10.805  69.261  1.00  0.00    -0.224 NA 
HETATM   16  C   UNL     1     -10.579  10.882  67.852  1.00  0.00    -0.207 C  
HETATM   17  N   UNL     1     -11.761  13.124  67.629  1.00  0.00    -0.354 NA 
HETATM   18  C   UNL     1     -11.575  11.762  67.066  1.00  0.00    -0.244 C  
HETATM   19  C   UNL     1     -11.239  12.101  69.916  1.00  0.00     0.097 C  
HETATM   20  C   UNL     1     -12.182  12.967  69.044  1.00  0.00    -0.044 C  
BRANCH  17  21
HETATM   21  C   UNL     1     -10.541  13.942  67.534  1.00  0.00    -0.256 C  
BRANCH  21  22
HETATM   22  C   UNL     1      -9.972  14.012  66.110  1.00  0.00    -0.325 C  
BRANCH  22  23
HETATM   23  C   UNL     1      -8.792  14.977  65.964  1.00  0.00     0.109 C  
BRANCH  23  24
HETATM   24  C   UNL     1      -8.718  15.958  67.133  1.00  0.00    -0.223 C  
BRANCH  24  25
HETATM   25  C   UNL     1      -7.577  16.906  67.008  1.00  0.00    -0.230 A  
HETATM   26  C   UNL     1      -6.673  16.966  65.966  1.00  0.00     0.350 A  
HETATM   27  N   UNL     1      -5.769  17.954  66.245  1.00  0.00    -0.170 NA 
HETATM   28  H   UNL     1      -4.988  18.214  65.644  1.00  0.00     0.000 HD 
HETATM   29  C   UNL     1      -6.064  18.545  67.451  1.00  0.00    -0.173 A  
HETATM   30  C   UNL     1      -7.200  17.914  67.950  1.00  0.00    -0.219 A  
HETATM   31  C   UNL     1      -7.727  18.344  69.191  1.00  0.00    -0.063 A  
HETATM   32  C   UNL     1      -7.087  19.376  69.889  1.00  0.00     0.045 A  
HETATM   33  C   UNL     1      -5.945  19.983  69.362  1.00  0.00    -0.336 A  
HETATM   34  C   UNL     1      -7.611  19.810  71.154  1.00  0.00     1.717 C  
HETATM   35  N   UNL     1      -8.027  20.163  72.179  1.00  0.00     1.695 NA 
HETATM   36  C   UNL     1      -5.413  19.580  68.131  1.00  0.00    -0.202 A  
ENDBRANCH  24  25
ENDBRANCH  23  24
ENDBRANCH  22  23
ENDBRANCH  21  22
ENDBRANCH  17  21
ENDBRANCH  10  15
ENDBRANCH   2   6
TORSDOF 7
ENDMDL
MODEL      290
REMARK 921   NORMALIZED FREE ENERGY PREDICTED BY IDOCK:   -0.51 KCAL/MOL
REMARK 922        TOTAL FREE ENERGY PREDICTED BY IDOCK:   -2.00 KCAL/MOL
REMARK 923 INTER-LIGAND FREE ENERGY PREDICTED BY IDOCK:   -1.90 KCAL/MOL
REMARK 924 INTRA-LIGAND FREE ENERGY PREDICTED BY IDOCK:   -0.09 KCAL/MOL
REMARK 927      BINDING AFFINITY PREDICTED BY RF-SCORE:    0.00 PKD
ROOT
HETATM    1  N   UNL     1     -12.408  16.308  64.398  1.00  0.00     0.398 N  
HETATM    2  C   UNL     1     -11.799  15.137  64.048  1.00  0.00     0.007 C  
HETATM    3  H1  UNL     1     -12.316  16.670  65.346  1.00  0.00     0.000 HD 
HETATM    4  H2  UNL     1     -12.958  16.821  63.708  1.00  0.00     0.000 HD 
HETATM    5  O   UNL     1     -11.909  14.700  62.906  1.00  0.00     1.138 OA 
ENDROOT
BRANCH   2   6
HETATM    6  C   UNL     1     -11.031  14.508  65.095  1.00  0.00    -0.379 A  
HETATM    7  C   UNL     1     -10.784  13.172  65.345  1.00  0.00    -0.308 A  
HETATM    8  C   UNL     1      -9.933  13.116  66.475  1.00  0.00    -0.268 A  
HETATM    9  C   UNL     1      -9.308  12.092  67.208  1.00  0.00    -0.183 A  
HETATM   10  C   UNL     1      -8.506  12.393  68.327  1.00  0.00    -0.170 A  
HETATM   11  C   UNL     1      -8.363  13.750  68.674  1.00  0.00    -0.067 A  
HETATM   12  O   UNL     1     -10.395  15.280  66.035  1.00  0.00    -0.278 OA 
HETATM   13  C   UNL     1      -9.734  14.430  66.867  1.00  0.00    -0.262 A  
HETATM   14  C   UNL     1      -8.962  14.798  67.959  1.00  0.00    -0.174 A  
BRANCH  10  15
HETATM   15  N   UNL     1      -7.911  11.392  69.068  1.00  0.00    -0.078 NA 
HETATM   16  C   UNL     1      -8.659  10.225  69.560  1.00  0.00    -0.138 C  
HETATM   17  N   UNL     1      -6.481   8.930  69.794  1.00  0.00    -0.035 NA 
HETATM   18  C   UNL     1      -7.867   8.934  69.257  1.00  0.00    -0.096 C  
HETATM   19  C   UNL     1      -6.508  11.473  69.510  1.00  0.00    -0.124 C  
HETATM   20  C   UNL     1      -5.789  10.126  69.251  1.00  0.00    -0.037 C  
BRANCH  17  21
HETATM   21  C   UNL     1      -6.449   8.930  71.265  1.00  0.00    -0.077 C  
BRANCH  21  22
HETATM   22  C   UNL     1      -6.562   7.523  71.870  1.00  0.00    -0.042 C  
BRANCH  22  23
HETATM   23  C   UNL     1      -5.737   6.466  71.132  1.00  0.00    -0.027 C  
BRANCH  23  24
HETATM   24  C   UNL     1      -6.432   6.002  69.853  1.00  0.00    -0.042 C  
BRANCH  24  25
HETATM   25  C   UNL     1      -7.007   4.634  69.982  1.00  0.00    -0.048 A  
HETATM   26  C   UNL     1      -7.287   3.972  71.161  1.00  0.00    -0.040 A  
HETATM   27  N   UNL     1      -7.777   2.735  70.846  1.00  0.00    -0.039 NA 
HETATM   28  H   UNL     1      -8.065   2.032  71.526  1.00  0.00     0.000 HD 
HETATM   29  C   UNL     1      -7.825   2.572  69.481  1.00  0.00    -0.042 A  
HETATM   30  C   UNL     1      -7.356   3.753  68.911  1.00  0.00    -0.054 A  
HETATM   31  C   UNL     1      -7.311   3.856  67.501  1.00  0.00    -0.067 A  
HETATM   32  C   UNL     1      -7.722   2.769  66.718  1.00  0.00    -0.075 A  
HETATM   33  C   UNL     1      -8.181   1.597  67.324  1.00  0.00    -0.074 A  
HETATM   34  C   UNL     1      -7.669   2.863  65.286  1.00  0.00    -0.081 C  
HETATM   35  N   UNL     1      -7.625   2.931  64.128  1.00  0.00    -0.074 NA 
HETATM   36  C   UNL     1      -8.244   1.477  68.718  1.00  0.00    -0.068 A  
ENDBRANCH  24  25
ENDBRANCH  23  24
ENDBRANCH  22  23
ENDBRANCH  21  22
ENDBRANCH  17  21
ENDBRANCH  10  15
ENDBRANCH   2   6
TORSDOF 7
ENDMDL
MODEL      291
REMARK 921   NORMALIZED FREE ENERGY PREDICTED BY IDOCK:   -0.47 KCAL/MOL
REMARK 922        TOTAL FREE ENERGY PREDICTED BY IDOCK:   -1.94 KCAL/MOL
REMARK 923 INTER-LIGAND FREE ENERGY PREDICTED BY IDOCK:   -2.65 KCAL/MOL
REMARK 924 INTRA-LIGAND FREE ENERGY PREDICTED BY IDOCK:    0.71 KCAL/MOL
REMARK 927      BINDING AFFINITY PREDICTED BY RF-SCORE:    0.00 PKD
ROOT
HETATM    1  N   UNL     1     -10.125   4.951  64.845  1.00  0.00    -0.376 N  
HETATM    2  C   UNL     1      -9.056   4.904  65.693  1.00  0.00    -0.151 C  
HETATM    3  H1  UNL     1     -10.453   5.845  64.481  1.00  0.00     0.000 HD 
HETATM    4  H2  UNL     1     -10.597   4.088  64.573  1.00  0.00     0.000 HD 
HETATM    5  O   UNL     1      -8.661   3.827  66.130  1.00  0.00    -0.111 OA 
ENDROOT
BRANCH   2   6
HETATM    6  C   UNL     1      -8.454   6.180  65.992  1.00  0.00    -0.141 A  
HETATM    7  C   UNL     1      -8.949   7.263  66.693  1.00  0.00    -0.170 A  
HETATM    8  C   UNL     1      -7.923   8.237  66.723  1.00  0.00    -0.099 A  
HETATM    9  C   UNL     1      -7.775   9.519  67.281  1.00  0.00    -0.091 A  
HETATM   10  C   UNL     1      -6.582  10.248  67.107  1.00  0.00    -0.073 A  
HETATM   11  C   UNL     1      -5.558   9.643  66.356  1.00  0.00    -0.052 A  
HETATM   12  O   UNL     1      -7.178   6.452  65.563  1.00  0.00    -0.066 OA 
HETATM   13  C   UNL     1      -6.865   7.699  66.008  1.00  0.00    -0.061 A  
HETATM   14  C   UNL     1      -5.666   8.361  65.794  1.00  0.00    -0.043 A  
BRANCH  10  15
HETATM   15  N   UNL     1      -6.440  11.518  67.629  1.00  0.00    -0.061 NA 
HETATM   16  C   UNL     1      -5.126  12.147  67.826  1.00  0.00    -0.073 C  
HETATM   17  N   UNL     1      -6.227  14.441  67.840  1.00  0.00    -0.151 NA 
HETATM   18  C   UNL     1      -5.150  13.589  67.272  1.00  0.00     0.423 C  
HETATM   19  C   UNL     1      -7.590  12.295  68.124  1.00  0.00    -0.127 C  
HETATM   20  C   UNL     1      -7.517  13.749  67.597  1.00  0.00    -0.178 C  
BRANCH  17  21
HETATM   21  C   UNL     1      -6.036  14.705  69.275  1.00  0.00    -0.103 C  
BRANCH  21  22
HETATM   22  C   UNL     1      -7.323  15.154  69.982  1.00  0.00     0.035 C  
BRANCH  22  23
HETATM   23  C   UNL     1      -8.421  15.623  69.024  1.00  0.00    -0.231 C  
BRANCH  23  24
HETATM   24  C   UNL     1      -9.307  16.691  69.662  1.00  0.00     0.337 C  
BRANCH  24  25
HETATM   25  C   UNL     1      -9.414  17.916  68.822  1.00  0.00    -0.264 A  
HETATM   26  C   UNL     1      -9.014  19.190  69.176  1.00  0.00    -0.114 A  
HETATM   27  N   UNL     1      -9.309  20.030  68.139  1.00  0.00    -0.295 NA 
HETATM   28  H   UNL     1      -9.122  21.033  68.131  1.00  0.00     0.000 HD 
HETATM   29  C   UNL     1      -9.894  19.333  67.109  1.00  0.00    -0.339 A  
HETATM   30  C   UNL     1      -9.966  18.000  67.505  1.00  0.00    -0.330 A  
HETATM   31  C   UNL     1     -10.524  17.054  66.613  1.00  0.00    -0.253 A  
HETATM   32  C   UNL     1     -11.004  17.482  65.368  1.00  0.00     0.194 A  
HETATM   33  C   UNL     1     -10.922  18.829  65.006  1.00  0.00     1.347 A  
HETATM   34  C   UNL     1     -11.581  16.529  64.463  1.00  0.00     0.163 C  
HETATM   35  N   UNL     1     -12.053  15.765  63.727  1.00  0.00    -0.612 NA 
HETATM   36  C   UNL     1     -10.364  19.780  65.869  1.00  0.00    -0.582 A  
ENDBRANCH  24  25
ENDBRANCH  23  24
ENDBRANCH  22  23
ENDBRANCH  21  22
ENDBRANCH  17  21
ENDBRANCH  10  15
ENDBRANCH   2   6
TORSDOF 7
ENDMDL
MODEL      292
REMARK 921   NORMALIZED FREE ENERGY PREDICTED BY IDOCK:   -0.38 KCAL/MOL
REMARK 922        TOTAL FREE ENERGY PREDICTED BY IDOCK:   -1.81 KCAL/MOL
REMARK 923 INTER-LIGAND FREE ENERGY PREDICTED BY IDOCK:   -1.27 KCAL/MOL
REMARK 924 INTRA-LIGAND FREE ENERGY PREDICTED BY IDOCK:   -0.54 KCAL/MOL
REMARK 927      BINDING AFFINITY PREDICTED BY RF-SCORE:    0.00 PKD
ROOT
HETATM    1  N   UNL     1     -13.403  15.356  72.364  1.00  0.00    -0.415 N  
HETATM    2  C   UNL     1     -13.411  15.044  71.035  1.00  0.00    -0.419 C  
HETATM    3  H1  UNL     1     -12.579  15.162  72.932  1.00  0.00     0.000 HD 
HETATM    4  H2  UNL     1     -14.225  15.785  72.790  1.00  0.00     0.000 HD 
HETATM    5  O   UNL     1     -14.402  15.278  70.351  1.00  0.00     0.355 OA 
ENDROOT
BRANCH   2   6
HETATM    6  C   UNL     1     -12.189  14.462  70.534  1.00  0.00    -0.341 A  
HETATM    7  C   UNL     1     -11.977  13.299  69.819  1.00  0.00    -0.391 A  
HETATM    8  C   UNL     1     -10.590  13.230  69.548  1.00  0.00     0.320 A  
HETATM    9  C   UNL     1      -9.747  12.340  68.859  1.00  0.00     0.126 A  
HETATM   10  C   UNL     1      -8.360  12.571  68.786  1.00  0.00     0.136 A  
HETATM   11  C   UNL     1      -7.860  13.720  69.429  1.00  0.00     0.438 A  
HETATM   12  O   UNL     1     -10.992  15.102  70.742  1.00  0.00    -0.283 OA 
HETATM   13  C   UNL     1     -10.029  14.349  70.143  1.00  0.00     0.917 A  
HETATM   14  C   UNL     1      -8.673  14.637  70.115  1.00  0.00     1.012 A  
BRANCH  10  15
HETATM   15  N   UNL     1      -7.522  11.687  68.136  1.00  0.00    -0.096 NA 
HETATM   16  C   UNL     1      -6.648  12.099  67.027  1.00  0.00    -0.080 C  
HETATM   17  N   UNL     1      -5.172  10.068  67.439  1.00  0.00    -0.038 NA 
HETATM   18  C   UNL     1      -5.226  11.541  67.252  1.00  0.00    -0.071 C  
HETATM   19  C   UNL     1      -7.522  10.245  68.436  1.00  0.00    -0.090 C  
HETATM   20  C   UNL     1      -6.067   9.730  68.573  1.00  0.00    -0.042 C  
BRANCH  17  21
HETATM   21  C   UNL     1      -5.564   9.334  66.225  1.00  0.00    -0.052 C  
BRANCH  21  22
HETATM   22  C   UNL     1      -6.238   7.988  66.527  1.00  0.00    -0.050 C  
BRANCH  22  23
HETATM   23  C   UNL     1      -5.316   6.780  66.340  1.00  0.00    -0.018 C  
BRANCH  23  24
HETATM   24  C   UNL     1      -6.068   5.463  66.526  1.00  0.00    -0.030 C  
BRANCH  24  25
HETATM   25  C   UNL     1      -7.534   5.611  66.316  1.00  0.00    -0.083 A  
HETATM   26  C   UNL     1      -8.216   5.413  65.131  1.00  0.00    -0.138 A  
HETATM   27  N   UNL     1      -9.539   5.676  65.355  1.00  0.00    -0.356 NA 
HETATM   28  H   UNL     1     -10.273   5.610  64.650  1.00  0.00     0.000 HD 
HETATM   29  C   UNL     1      -9.740   6.040  66.666  1.00  0.00    -0.157 A  
HETATM   30  C   UNL     1      -8.500   6.000  67.297  1.00  0.00    -0.104 A  
HETATM   31  C   UNL     1      -8.426   6.325  68.672  1.00  0.00    -0.122 A  
HETATM   32  C   UNL     1      -9.592   6.693  69.355  1.00  0.00    -0.148 A  
HETATM   33  C   UNL     1     -10.819   6.729  68.689  1.00  0.00    -0.277 A  
HETATM   34  C   UNL     1      -9.522   7.035  70.748  1.00  0.00    -0.161 C  
HETATM   35  N   UNL     1      -9.472   7.316  71.874  1.00  0.00    -0.148 NA 
HETATM   36  C   UNL     1     -10.917   6.401  67.331  1.00  0.00    -0.463 A  
ENDBRANCH  24  25
ENDBRANCH  23  24
ENDBRANCH  22  23
ENDBRANCH  21  22
ENDBRANCH  17  21
ENDBRANCH  10  15
ENDBRANCH   2   6
TORSDOF 7
ENDMDL
MODEL      293
REMARK 921   NORMALIZED FREE ENERGY PREDICTED BY IDOCK:   -0.23 KCAL/MOL
REMARK 922        TOTAL FREE ENERGY PREDICTED BY IDOCK:   -1.60 KCAL/MOL
REMARK 923 INTER-LIGAND FREE ENERGY PREDICTED BY IDOCK:   -1.81 KCAL/MOL
REMARK 924 INTRA-LIGAND FREE ENERGY PREDICTED BY IDOCK:    0.21 KCAL/MOL
REMARK 927      BINDING AFFINITY PREDICTED BY RF-SCORE:    0.00 PKD
ROOT
HETATM    1  N   UNL     1     -13.301  15.706  72.239  1.00  0.00    -0.462 N  
HETATM    2  C   UNL     1     -13.372  15.226  70.963  1.00  0.00    -0.474 C  
HETATM    3  H1  UNL     1     -12.440  15.608  72.778  1.00  0.00     0.000 HD 
HETATM    4  H2  UNL     1     -14.111  16.166  72.655  1.00  0.00     0.000 HD 
HETATM    5  O   UNL     1     -14.407  15.344  70.315  1.00  0.00     0.521 OA 
ENDROOT
BRANCH   2   6
HETATM    6  C   UNL     1     -12.162  14.615  70.469  1.00  0.00    -0.324 A  
HETATM    7  C   UNL     1     -11.914  13.318  70.061  1.00  0.00    -0.399 A  
HETATM    8  C   UNL     1     -10.568  13.273  69.629  1.00  0.00     0.471 A  
HETATM    9  C   UNL     1      -9.721  12.289  69.088  1.00  0.00     0.430 A  
HETATM   10  C   UNL     1      -8.382  12.587  68.767  1.00  0.00     0.136 A  
HETATM   11  C   UNL     1      -7.934  13.899  69.011  1.00  0.00     0.098 A  
HETATM   12  O   UNL     1     -11.021  15.368  70.335  1.00  0.00    -0.290 OA 
HETATM   13  C   UNL     1     -10.061  14.548  69.827  1.00  0.00     0.273 A  
HETATM   14  C   UNL     1      -8.754  14.909  69.539  1.00  0.00     0.018 A  
BRANCH  10  15
HETATM   15  N   UNL     1      -7.538  11.619  68.261  1.00  0.00    -0.112 NA 
HETATM   16  C   UNL     1      -7.822  10.899  67.011  1.00  0.00    -0.132 C  
HETATM   17  N   UNL     1      -5.358  10.308  66.792  1.00  0.00    -0.040 NA 
HETATM   18  C   UNL     1      -6.558  10.875  66.125  1.00  0.00    -0.108 C  
HETATM   19  C   UNL     1      -6.344  11.162  68.993  1.00  0.00    -0.054 C  
HETATM   20  C   UNL     1      -5.129  11.085  68.036  1.00  0.00    -0.036 C  
BRANCH  17  21
HETATM   21  C   UNL     1      -5.507   8.874  67.091  1.00  0.00    -0.041 C  
BRANCH  21  22
HETATM   22  C   UNL     1      -5.860   8.598  68.559  1.00  0.00    -0.045 C  
BRANCH  22  23
HETATM   23  C   UNL     1      -6.317   7.161  68.824  1.00  0.00    -0.031 C  
BRANCH  23  24
HETATM   24  C   UNL     1      -7.800   7.098  69.184  1.00  0.00    -0.118 C  
BRANCH  24  25
HETATM   25  C   UNL     1      -8.050   7.399  70.621  1.00  0.00    -0.110 A  
HETATM   26  C   UNL     1      -8.721   8.496  71.123  1.00  0.00    -0.174 A  
HETATM   27  N   UNL     1      -8.710   8.411  72.488  1.00  0.00    -0.270 NA 
HETATM   28  H   UNL     1      -9.133   9.093  73.117  1.00  0.00     0.000 HD 
HETATM   29  C   UNL     1      -8.046   7.277  72.891  1.00  0.00    -0.106 A  
HETATM   30  C   UNL     1      -7.627   6.615  71.740  1.00  0.00    -0.093 A  
HETATM   31  C   UNL     1      -6.920   5.397  71.875  1.00  0.00    -0.075 A  
HETATM   32  C   UNL     1      -6.646   4.899  73.155  1.00  0.00    -0.065 A  
HETATM   33  C   UNL     1      -7.075   5.592  74.289  1.00  0.00    -0.082 A  
HETATM   34  C   UNL     1      -5.919   3.669  73.298  1.00  0.00    -0.007 C  
HETATM   35  N   UNL     1      -5.329   2.677  73.422  1.00  0.00     0.000 NA 
HETATM   36  C   UNL     1      -7.785   6.794  74.179  1.00  0.00    -0.112 A  
ENDBRANCH  24  25
ENDBRANCH  23  24
ENDBRANCH  22  23
ENDBRANCH  21  22
ENDBRANCH  17  21
ENDBRANCH  10  15
ENDBRANCH   2   6
TORSDOF 7
ENDMDL
MODEL      294
REMARK 921   NORMALIZED FREE ENERGY PREDICTED BY IDOCK:   -0.11 KCAL/MOL
REMARK 922        TOTAL FREE ENERGY PREDICTED BY IDOCK:   -1.43 KCAL/MOL
REMARK 923 INTER-LIGAND FREE ENERGY PREDICTED BY IDOCK:   -0.92 KCAL/MOL
REMARK 924 INTRA-LIGAND FREE ENERGY PREDICTED BY IDOCK:   -0.51 KCAL/MOL
REMARK 927      BINDING AFFINITY PREDICTED BY RF-SCORE:    0.00 PKD
ROOT
HETATM    1  N   UNL     1      -6.014  18.641  70.531  1.00  0.00    -0.074 N  
HETATM    2  C   UNL     1      -6.794  18.156  69.521  1.00  0.00    -0.039 C  
HETATM    3  H1  UNL     1      -5.540  17.999  71.167  1.00  0.00     0.000 HD 
HETATM    4  H2  UNL     1      -5.905  19.648  70.651  1.00  0.00     0.000 HD 
HETATM    5  O   UNL     1      -7.365  18.928  68.757  1.00  0.00    -0.303 OA 
ENDROOT
BRANCH   2   6
HETATM    6  C   UNL     1      -6.860  16.717  69.433  1.00  0.00    -0.202 A  
HETATM    7  C   UNL     1      -5.885  15.761  69.646  1.00  0.00    -0.135 A  
HETATM    8  C   UNL     1      -6.501  14.500  69.467  1.00  0.00    -0.134 A  
HETATM    9  C   UNL     1      -6.086  13.160  69.560  1.00  0.00    -0.114 A  
HETATM   10  C   UNL     1      -6.983  12.107  69.297  1.00  0.00    -0.010 A  
HETATM   11  C   UNL     1      -8.300  12.453  68.939  1.00  0.00     0.243 A  
HETATM   12  O   UNL     1      -8.044  16.106  69.102  1.00  0.00    -0.229 OA 
HETATM   13  C   UNL     1      -7.818  14.764  69.123  1.00  0.00    -0.141 A  
HETATM   14  C   UNL     1      -8.753  13.778  68.847  1.00  0.00     0.146 A  
BRANCH  10  15
HETATM   15  N   UNL     1      -6.575  10.790  69.359  1.00  0.00    -0.072 NA 
HETATM   16  C   UNL     1      -5.552  10.325  70.307  1.00  0.00    -0.058 C  
HETATM   17  N   UNL     1      -6.424   7.945  70.081  1.00  0.00    -0.037 NA 
HETATM   18  C   UNL     1      -6.040   9.039  71.010  1.00  0.00    -0.054 C  
HETATM   19  C   UNL     1      -7.059   9.774  68.408  1.00  0.00    -0.073 C  
HETATM   20  C   UNL     1      -7.459   8.483  69.163  1.00  0.00    -0.088 C  
BRANCH  17  21
HETATM   21  C   UNL     1      -5.275   7.422  69.324  1.00  0.00    -0.015 C  
BRANCH  21  22
HETATM   22  C   UNL     1      -5.200   5.889  69.325  1.00  0.00    -0.004 C  
BRANCH  22  23
HETATM   23  C   UNL     1      -6.422   5.211  68.700  1.00  0.00    -0.040 C  
BRANCH  23  24
HETATM   24  C   UNL     1      -6.369   5.250  67.173  1.00  0.00    -0.040 C  
BRANCH  24  25
HETATM   25  C   UNL     1      -7.679   4.913  66.550  1.00  0.00    -0.095 A  
HETATM   26  C   UNL     1      -7.899   3.973  65.564  1.00  0.00    -0.090 A  
HETATM   27  N   UNL     1      -9.229   3.989  65.251  1.00  0.00    -0.141 NA 
HETATM   28  H   UNL     1      -9.670   3.394  64.550  1.00  0.00     0.000 HD 
HETATM   29  C   UNL     1      -9.889   4.922  66.015  1.00  0.00    -0.203 A  
HETATM   30  C   UNL     1      -8.943   5.513  66.849  1.00  0.00    -0.111 A  
HETATM   31  C   UNL     1      -9.366   6.513  67.755  1.00  0.00    -0.118 A  
HETATM   32  C   UNL     1     -10.714   6.893  67.782  1.00  0.00    -0.321 A  
HETATM   33  C   UNL     1     -11.635   6.283  66.927  1.00  0.00     0.628 A  
HETATM   34  C   UNL     1     -11.147   7.915  68.693  1.00  0.00     0.331 C  
HETATM   35  N   UNL     1     -11.504   8.743  69.424  1.00  0.00     0.329 NA 
HETATM   36  C   UNL     1     -11.241   5.284  66.029  1.00  0.00     0.341 A  
ENDBRANCH  24  25
ENDBRANCH  23  24
ENDBRANCH  22  23
ENDBRANCH  21  22
ENDBRANCH  17  21
ENDBRANCH  10  15
ENDBRANCH   2   6
TORSDOF 7
ENDMDL
MODEL      295
REMARK 921   NORMALIZED FREE ENERGY PREDICTED BY IDOCK:    0.26 KCAL/MOL
REMARK 922        TOTAL FREE ENERGY PREDICTED BY IDOCK:   -0.91 KCAL/MOL
REMARK 923 INTER-LIGAND FREE ENERGY PREDICTED BY IDOCK:   -1.56 KCAL/MOL
REMARK 924 INTRA-LIGAND FREE ENERGY PREDICTED BY IDOCK:    0.64 KCAL/MOL
REMARK 927      BINDING AFFINITY PREDICTED BY RF-SCORE:    0.00 PKD
ROOT
HETATM    1  N   UNL     1     -13.407  15.350  72.370  1.00  0.00    -0.415 N  
HETATM    2  C   UNL     1     -13.418  15.076  71.032  1.00  0.00    -0.402 C  
HETATM    3  H1  UNL     1     -12.589  15.122  72.934  1.00  0.00     0.000 HD 
HETATM    4  H2  UNL     1     -14.220  15.785  72.806  1.00  0.00     0.000 HD 
HETATM    5  O   UNL     1     -14.403  15.351  70.354  1.00  0.00     0.248 OA 
ENDROOT
BRANCH   2   6
HETATM    6  C   UNL     1     -12.209  14.481  70.518  1.00  0.00    -0.332 A  
HETATM    7  C   UNL     1     -12.000  13.258  69.910  1.00  0.00    -0.400 A  
HETATM    8  C   UNL     1     -10.630  13.200  69.562  1.00  0.00     0.350 A  
HETATM    9  C   UNL     1      -9.799  12.269  68.914  1.00  0.00     0.087 A  
HETATM   10  C   UNL     1      -8.427  12.530  68.733  1.00  0.00     0.155 A  
HETATM   11  C   UNL     1      -7.930  13.752  69.226  1.00  0.00     0.363 A  
HETATM   12  O   UNL     1     -11.024  15.171  70.586  1.00  0.00    -0.279 OA 
HETATM   13  C   UNL     1     -10.073  14.389  70.007  1.00  0.00     0.638 A  
HETATM   14  C   UNL     1      -8.732  14.710  69.866  1.00  0.00     0.596 A  
BRANCH  10  15
HETATM   15  N   UNL     1      -7.600  11.609  68.123  1.00  0.00    -0.107 NA 
HETATM   16  C   UNL     1      -7.044  11.817  66.778  1.00  0.00    -0.047 C  
HETATM   17  N   UNL     1      -5.198  10.140  67.283  1.00  0.00    -0.041 NA 
HETATM   18  C   UNL     1      -5.532  11.499  66.785  1.00  0.00    -0.135 C  
HETATM   19  C   UNL     1      -7.299  10.302  68.733  1.00  0.00    -0.086 C  
HETATM   20  C   UNL     1      -5.782  10.007  68.641  1.00  0.00    -0.038 C  
BRANCH  17  21
HETATM   21  C   UNL     1      -5.694   9.078  66.393  1.00  0.00    -0.050 C  
BRANCH  21  22
HETATM   22  C   UNL     1      -6.587   8.057  67.113  1.00  0.00    -0.057 C  
BRANCH  22  23
HETATM   23  C   UNL     1      -6.619   6.683  66.438  1.00  0.00    -0.044 C  
BRANCH  23  24
HETATM   24  C   UNL     1      -7.828   5.863  66.887  1.00  0.00    -0.101 C  
BRANCH  24  25
HETATM   25  C   UNL     1      -8.972   6.720  67.305  1.00  0.00    -0.117 A  
HETATM   26  C   UNL     1      -9.830   6.482  68.361  1.00  0.00    -0.137 A  
HETATM   27  N   UNL     1     -10.755   7.488  68.390  1.00  0.00    -0.383 NA 
HETATM   28  H   UNL     1     -11.512   7.562  69.069  1.00  0.00     0.000 HD 
HETATM   29  C   UNL     1     -10.520   8.384  67.374  1.00  0.00    -0.283 A  
HETATM   30  C   UNL     1      -9.400   7.934  66.681  1.00  0.00    -0.244 A  
HETATM   31  C   UNL     1      -8.933   8.688  65.580  1.00  0.00    -0.209 A  
HETATM   32  C   UNL     1      -9.613   9.855  65.207  1.00  0.00    -0.361 A  
HETATM   33  C   UNL     1     -10.737  10.275  65.922  1.00  0.00     0.019 A  
HETATM   34  C   UNL     1      -9.150  10.620  64.084  1.00  0.00    -0.222 C  
HETATM   35  N   UNL     1      -8.783  11.242  63.174  1.00  0.00    -0.039 NA 
HETATM   36  C   UNL     1     -11.211   9.548  67.021  1.00  0.00     0.515 A  
ENDBRANCH  24  25
ENDBRANCH  23  24
ENDBRANCH  22  23
ENDBRANCH  21  22
ENDBRANCH  17  21
ENDBRANCH  10  15
ENDBRANCH   2   6
TORSDOF 7
ENDMDL
MODEL      296
REMARK 921   NORMALIZED FREE ENERGY PREDICTED BY IDOCK:    1.36 KCAL/MOL
REMARK 922        TOTAL FREE ENERGY PREDICTED BY IDOCK:    0.64 KCAL/MOL
REMARK 923 INTER-LIGAND FREE ENERGY PREDICTED BY IDOCK:   -2.92 KCAL/MOL
REMARK 924 INTRA-LIGAND FREE ENERGY PREDICTED BY IDOCK:    3.56 KCAL/MOL
REMARK 927      BINDING AFFINITY PREDICTED BY RF-SCORE:    0.00 PKD
ROOT
HETATM    1  N   UNL     1      -7.891  16.978  65.818  1.00  0.00     0.089 N  
HETATM    2  C   UNL     1      -8.871  16.454  66.612  1.00  0.00    -0.249 C  
HETATM    3  H1  UNL     1      -6.983  16.520  65.753  1.00  0.00     0.000 HD 
HETATM    4  H2  UNL     1      -8.069  17.831  65.288  1.00  0.00     0.000 HD 
HETATM    5  O   UNL     1      -9.964  17.006  66.690  1.00  0.00    -0.277 OA 
ENDROOT
BRANCH   2   6
HETATM    6  C   UNL     1      -8.517  15.235  67.298  1.00  0.00    -0.193 A  
HETATM    7  C   UNL     1      -9.135  13.999  67.305  1.00  0.00    -0.224 A  
HETATM    8  C   UNL     1      -8.342  13.148  68.111  1.00  0.00    -0.161 A  
HETATM    9  C   UNL     1      -8.396  11.797  68.497  1.00  0.00    -0.131 A  
HETATM   10  C   UNL     1      -7.417  11.251  69.349  1.00  0.00     0.018 A  
HETATM   11  C   UNL     1      -6.393  12.109  69.793  1.00  0.00    -0.102 A  
HETATM   12  O   UNL     1      -7.394  15.195  68.086  1.00  0.00    -0.101 OA 
HETATM   13  C   UNL     1      -7.295  13.929  68.576  1.00  0.00    -0.116 A  
HETATM   14  C   UNL     1      -6.300  13.459  69.419  1.00  0.00    -0.111 A  
BRANCH  10  15
HETATM   15  N   UNL     1      -7.479   9.933  69.755  1.00  0.00    -0.121 NA 
HETATM   16  C   UNL     1      -8.509   9.441  70.682  1.00  0.00    -0.193 C  
HETATM   17  N   UNL     1      -8.127   7.068  69.847  1.00  0.00    -0.123 NA 
HETATM   18  C   UNL     1      -9.122   8.134  70.133  1.00  0.00    -0.147 C  
HETATM   19  C   UNL     1      -6.455   8.946  69.371  1.00  0.00    -0.044 C  
HETATM   20  C   UNL     1      -7.129   7.632  68.904  1.00  0.00    -0.079 C  
BRANCH  17  21
HETATM   21  C   UNL     1      -7.471   6.570  71.066  1.00  0.00    -0.085 C  
BRANCH  21  22
HETATM   22  C   UNL     1      -7.023   5.105  70.954  1.00  0.00    -0.055 C  
BRANCH  22  23
HETATM   23  C   UNL     1      -5.550   4.938  70.574  1.00  0.00    -0.015 C  
BRANCH  23  24
HETATM   24  C   UNL     1      -5.264   5.479  69.174  1.00  0.00    -0.003 C  
BRANCH  24  25
HETATM   25  C   UNL     1      -5.889   4.651  68.106  1.00  0.00    -0.022 A  
HETATM   26  C   UNL     1      -5.242   3.752  67.282  1.00  0.00    -0.012 A  
HETATM   27  N   UNL     1      -6.165   3.221  66.425  1.00  0.00    -0.027 NA 
HETATM   28  H   UNL     1      -5.960   2.529  65.705  1.00  0.00     0.000 HD 
HETATM   29  C   UNL     1      -7.409   3.754  66.672  1.00  0.00    -0.069 A  
HETATM   30  C   UNL     1      -7.269   4.649  67.729  1.00  0.00    -0.066 A  
HETATM   31  C   UNL     1      -8.415   5.335  68.194  1.00  0.00    -0.096 A  
HETATM   32  C   UNL     1      -9.651   5.111  67.574  1.00  0.00    -0.159 A  
HETATM   33  C   UNL     1      -9.753   4.210  66.511  1.00  0.00    -0.228 A  
HETATM   34  C   UNL     1     -10.816   5.813  68.035  1.00  0.00    -0.161 C  
HETATM   35  N   UNL     1     -11.762   6.379  68.399  1.00  0.00     0.458 NA 
HETATM   36  C   UNL     1      -8.634   3.513  66.041  1.00  0.00    -0.117 A  
ENDBRANCH  24  25
ENDBRANCH  23  24
ENDBRANCH  22  23
ENDBRANCH  21  22
ENDBRANCH  17  21
ENDBRANCH  10  15
ENDBRANCH   2   6
TORSDOF 7
ENDMDL
MODEL      297
REMARK 921   NORMALIZED FREE ENERGY PREDICTED BY IDOCK:    1.43 KCAL/MOL
REMARK 922        TOTAL FREE ENERGY PREDICTED BY IDOCK:    0.74 KCAL/MOL
REMARK 923 INTER-LIGAND FREE ENERGY PREDICTED BY IDOCK:   -1.32 KCAL/MOL
REMARK 924 INTRA-LIGAND FREE ENERGY PREDICTED BY IDOCK:    2.06 KCAL/MOL
REMARK 927      BINDING AFFINITY PREDICTED BY RF-SCORE:    0.00 PKD
ROOT
HETATM    1  N   UNL     1      -6.693   3.052  73.790  1.00  0.00    -0.030 N  
HETATM    2  C   UNL     1      -7.175   3.143  72.516  1.00  0.00    -0.044 C  
HETATM    3  H1  UNL     1      -6.403   3.892  74.290  1.00  0.00     0.000 HD 
HETATM    4  H2  UNL     1      -6.625   2.141  74.244  1.00  0.00     0.000 HD 
HETATM    5  O   UNL     1      -7.524   2.132  71.914  1.00  0.00    -0.038 OA 
ENDROOT
BRANCH   2   6
HETATM    6  C   UNL     1      -7.248   4.481  71.982  1.00  0.00    -0.066 A  
HETATM    7  C   UNL     1      -7.649   4.929  70.738  1.00  0.00    -0.066 A  
HETATM    8  C   UNL     1      -7.567   6.341  70.763  1.00  0.00    -0.096 A  
HETATM    9  C   UNL     1      -7.848   7.378  69.855  1.00  0.00    -0.115 A  
HETATM   10  C   UNL     1      -7.636   8.724  70.210  1.00  0.00    -0.073 A  
HETATM   11  C   UNL     1      -7.134   8.982  71.500  1.00  0.00    -0.037 A  
HETATM   12  O   UNL     1      -6.894   5.551  72.766  1.00  0.00    -0.073 OA 
HETATM   13  C   UNL     1      -7.089   6.673  72.021  1.00  0.00    -0.080 A  
HETATM   14  C   UNL     1      -6.853   7.974  72.436  1.00  0.00    -0.085 A  
BRANCH  10  15
HETATM   15  N   UNL     1      -7.884   9.745  69.315  1.00  0.00    -0.095 NA 
HETATM   16  C   UNL     1      -9.143  10.505  69.313  1.00  0.00    -0.145 C  
HETATM   17  N   UNL     1      -7.991  12.408  68.078  1.00  0.00    -0.144 NA 
HETATM   18  C   UNL     1      -8.838  12.017  69.235  1.00  0.00     0.781 C  
HETATM   19  C   UNL     1      -6.947  10.077  68.228  1.00  0.00    -0.068 C  
HETATM   20  C   UNL     1      -6.742  11.610  68.150  1.00  0.00    -0.063 C  
BRANCH  17  21
HETATM   21  C   UNL     1      -8.671  12.201  66.790  1.00  0.00    -0.183 C  
BRANCH  21  22
HETATM   22  C   UNL     1      -9.631  13.342  66.424  1.00  0.00    -0.260 C  
BRANCH  22  23
HETATM   23  C   UNL     1      -9.370  14.639  67.194  1.00  0.00    -0.231 C  
BRANCH  23  24
HETATM   24  C   UNL     1      -7.954  14.679  67.767  1.00  0.00    -0.166 C  
BRANCH  24  25
HETATM   25  C   UNL     1      -7.519  16.060  68.112  1.00  0.00    -0.132 A  
HETATM   26  C   UNL     1      -6.381  16.410  68.811  1.00  0.00    -0.135 A  
HETATM   27  N   UNL     1      -6.363  17.771  68.939  1.00  0.00    -0.202 NA 
HETATM   28  H   UNL     1      -5.634  18.301  69.415  1.00  0.00     0.000 HD 
HETATM   29  C   UNL     1      -7.468  18.323  68.335  1.00  0.00    -0.281 A  
HETATM   30  C   UNL     1      -8.209  17.274  67.799  1.00  0.00    -0.205 A  
HETATM   31  C   UNL     1      -9.406  17.571  67.105  1.00  0.00    -0.250 A  
HETATM   32  C   UNL     1      -9.821  18.904  66.990  1.00  0.00    -0.368 A  
HETATM   33  C   UNL     1      -9.056  19.932  67.546  1.00  0.00    -0.432 A  
HETATM   34  C   UNL     1     -11.040  19.211  66.296  1.00  0.00     0.158 C  
HETATM   35  N   UNL     1     -12.027  19.468  65.740  1.00  0.00     2.255 NA 
HETATM   36  C   UNL     1      -7.863  19.661  68.228  1.00  0.00    -0.355 A  
ENDBRANCH  24  25
ENDBRANCH  23  24
ENDBRANCH  22  23
ENDBRANCH  21  22
ENDBRANCH  17  21
ENDBRANCH  10  15
ENDBRANCH   2   6
TORSDOF 7
ENDMDL
MODEL      298
REMARK 921   NORMALIZED FREE ENERGY PREDICTED BY IDOCK:    2.08 KCAL/MOL
REMARK 922        TOTAL FREE ENERGY PREDICTED BY IDOCK:    1.65 KCAL/MOL
REMARK 923 INTER-LIGAND FREE ENERGY PREDICTED BY IDOCK:    2.29 KCAL/MOL
REMARK 924 INTRA-LIGAND FREE ENERGY PREDICTED BY IDOCK:   -0.64 KCAL/MOL
REMARK 927      BINDING AFFINITY PREDICTED BY RF-SCORE:    0.00 PKD
ROOT
HETATM    1  N   UNL     1      -6.023  18.645  70.561  1.00  0.00    -0.074 N  
HETATM    2  C   UNL     1      -6.874  18.093  69.647  1.00  0.00     0.065 C  
HETATM    3  H1  UNL     1      -5.524  18.050  71.222  1.00  0.00     0.000 HD 
HETATM    4  H2  UNL     1      -5.885  19.655  70.583  1.00  0.00     0.000 HD 
HETATM    5  O   UNL     1      -7.475  18.809  68.852  1.00  0.00    -0.312 OA 
ENDROOT
BRANCH   2   6
HETATM    6  C   UNL     1      -6.975  16.655  69.693  1.00  0.00     0.009 A  
HETATM    7  C   UNL     1      -6.006  15.695  69.914  1.00  0.00    -0.156 A  
HETATM    8  C   UNL     1      -6.659  14.440  69.897  1.00  0.00    -0.133 A  
HETATM    9  C   UNL     1      -6.265  13.102  70.077  1.00  0.00    -0.073 A  
HETATM   10  C   UNL     1      -7.201  12.055  69.981  1.00  0.00     1.029 A  
HETATM   11  C   UNL     1      -8.536  12.403  69.698  1.00  0.00     1.808 A  
HETATM   12  O   UNL     1      -8.194  16.049  69.513  1.00  0.00    -0.198 OA 
HETATM   13  C   UNL     1      -7.994  14.708  69.636  1.00  0.00     0.141 A  
HETATM   14  C   UNL     1      -8.968  13.728  69.524  1.00  0.00     1.034 A  
BRANCH  10  15
HETATM   15  N   UNL     1      -6.816  10.738  70.128  1.00  0.00    -0.215 NA 
HETATM   16  C   UNL     1      -5.742  10.328  71.045  1.00  0.00    -0.068 C  
HETATM   17  N   UNL     1      -6.673   7.961  71.077  1.00  0.00    -0.037 NA 
HETATM   18  C   UNL     1      -6.207   9.118  71.884  1.00  0.00    -0.008 C  
HETATM   19  C   UNL     1      -7.381   9.659  69.299  1.00  0.00    -0.079 C  
HETATM   20  C   UNL     1      -7.756   8.446  70.186  1.00  0.00    -0.083 C  
BRANCH  17  21
HETATM   21  C   UNL     1      -5.587   7.348  70.295  1.00  0.00    -0.024 C  
BRANCH  21  22
HETATM   22  C   UNL     1      -5.583   5.814  70.368  1.00  0.00    -0.013 C  
BRANCH  22  23
HETATM   23  C   UNL     1      -6.862   5.167  69.830  1.00  0.00    -0.052 C  
BRANCH  23  24
HETATM   24  C   UNL     1      -6.882   5.145  68.302  1.00  0.00    -0.056 C  
BRANCH  24  25
HETATM   25  C   UNL     1      -8.243   4.891  67.755  1.00  0.00    -0.101 A  
HETATM   26  C   UNL     1      -9.441   5.234  68.350  1.00  0.00    -0.124 A  
HETATM   27  N   UNL     1     -10.455   4.803  67.540  1.00  0.00     0.009 NA 
HETATM   28  H   UNL     1     -11.448   4.923  67.737  1.00  0.00     0.000 HD 
HETATM   29  C   UNL     1      -9.945   4.185  66.422  1.00  0.00    -0.155 A  
HETATM   30  C   UNL     1      -8.557   4.233  66.525  1.00  0.00    -0.112 A  
HETATM   31  C   UNL     1      -7.779   3.669  65.487  1.00  0.00    -0.082 A  
HETATM   32  C   UNL     1      -8.419   3.066  64.397  1.00  0.00    -0.093 A  
HETATM   33  C   UNL     1      -9.814   3.030  64.329  1.00  0.00    -0.147 A  
HETATM   34  C   UNL     1      -7.635   2.482  63.345  1.00  0.00    -0.062 C  
HETATM   35  N   UNL     1      -7.007   2.005  62.493  1.00  0.00    -0.025 NA 
HETATM   36  C   UNL     1     -10.604   3.591  65.340  1.00  0.00     0.679 A  
ENDBRANCH  24  25
ENDBRANCH  23  24
ENDBRANCH  22  23
ENDBRANCH  21  22
ENDBRANCH  17  21
ENDBRANCH  10  15
ENDBRANCH   2   6
TORSDOF 7
ENDMDL
MODEL      299
REMARK 921   NORMALIZED FREE ENERGY PREDICTED BY IDOCK:    3.05 KCAL/MOL
REMARK 922        TOTAL FREE ENERGY PREDICTED BY IDOCK:    3.02 KCAL/MOL
REMARK 923 INTER-LIGAND FREE ENERGY PREDICTED BY IDOCK:    1.39 KCAL/MOL
REMARK 924 INTRA-LIGAND FREE ENERGY PREDICTED BY IDOCK:    1.63 KCAL/MOL
REMARK 927      BINDING AFFINITY PREDICTED BY RF-SCORE:    0.00 PKD
ROOT
HETATM    1  N   UNL     1     -11.981   6.507  72.421  1.00  0.00    -0.502 N  
HETATM    2  C   UNL     1     -11.881   5.412  71.611  1.00  0.00     0.723 C  
HETATM    3  H1  UNL     1     -11.554   7.391  72.144  1.00  0.00     0.000 HD 
HETATM    4  H2  UNL     1     -12.483   6.441  73.306  1.00  0.00     0.000 HD 
HETATM    5  O   UNL     1     -12.395   4.349  71.944  1.00  0.00     2.610 OA 
ENDROOT
BRANCH   2   6
HETATM    6  C   UNL     1     -11.167   5.626  70.375  1.00  0.00    -0.016 A  
HETATM    7  C   UNL     1     -10.658   6.786  69.824  1.00  0.00    -0.263 A  
HETATM    8  C   UNL     1     -10.012   6.418  68.620  1.00  0.00    -0.162 A  
HETATM    9  C   UNL     1      -9.291   7.098  67.622  1.00  0.00    -0.135 A  
HETATM   10  C   UNL     1      -8.774   6.407  66.509  1.00  0.00    -0.133 A  
HETATM   11  C   UNL     1      -9.010   5.021  66.440  1.00  0.00    -0.123 A  
HETATM   12  O   UNL     1     -10.890   4.562  69.553  1.00  0.00     0.799 OA 
HETATM   13  C   UNL     1     -10.192   5.050  68.492  1.00  0.00    -0.073 A  
HETATM   14  C   UNL     1      -9.715   4.308  67.423  1.00  0.00    -0.210 A  
BRANCH  10  15
HETATM   15  N   UNL     1      -8.089   7.072  65.512  1.00  0.00    -0.126 NA 
HETATM   16  C   UNL     1      -7.301   8.286  65.771  1.00  0.00    -0.072 C  
HETATM   17  N   UNL     1      -5.975   7.880  63.638  1.00  0.00    -0.058 NA 
HETATM   18  C   UNL     1      -5.918   8.163  65.095  1.00  0.00    -0.045 C  
HETATM   19  C   UNL     1      -8.185   6.674  64.097  1.00  0.00     0.049 C  
HETATM   20  C   UNL     1      -6.775   6.643  63.455  1.00  0.00    -0.048 C  
BRANCH  17  21
HETATM   21  C   UNL     1      -6.553   8.995  62.871  1.00  0.00    -0.093 C  
BRANCH  21  22
HETATM   22  C   UNL     1      -5.981  10.363  63.272  1.00  0.00    -0.136 C  
BRANCH  22  23
HETATM   23  C   UNL     1      -6.877  11.149  64.231  1.00  0.00     1.143 C  
BRANCH  23  24
HETATM   24  C   UNL     1      -6.317  11.153  65.652  1.00  0.00     0.197 C  
BRANCH  24  25
HETATM   25  C   UNL     1      -7.388  11.156  66.686  1.00  0.00    -0.145 A  
HETATM   26  C   UNL     1      -7.538  10.245  67.713  1.00  0.00    -0.089 A  
HETATM   27  N   UNL     1      -8.657  10.584  68.421  1.00  0.00    -0.126 NA 
HETATM   28  H   UNL     1      -9.006  10.079  69.235  1.00  0.00     0.000 HD 
HETATM   29  C   UNL     1      -9.245  11.704  67.880  1.00  0.00    -0.171 A  
HETATM   30  C   UNL     1      -8.465  12.092  66.793  1.00  0.00    -0.155 A  
HETATM   31  C   UNL     1      -8.848  13.237  66.056  1.00  0.00     0.503 A  
HETATM   32  C   UNL     1     -10.003  13.938  66.426  1.00  0.00    -0.303 A  
HETATM   33  C   UNL     1     -10.765  13.517  67.518  1.00  0.00    -0.266 A  
HETATM   34  C   UNL     1     -10.402  15.095  65.675  1.00  0.00    -0.357 C  
HETATM   35  N   UNL     1     -10.734  16.030  65.071  1.00  0.00    -0.593 NA 
HETATM   36  C   UNL     1     -10.399  12.393  68.267  1.00  0.00    -0.232 A  
ENDBRANCH  24  25
ENDBRANCH  23  24
ENDBRANCH  22  23
ENDBRANCH  21  22
ENDBRANCH  17  21
ENDBRANCH  10  15
ENDBRANCH   2   6
TORSDOF 7
ENDMDL
MODEL      300
REMARK 921   NORMALIZED FREE ENERGY PREDICTED BY IDOCK:    3.39 KCAL/MOL
REMARK 922        TOTAL FREE ENERGY PREDICTED BY IDOCK:    3.50 KCAL/MOL
REMARK 923 INTER-LIGAND FREE ENERGY PREDICTED BY IDOCK:   -4.64 KCAL/MOL
REMARK 924 INTRA-LIGAND FREE ENERGY PREDICTED BY IDOCK:    8.14 KCAL/MOL
REMARK 927      BINDING AFFINITY PREDICTED BY RF-SCORE:    0.00 PKD
ROOT
HETATM    1  N   UNL     1     -10.559   7.162  74.166  1.00  0.00    -0.430 N  
HETATM    2  C   UNL     1     -11.375   7.619  73.171  1.00  0.00    -0.177 C  
HETATM    3  H1  UNL     1      -9.578   6.962  73.974  1.00  0.00     0.000 HD 
HETATM    4  H2  UNL     1     -10.932   7.021  75.105  1.00  0.00     0.000 HD 
HETATM    5  O   UNL     1     -12.556   7.860  73.402  1.00  0.00     0.678 OA 
ENDROOT
BRANCH   2   6
HETATM    6  C   UNL     1     -10.737   7.801  71.890  1.00  0.00    -0.225 A  
HETATM    7  C   UNL     1     -10.876   8.809  70.955  1.00  0.00    -0.321 A  
HETATM    8  C   UNL     1      -9.981   8.517  69.899  1.00  0.00    -0.189 A  
HETATM    9  C   UNL     1      -9.624   9.135  68.688  1.00  0.00    -0.157 A  
HETATM   10  C   UNL     1      -8.670   8.550  67.833  1.00  0.00    -0.138 A  
HETATM   11  C   UNL     1      -8.099   7.329  68.240  1.00  0.00    -0.124 A  
HETATM   12  O   UNL     1      -9.817   6.884  71.447  1.00  0.00    -0.178 OA 
HETATM   13  C   UNL     1      -9.365   7.323  70.241  1.00  0.00    -0.158 A  
HETATM   14  C   UNL     1      -8.423   6.689  69.446  1.00  0.00    -0.131 A  
BRANCH  10  15
HETATM   15  N   UNL     1      -8.335   9.137  66.629  1.00  0.00    -0.121 NA 
HETATM   16  C   UNL     1      -7.612  10.415  66.550  1.00  0.00    -0.118 C  
HETATM   17  N   UNL     1      -6.873   9.849  64.182  1.00  0.00    -0.122 NA 
HETATM   18  C   UNL     1      -6.454  10.296  65.536  1.00  0.00    -0.121 C  
HETATM   19  C   UNL     1      -8.770   8.579  65.338  1.00  0.00    -0.159 C  
HETATM   20  C   UNL     1      -7.585   8.557  64.340  1.00  0.00    -0.117 C  
BRANCH  17  21
HETATM   21  C   UNL     1      -7.727  10.838  63.504  1.00  0.00     0.234 C  
BRANCH  21  22
HETATM   22  C   UNL     1      -9.158  10.336  63.267  1.00  0.00    -0.284 C  
BRANCH  22  23
HETATM   23  C   UNL     1      -9.782   9.651  64.485  1.00  0.00     0.030 C  
BRANCH  23  24
HETATM   24  C   UNL     1     -10.922  10.479  65.075  1.00  0.00     0.393 C  
BRANCH  24  25
HETATM   25  C   UNL     1     -10.926  11.881  64.573  1.00  0.00    -0.376 A  
HETATM   26  C   UNL     1     -10.920  12.277  63.250  1.00  0.00    -0.311 A  
HETATM   27  N   UNL     1     -10.900  13.643  63.217  1.00  0.00     0.441 NA 
HETATM   28  H   UNL     1     -10.890  14.205  62.366  1.00  0.00     0.000 HD 
HETATM   29  C   UNL     1     -10.894  14.153  64.494  1.00  0.00    -0.320 A  
HETATM   30  C   UNL     1     -10.919  13.070  65.369  1.00  0.00    -0.297 A  
HETATM   31  C   UNL     1     -10.928  13.319  66.761  1.00  0.00    -0.302 A  
HETATM   32  C   UNL     1     -10.896  14.642  67.223  1.00  0.00    -0.305 A  
HETATM   33  C   UNL     1     -10.865  15.705  66.317  1.00  0.00    -0.262 A  
HETATM   34  C   UNL     1     -10.895  14.901  68.635  1.00  0.00    -0.251 C  
HETATM   35  N   UNL     1     -10.890  15.120  69.776  1.00  0.00    -0.273 NA 
HETATM   36  C   UNL     1     -10.865  15.481  64.935  1.00  0.00    -0.447 A  
ENDBRANCH  24  25
ENDBRANCH  23  24
ENDBRANCH  22  23
ENDBRANCH  21  22
ENDBRANCH  17  21
ENDBRANCH  10  15
ENDBRANCH   2   6
TORSDOF 7
ENDMDL
MODEL      301
REMARK 921   NORMALIZED FREE ENERGY PREDICTED BY IDOCK:    4.17 KCAL/MOL
REMARK 922        TOTAL FREE ENERGY PREDICTED BY IDOCK:    4.61 KCAL/MOL
REMARK 923 INTER-LIGAND FREE ENERGY PREDICTED BY IDOCK:    0.74 KCAL/MOL
REMARK 924 INTRA-LIGAND FREE ENERGY PREDICTED BY IDOCK:    3.87 KCAL/MOL
REMARK 927      BINDING AFFINITY PREDICTED BY RF-SCORE:    0.00 PKD
ROOT
HETATM    1  N   UNL     1     -11.784   9.643  66.500  1.00  0.00     2.185 N  
HETATM    2  C   UNL     1     -10.500   9.435  66.917  1.00  0.00    -0.211 C  
HETATM    3  H1  UNL     1     -12.154  10.591  66.432  1.00  0.00     0.000 HD 
HETATM    4  H2  UNL     1     -12.374   8.848  66.255  1.00  0.00     0.000 HD 
HETATM    5  O   UNL     1     -10.055   8.295  66.999  1.00  0.00    -0.226 OA 
ENDROOT
BRANCH   2   6
HETATM    6  C   UNL     1      -9.751  10.632  67.217  1.00  0.00    -0.168 A  
HETATM    7  C   UNL     1      -9.918  11.929  66.771  1.00  0.00    -0.215 A  
HETATM    8  C   UNL     1      -8.933  12.714  67.414  1.00  0.00    -0.190 A  
HETATM    9  C   UNL     1      -8.583  14.076  67.419  1.00  0.00    -0.211 A  
HETATM   10  C   UNL     1      -7.502  14.541  68.193  1.00  0.00    -0.126 A  
HETATM   11  C   UNL     1      -6.793  13.589  68.951  1.00  0.00    -0.111 A  
HETATM   12  O   UNL     1      -8.689  10.574  68.085  1.00  0.00    -0.125 OA 
HETATM   13  C   UNL     1      -8.199  11.839  68.198  1.00  0.00    -0.153 A  
HETATM   14  C   UNL     1      -7.121  12.225  68.980  1.00  0.00    -0.051 A  
BRANCH  10  15
HETATM   15  N   UNL     1      -7.136  15.871  68.181  1.00  0.00    -0.114 NA 
HETATM   16  C   UNL     1      -6.193  16.439  69.157  1.00  0.00    -0.169 C  
HETATM   17  N   UNL     1      -5.715  18.370  67.571  1.00  0.00    -0.149 NA 
HETATM   18  C   UNL     1      -5.140  17.298  68.424  1.00  0.00    -0.132 C  
HETATM   19  C   UNL     1      -7.743  16.842  67.255  1.00  0.00    -0.169 C  
HETATM   20  C   UNL     1      -6.645  17.725  66.611  1.00  0.00    -0.204 C  
BRANCH  17  21
HETATM   21  C   UNL     1      -6.409  19.403  68.358  1.00  0.00    -0.241 C  
BRANCH  21  22
HETATM   22  C   UNL     1      -6.121  20.829  67.868  1.00  0.00    -0.352 C  
BRANCH  22  23
HETATM   23  C   UNL     1      -6.847  21.194  66.571  1.00  0.00    -0.171 C  
BRANCH  23  24
HETATM   24  C   UNL     1      -7.732  20.050  66.079  1.00  0.00    -0.318 C  
BRANCH  24  25
HETATM   25  C   UNL     1      -8.908  19.820  66.963  1.00  0.00    -0.395 A  
HETATM   26  C   UNL     1      -9.253  20.561  68.076  1.00  0.00     0.015 A  
HETATM   27  N   UNL     1     -10.379  20.009  68.620  1.00  0.00    -0.490 NA 
HETATM   28  H   UNL     1     -10.853  20.356  69.454  1.00  0.00     0.000 HD 
HETATM   29  C   UNL     1     -10.782  18.919  67.884  1.00  0.00    -0.288 A  
HETATM   30  C   UNL     1      -9.882  18.781  66.831  1.00  0.00    -0.366 A  
HETATM   31  C   UNL     1     -10.075  17.729  65.906  1.00  0.00    -0.183 A  
HETATM   32  C   UNL     1     -11.151  16.848  66.079  1.00  0.00     0.319 A  
HETATM   33  C   UNL     1     -12.032  17.013  67.151  1.00  0.00     2.036 A  
HETATM   34  C   UNL     1     -11.347  15.772  65.149  1.00  0.00    -0.154 C  
HETATM   35  N   UNL     1     -11.510  14.897  64.403  1.00  0.00    -0.297 NA 
HETATM   36  C   UNL     1     -11.865  18.054  68.073  1.00  0.00     2.162 A  
ENDBRANCH  24  25
ENDBRANCH  23  24
ENDBRANCH  22  23
ENDBRANCH  21  22
ENDBRANCH  17  21
ENDBRANCH  10  15
ENDBRANCH   2   6
TORSDOF 7
ENDMDL
MODEL      302
REMARK 921   NORMALIZED FREE ENERGY PREDICTED BY IDOCK:    4.81 KCAL/MOL
REMARK 922        TOTAL FREE ENERGY PREDICTED BY IDOCK:    5.50 KCAL/MOL
REMARK 923 INTER-LIGAND FREE ENERGY PREDICTED BY IDOCK:    2.56 KCAL/MOL
REMARK 924 INTRA-LIGAND FREE ENERGY PREDICTED BY IDOCK:    2.94 KCAL/MOL
REMARK 927      BINDING AFFINITY PREDICTED BY RF-SCORE:    0.00 PKD
ROOT
HETATM    1  N   UNL     1      -7.232   3.346  71.537  1.00  0.00    -0.035 N  
HETATM    2  C   UNL     1      -8.148   3.574  70.551  1.00  0.00    -0.053 C  
HETATM    3  H1  UNL     1      -6.616   4.096  71.848  1.00  0.00     0.000 HD 
HETATM    4  H2  UNL     1      -7.163   2.422  71.963  1.00  0.00     0.000 HD 
HETATM    5  O   UNL     1      -8.890   2.671  70.175  1.00  0.00    -0.067 OA 
ENDROOT
BRANCH   2   6
HETATM    6  C   UNL     1      -8.172   4.921  70.035  1.00  0.00    -0.073 A  
HETATM    7  C   UNL     1      -9.168   5.607  69.366  1.00  0.00    -0.145 A  
HETATM    8  C   UNL     1      -8.680   6.914  69.131  1.00  0.00    -0.135 A  
HETATM    9  C   UNL     1      -9.189   8.082  68.535  1.00  0.00    -0.135 A  
HETATM   10  C   UNL     1      -8.406   9.250  68.453  1.00  0.00    -0.119 A  
HETATM   11  C   UNL     1      -7.104   9.195  68.986  1.00  0.00    -0.067 A  
HETATM   12  O   UNL     1      -7.080   5.736  70.200  1.00  0.00    -0.062 OA 
HETATM   13  C   UNL     1      -7.394   6.940  69.648  1.00  0.00    -0.086 A  
HETATM   14  C   UNL     1      -6.567   8.052  69.598  1.00  0.00    -0.038 A  
BRANCH  10  15
HETATM   15  N   UNL     1      -8.889  10.391  67.845  1.00  0.00    -0.125 NA 
HETATM   16  C   UNL     1      -8.828  11.713  68.487  1.00  0.00    -0.131 C  
HETATM   17  N   UNL     1      -9.053  12.827  66.211  1.00  0.00    -0.097 NA 
HETATM   18  C   UNL     1      -8.288  12.754  67.482  1.00  0.00    -0.179 C  
HETATM   19  C   UNL     1      -9.597  10.350  66.554  1.00  0.00    -0.179 C  
HETATM   20  C   UNL     1      -9.065  11.466  65.619  1.00  0.00    -0.161 C  
BRANCH  17  21
HETATM   21  C   UNL     1     -10.424  13.325  66.407  1.00  0.00    -0.284 C  
BRANCH  21  22
HETATM   22  C   UNL     1     -11.444  12.672  65.464  1.00  0.00    -0.375 C  
BRANCH  22  23
HETATM   23  C   UNL     1     -12.651  13.559  65.151  1.00  0.00    -0.485 C  
BRANCH  23  24
HETATM   24  C   UNL     1     -12.368  15.027  65.464  1.00  0.00     0.219 C  
BRANCH  24  25
HETATM   25  C   UNL     1     -10.952  15.403  65.196  1.00  0.00    -0.430 A  
HETATM   26  C   UNL     1     -10.177  14.972  64.138  1.00  0.00     1.845 A  
HETATM   27  N   UNL     1      -8.933  15.524  64.270  1.00  0.00     3.891 NA 
HETATM   28  H   UNL     1      -8.158  15.373  63.626  1.00  0.00     0.000 HD 
HETATM   29  C   UNL     1      -8.877  16.312  65.397  1.00  0.00     1.064 A  
HETATM   30  C   UNL     1     -10.133  16.263  65.995  1.00  0.00    -0.377 A  
HETATM   31  C   UNL     1     -10.352  17.003  67.180  1.00  0.00    -0.305 A  
HETATM   32  C   UNL     1      -9.301  17.750  67.728  1.00  0.00    -0.257 A  
HETATM   33  C   UNL     1      -8.051  17.772  67.104  1.00  0.00    -0.229 A  
HETATM   34  C   UNL     1      -9.514  18.496  68.936  1.00  0.00    -0.247 C  
HETATM   35  N   UNL     1      -9.677  19.098  69.916  1.00  0.00     0.387 NA 
HETATM   36  C   UNL     1      -7.816  17.055  65.925  1.00  0.00     0.037 A  
ENDBRANCH  24  25
ENDBRANCH  23  24
ENDBRANCH  22  23
ENDBRANCH  21  22
ENDBRANCH  17  21
ENDBRANCH  10  15
ENDBRANCH   2   6
TORSDOF 7
ENDMDL
MODEL      303
REMARK 921   NORMALIZED FREE ENERGY PREDICTED BY IDOCK:    6.30 KCAL/MOL
REMARK 922        TOTAL FREE ENERGY PREDICTED BY IDOCK:    7.60 KCAL/MOL
REMARK 923 INTER-LIGAND FREE ENERGY PREDICTED BY IDOCK:   -0.04 KCAL/MOL
REMARK 924 INTRA-LIGAND FREE ENERGY PREDICTED BY IDOCK:    7.64 KCAL/MOL
REMARK 927      BINDING AFFINITY PREDICTED BY RF-SCORE:    0.00 PKD
ROOT
HETATM    1  N   UNL     1      -7.325   9.371  62.607  1.00  0.00    -0.099 N  
HETATM    2  C   UNL     1      -8.444   9.025  63.308  1.00  0.00    -0.177 C  
HETATM    3  H1  UNL     1      -6.965  10.324  62.652  1.00  0.00     0.000 HD 
HETATM    4  H2  UNL     1      -6.847   8.674  62.036  1.00  0.00     0.000 HD 
HETATM    5  O   UNL     1      -8.878   7.878  63.254  1.00  0.00     0.381 OA 
ENDROOT
BRANCH   2   6
HETATM    6  C   UNL     1      -9.025  10.084  64.098  1.00  0.00    -0.236 A  
HETATM    7  C   UNL     1      -9.397  10.108  65.428  1.00  0.00    -0.269 A  
HETATM    8  C   UNL     1      -9.871  11.414  65.698  1.00  0.00    -0.274 A  
HETATM    9  C   UNL     1     -10.362  12.088  66.831  1.00  0.00    -0.238 A  
HETATM   10  C   UNL     1     -10.773  13.433  66.748  1.00  0.00    -0.277 A  
HETATM   11  C   UNL     1     -10.672  14.064  65.494  1.00  0.00    -0.317 A  
HETATM   12  O   UNL     1      -9.274  11.307  63.525  1.00  0.00    -0.202 OA 
HETATM   13  C   UNL     1      -9.787  12.106  64.500  1.00  0.00    -0.125 A  
HETATM   14  C   UNL     1     -10.177  13.427  64.346  1.00  0.00    -0.262 A  
BRANCH  10  15
HETATM   15  N   UNL     1     -11.281  14.092  67.849  1.00  0.00    -0.262 NA 
HETATM   16  C   UNL     1     -12.715  14.382  68.002  1.00  0.00     0.932 C  
HETATM   17  N   UNL     1     -12.398  14.623  70.514  1.00  0.00    -0.316 NA 
HETATM   18  C   UNL     1     -13.178  13.988  69.421  1.00  0.00     1.736 C  
HETATM   19  C   UNL     1     -10.412  14.645  68.902  1.00  0.00    -0.248 C  
HETATM   20  C   UNL     1     -10.970  14.282  70.300  1.00  0.00     0.200 C  
BRANCH  17  21
HETATM   21  C   UNL     1     -12.586  16.082  70.563  1.00  0.00     0.089 C  
BRANCH  21  22
HETATM   22  C   UNL     1     -11.414  16.819  71.228  1.00  0.00     0.328 C  
BRANCH  22  23
HETATM   23  C   UNL     1     -10.089  16.678  70.475  1.00  0.00     1.262 C  
BRANCH  23  24
HETATM   24  C   UNL     1     -10.312  16.413  68.987  1.00  0.00    -0.278 C  
BRANCH  24  25
HETATM   25  C   UNL     1     -10.417  17.671  68.196  1.00  0.00    -0.386 A  
HETATM   26  C   UNL     1     -11.438  18.011  67.331  1.00  0.00     0.981 A  
HETATM   27  N   UNL     1     -11.144  19.230  66.788  1.00  0.00    -0.206 NA 
HETATM   28  H   UNL     1     -11.728  19.722  66.112  1.00  0.00     0.000 HD 
HETATM   29  C   UNL     1      -9.949  19.699  67.281  1.00  0.00    -0.395 A  
HETATM   30  C   UNL     1      -9.472  18.745  68.175  1.00  0.00    -0.365 A  
HETATM   31  C   UNL     1      -8.247  18.988  68.840  1.00  0.00    -0.303 A  
HETATM   32  C   UNL     1      -7.541  20.167  68.571  1.00  0.00    -0.125 A  
HETATM   33  C   UNL     1      -8.046  21.100  67.663  1.00  0.00     0.172 A  
HETATM   34  C   UNL     1      -6.292  20.415  69.234  1.00  0.00    -0.253 C  
HETATM   35  N   UNL     1      -5.279  20.620  69.764  1.00  0.00    -0.301 NA 
HETATM   36  C   UNL     1      -9.261  20.885  67.001  1.00  0.00    -0.206 A  
ENDBRANCH  24  25
ENDBRANCH  23  24
ENDBRANCH  22  23
ENDBRANCH  21  22
ENDBRANCH  17  21
ENDBRANCH  10  15
ENDBRANCH   2   6
TORSDOF 7
ENDMDL
MODEL      304
REMARK 921   NORMALIZED FREE ENERGY PREDICTED BY IDOCK:    6.67 KCAL/MOL
REMARK 922        TOTAL FREE ENERGY PREDICTED BY IDOCK:    8.12 KCAL/MOL
REMARK 923 INTER-LIGAND FREE ENERGY PREDICTED BY IDOCK:    0.06 KCAL/MOL
REMARK 924 INTRA-LIGAND FREE ENERGY PREDICTED BY IDOCK:    8.06 KCAL/MOL
REMARK 927      BINDING AFFINITY PREDICTED BY RF-SCORE:    0.00 PKD
ROOT
HETATM    1  N   UNL     1      -6.225   4.664  63.561  1.00  0.00    -0.021 N  
HETATM    2  C   UNL     1      -5.970   5.381  64.694  1.00  0.00    -0.022 C  
HETATM    3  H1  UNL     1      -6.919   4.994  62.890  1.00  0.00     0.000 HD 
HETATM    4  H2  UNL     1      -5.719   3.797  63.383  1.00  0.00     0.000 HD 
HETATM    5  O   UNL     1      -5.134   4.985  65.501  1.00  0.00    -0.008 OA 
ENDROOT
BRANCH   2   6
HETATM    6  C   UNL     1      -6.727   6.602  64.832  1.00  0.00    -0.049 A  
HETATM    7  C   UNL     1      -7.888   6.861  65.535  1.00  0.00    -0.112 A  
HETATM    8  C   UNL     1      -8.172   8.237  65.364  1.00  0.00    -0.146 A  
HETATM    9  C   UNL     1      -9.167   9.119  65.822  1.00  0.00    -0.294 A  
HETATM   10  C   UNL     1      -9.161  10.474  65.440  1.00  0.00    -0.192 A  
HETATM   11  C   UNL     1      -8.127  10.901  64.585  1.00  0.00     0.230 A  
HETATM   12  O   UNL     1      -6.296   7.748  64.211  1.00  0.00    -0.051 OA 
HETATM   13  C   UNL     1      -7.177   8.733  64.537  1.00  0.00    -0.096 A  
HETATM   14  C   UNL     1      -7.111  10.052  64.117  1.00  0.00    -0.126 A  
BRANCH  10  15
HETATM   15  N   UNL     1     -10.150  11.339  65.863  1.00  0.00    -0.235 NA 
HETATM   16  C   UNL     1     -11.546  10.914  66.043  1.00  0.00     0.883 C  
HETATM   17  N   UNL     1     -11.948  12.891  67.593  1.00  0.00    -0.332 NA 
HETATM   18  C   UNL     1     -12.074  11.423  67.402  1.00  0.00     0.558 C  
HETATM   19  C   UNL     1      -9.899  12.777  66.064  1.00  0.00    -0.255 C  
HETATM   20  C   UNL     1     -10.518  13.244  67.404  1.00  0.00    -0.243 C  
BRANCH  17  21
HETATM   21  C   UNL     1     -12.801  13.653  66.667  1.00  0.00     0.388 C  
BRANCH  21  22
HETATM   22  C   UNL     1     -12.043  14.760  65.920  1.00  0.00    -0.106 C  
BRANCH  22  23
HETATM   23  C   UNL     1     -10.523  14.578  65.925  1.00  0.00    -0.322 C  
BRANCH  23  24
HETATM   24  C   UNL     1      -9.822  15.703  66.684  1.00  0.00    -0.258 C  
BRANCH  24  25
HETATM   25  C   UNL     1     -10.317  17.050  66.288  1.00  0.00    -0.309 A  
HETATM   26  C   UNL     1     -11.222  17.327  65.282  1.00  0.00     0.455 A  
HETATM   27  N   UNL     1     -11.389  18.683  65.224  1.00  0.00     0.392 NA 
HETATM   28  H   UNL     1     -12.003  19.166  64.569  1.00  0.00     0.000 HD 
HETATM   29  C   UNL     1     -10.612  19.302  66.174  1.00  0.00    -0.459 A  
HETATM   30  C   UNL     1      -9.933  18.302  66.865  1.00  0.00    -0.356 A  
HETATM   31  C   UNL     1      -9.062  18.672  67.916  1.00  0.00    -0.314 A  
HETATM   32  C   UNL     1      -8.893  20.028  68.224  1.00  0.00    -0.201 A  
HETATM   33  C   UNL     1      -9.585  21.006  67.506  1.00  0.00    -0.243 A  
HETATM   34  C   UNL     1      -8.002  20.410  69.283  1.00  0.00     0.730 C  
HETATM   35  N   UNL     1      -7.280  20.728  70.136  1.00  0.00     0.889 NA 
HETATM   36  C   UNL     1     -10.460  20.662  66.469  1.00  0.00     0.286 A  
ENDBRANCH  24  25
ENDBRANCH  23  24
ENDBRANCH  22  23
ENDBRANCH  21  22
ENDBRANCH  17  21
ENDBRANCH  10  15
ENDBRANCH   2   6
TORSDOF 7
ENDMDL
MODEL      305
REMARK 921   NORMALIZED FREE ENERGY PREDICTED BY IDOCK:    7.92 KCAL/MOL
REMARK 922        TOTAL FREE ENERGY PREDICTED BY IDOCK:    9.88 KCAL/MOL
REMARK 923 INTER-LIGAND FREE ENERGY PREDICTED BY IDOCK:    8.15 KCAL/MOL
REMARK 924 INTRA-LIGAND FREE ENERGY PREDICTED BY IDOCK:    1.73 KCAL/MOL
REMARK 927      BINDING AFFINITY PREDICTED BY RF-SCORE:    0.00 PKD
ROOT
HETATM    1  N   UNL     1     -11.940   9.331  66.776  1.00  0.00     3.822 N  
HETATM    2  C   UNL     1     -10.679   8.972  67.158  1.00  0.00    -0.136 C  
HETATM    3  H1  UNL     1     -12.275  10.281  66.939  1.00  0.00     0.000 HD 
HETATM    4  H2  UNL     1     -12.549   8.648  66.327  1.00  0.00     0.000 HD 
HETATM    5  O   UNL     1     -10.276   7.830  66.961  1.00  0.00    -0.247 OA 
ENDROOT
BRANCH   2   6
HETATM    6  C   UNL     1      -9.899  10.023  67.764  1.00  0.00    -0.157 A  
HETATM    7  C   UNL     1     -10.081  11.393  67.756  1.00  0.00    -0.198 A  
HETATM    8  C   UNL     1      -9.047  11.950  68.546  1.00  0.00    -0.123 A  
HETATM    9  C   UNL     1      -8.683  13.246  68.951  1.00  0.00     0.272 A  
HETATM   10  C   UNL     1      -7.548  13.457  69.758  1.00  0.00     0.984 A  
HETATM   11  C   UNL     1      -6.801  12.325  70.134  1.00  0.00     0.698 A  
HETATM   12  O   UNL     1      -8.783   9.710  68.500  1.00  0.00    -0.118 OA 
HETATM   13  C   UNL     1      -8.272  10.881  68.968  1.00  0.00    -0.124 A  
HETATM   14  C   UNL     1      -7.141  11.016  69.758  1.00  0.00    -0.052 A  
BRANCH  10  15
HETATM   15  N   UNL     1      -7.169  14.730  70.137  1.00  0.00     0.015 NA 
HETATM   16  C   UNL     1      -6.073  14.977  71.085  1.00  0.00     0.259 C  
HETATM   17  N   UNL     1      -5.831  17.345  70.187  1.00  0.00    -0.232 NA 
HETATM   18  C   UNL     1      -5.140  16.074  70.527  1.00  0.00    -0.175 C  
HETATM   19  C   UNL     1      -7.905  15.928  69.700  1.00  0.00     0.019 C  
HETATM   20  C   UNL     1      -6.914  17.019  69.225  1.00  0.00    -0.198 C  
BRANCH  17  21
HETATM   21  C   UNL     1      -6.372  18.025  71.374  1.00  0.00     2.229 C  
BRANCH  21  22
HETATM   22  C   UNL     1      -6.313  19.556  71.270  1.00  0.00     0.295 C  
BRANCH  22  23
HETATM   23  C   UNL     1      -7.371  20.152  70.337  1.00  0.00     0.636 C  
BRANCH  23  24
HETATM   24  C   UNL     1      -8.214  19.065  69.674  1.00  0.00     0.494 C  
BRANCH  24  25
HETATM   25  C   UNL     1      -8.566  19.397  68.266  1.00  0.00    -0.376 A  
HETATM   26  C   UNL     1      -8.126  20.492  67.549  1.00  0.00    -0.256 A  
HETATM   27  N   UNL     1      -8.697  20.444  66.308  1.00  0.00    -0.560 NA 
HETATM   28  H   UNL     1      -8.547  21.132  65.571  1.00  0.00     0.000 HD 
HETATM   29  C   UNL     1      -9.504  19.336  66.195  1.00  0.00    -0.282 A  
HETATM   30  C   UNL     1      -9.435  18.653  67.407  1.00  0.00    -0.315 A  
HETATM   31  C   UNL     1     -10.173  17.456  67.556  1.00  0.00    -0.332 A  
HETATM   32  C   UNL     1     -10.964  16.999  66.494  1.00  0.00     0.191 A  
HETATM   33  C   UNL     1     -11.015  17.712  65.294  1.00  0.00     0.309 A  
HETATM   34  C   UNL     1     -11.724  15.790  66.643  1.00  0.00     0.522 C  
HETATM   35  N   UNL     1     -12.345  14.815  66.757  1.00  0.00    -0.003 NA 
HETATM   36  C   UNL     1     -10.284  18.894  65.121  1.00  0.00     1.290 A  
ENDBRANCH  24  25
ENDBRANCH  23  24
ENDBRANCH  22  23
ENDBRANCH  21  22
ENDBRANCH  17  21
ENDBRANCH  10  15
ENDBRANCH   2   6
TORSDOF 7
ENDMDL
MODEL      306
REMARK 921   NORMALIZED FREE ENERGY PREDICTED BY IDOCK:    8.03 KCAL/MOL
REMARK 922        TOTAL FREE ENERGY PREDICTED BY IDOCK:   10.05 KCAL/MOL
REMARK 923 INTER-LIGAND FREE ENERGY PREDICTED BY IDOCK:    9.72 KCAL/MOL
REMARK 924 INTRA-LIGAND FREE ENERGY PREDICTED BY IDOCK:    0.32 KCAL/MOL
REMARK 927      BINDING AFFINITY PREDICTED BY RF-SCORE:    0.00 PKD
ROOT
HETATM    1  N   UNL     1     -13.009  17.219  64.325  1.00  0.00     6.669 N  
HETATM    2  C   UNL     1     -12.222  16.144  64.024  1.00  0.00     0.772 C  
HETATM    3  H1  UNL     1     -12.958  17.650  65.247  1.00  0.00     0.000 HD 
HETATM    4  H2  UNL     1     -13.651  17.591  63.625  1.00  0.00     0.000 HD 
HETATM    5  O   UNL     1     -12.284  15.625  62.914  1.00  0.00     1.756 OA 
ENDROOT
BRANCH   2   6
HETATM    6  C   UNL     1     -11.338  15.716  65.081  1.00  0.00    -0.198 A  
HETATM    7  C   UNL     1     -10.754  14.486  65.317  1.00  0.00    -0.390 A  
HETATM    8  C   UNL     1      -9.943  14.631  66.467  1.00  0.00    -0.292 A  
HETATM    9  C   UNL     1      -9.086  13.792  67.202  1.00  0.00    -0.243 A  
HETATM   10  C   UNL     1      -8.415  14.269  68.344  1.00  0.00    -0.166 A  
HETATM   11  C   UNL     1      -8.640  15.608  68.716  1.00  0.00    -0.193 A  
HETATM   12  O   UNL     1     -10.947  16.608  66.048  1.00  0.00    -0.101 OA 
HETATM   13  C   UNL     1     -10.103  15.943  66.885  1.00  0.00    -0.266 A  
HETATM   14  C   UNL     1      -9.479  16.477  68.001  1.00  0.00    -0.222 A  
BRANCH  10  15
HETATM   15  N   UNL     1      -7.594  13.443  69.086  1.00  0.00     0.108 NA 
HETATM   16  C   UNL     1      -8.043  12.142  69.603  1.00  0.00     1.375 C  
HETATM   17  N   UNL     1      -5.622  11.389  69.812  1.00  0.00    -0.066 NA 
HETATM   18  C   UNL     1      -6.978  11.065  69.299  1.00  0.00    -0.116 C  
HETATM   19  C   UNL     1      -6.242  13.853  69.503  1.00  0.00    -0.115 C  
HETATM   20  C   UNL     1      -5.234  12.705  69.245  1.00  0.00    -0.069 C  
BRANCH  17  21
HETATM   21  C   UNL     1      -5.569  11.417  71.282  1.00  0.00     0.126 C  
BRANCH  21  22
HETATM   22  C   UNL     1      -5.446  10.020  71.908  1.00  0.00     0.058 C  
BRANCH  22  23
HETATM   23  C   UNL     1      -5.241   8.901  70.883  1.00  0.00    -0.028 C  
BRANCH  23  24
HETATM   24  C   UNL     1      -6.573   8.351  70.377  1.00  0.00    -0.036 C  
BRANCH  24  25
HETATM   25  C   UNL     1      -6.818   6.952  70.826  1.00  0.00    -0.058 A  
HETATM   26  C   UNL     1      -6.099   6.262  71.782  1.00  0.00    -0.041 A  
HETATM   27  N   UNL     1      -6.625   5.003  71.880  1.00  0.00    -0.038 NA 
HETATM   28  H   UNL     1      -6.285   4.278  72.511  1.00  0.00     0.000 HD 
HETATM   29  C   UNL     1      -7.677   4.855  71.007  1.00  0.00    -0.082 A  
HETATM   30  C   UNL     1      -7.829   6.065  70.337  1.00  0.00    -0.106 A  
HETATM   31  C   UNL     1      -8.860   6.187  69.377  1.00  0.00    -0.126 A  
HETATM   32  C   UNL     1      -9.689   5.088  69.115  1.00  0.00    -0.243 A  
HETATM   33  C   UNL     1      -9.505   3.886  69.802  1.00  0.00    -0.264 A  
HETATM   34  C   UNL     1     -10.732   5.202  68.134  1.00  0.00     0.199 C  
HETATM   35  N   UNL     1     -11.575   5.285  67.340  1.00  0.00     2.219 NA 
HETATM   36  C   UNL     1      -8.496   3.747  70.763  1.00  0.00    -0.100 A  
ENDBRANCH  24  25
ENDBRANCH  23  24
ENDBRANCH  22  23
ENDBRANCH  21  22
ENDBRANCH  17  21
ENDBRANCH  10  15
ENDBRANCH   2   6
TORSDOF 7
ENDMDL
MODEL      307
REMARK 921   NORMALIZED FREE ENERGY PREDICTED BY IDOCK:    8.09 KCAL/MOL
REMARK 922        TOTAL FREE ENERGY PREDICTED BY IDOCK:   10.13 KCAL/MOL
REMARK 923 INTER-LIGAND FREE ENERGY PREDICTED BY IDOCK:   11.26 KCAL/MOL
REMARK 924 INTRA-LIGAND FREE ENERGY PREDICTED BY IDOCK:   -1.14 KCAL/MOL
REMARK 927      BINDING AFFINITY PREDICTED BY RF-SCORE:    0.00 PKD
ROOT
HETATM    1  N   UNL     1      -8.341  19.749  68.576  1.00  0.00    -0.280 N  
HETATM    2  C   UNL     1      -9.435  18.948  68.735  1.00  0.00    -0.358 C  
HETATM    3  H1  UNL     1      -7.403  19.362  68.670  1.00  0.00     0.000 HD 
HETATM    4  H2  UNL     1      -8.463  20.739  68.363  1.00  0.00     0.000 HD 
HETATM    5  O   UNL     1     -10.564  19.414  68.622  1.00  0.00    -0.196 OA 
ENDROOT
BRANCH   2   6
HETATM    6  C   UNL     1      -9.145  17.562  69.013  1.00  0.00    -0.050 A  
HETATM    7  C   UNL     1      -7.943  16.933  69.275  1.00  0.00     0.009 A  
HETATM    8  C   UNL     1      -8.236  15.571  69.521  1.00  0.00    -0.209 A  
HETATM    9  C   UNL     1      -7.488  14.430  69.861  1.00  0.00     0.257 A  
HETATM   10  C   UNL     1      -8.115  13.180  70.027  1.00  0.00     2.579 A  
HETATM   11  C   UNL     1      -9.508  13.124  69.836  1.00  0.00     2.570 A  
HETATM   12  O   UNL     1     -10.166  16.645  69.057  1.00  0.00    -0.265 OA 
HETATM   13  C   UNL     1      -9.607  15.442  69.364  1.00  0.00    -0.270 A  
HETATM   14  C   UNL     1     -10.289  14.243  69.507  1.00  0.00     0.089 A  
BRANCH  10  15
HETATM   15  N   UNL     1      -7.383  12.050  70.334  1.00  0.00     1.479 NA 
HETATM   16  C   UNL     1      -6.913  11.110  69.305  1.00  0.00    -0.118 C  
HETATM   17  N   UNL     1      -5.128  10.255  70.903  1.00  0.00    -0.060 NA 
HETATM   18  C   UNL     1      -5.424  10.778  69.544  1.00  0.00    -0.038 C  
HETATM   19  C   UNL     1      -7.109  11.649  71.725  1.00  0.00     6.556 C  
HETATM   20  C   UNL     1      -5.620  11.254  71.883  1.00  0.00     0.606 C  
BRANCH  17  21
HETATM   21  C   UNL     1      -5.741   8.939  71.144  1.00  0.00    -0.043 C  
BRANCH  21  22
HETATM   22  C   UNL     1      -5.387   7.902  70.068  1.00  0.00    -0.023 C  
BRANCH  22  23
HETATM   23  C   UNL     1      -6.607   7.211  69.453  1.00  0.00    -0.044 C  
BRANCH  23  24
HETATM   24  C   UNL     1      -6.968   7.809  68.094  1.00  0.00    -0.079 C  
BRANCH  24  25
HETATM   25  C   UNL     1      -8.378   8.283  68.039  1.00  0.00    -0.129 A  
HETATM   26  C   UNL     1      -9.332   8.133  69.026  1.00  0.00    -0.147 A  
HETATM   27  N   UNL     1     -10.500   8.682  68.575  1.00  0.00    -0.300 NA 
HETATM   28  H   UNL     1     -11.373   8.708  69.101  1.00  0.00     0.000 HD 
HETATM   29  C   UNL     1     -10.331   9.191  67.309  1.00  0.00    -0.270 A  
HETATM   30  C   UNL     1      -9.006   8.964  66.948  1.00  0.00    -0.150 A  
HETATM   31  C   UNL     1      -8.560   9.406  65.681  1.00  0.00    -0.159 A  
HETATM   32  C   UNL     1      -9.462  10.042  64.818  1.00  0.00    -0.366 A  
HETATM   33  C   UNL     1     -10.787  10.248  65.209  1.00  0.00     0.426 A  
HETATM   34  C   UNL     1      -9.018  10.484  63.526  1.00  0.00    -0.221 C  
HETATM   35  N   UNL     1      -8.668  10.840  62.477  1.00  0.00    -0.251 NA 
HETATM   36  C   UNL     1     -11.246   9.829  66.464  1.00  0.00     0.720 A  
ENDBRANCH  24  25
ENDBRANCH  23  24
ENDBRANCH  22  23
ENDBRANCH  21  22
ENDBRANCH  17  21
ENDBRANCH  10  15
ENDBRANCH   2   6
TORSDOF 7
ENDMDL
MODEL      308
REMARK 921   NORMALIZED FREE ENERGY PREDICTED BY IDOCK:    8.24 KCAL/MOL
REMARK 922        TOTAL FREE ENERGY PREDICTED BY IDOCK:   10.34 KCAL/MOL
REMARK 923 INTER-LIGAND FREE ENERGY PREDICTED BY IDOCK:   11.41 KCAL/MOL
REMARK 924 INTRA-LIGAND FREE ENERGY PREDICTED BY IDOCK:   -1.07 KCAL/MOL
REMARK 927      BINDING AFFINITY PREDICTED BY RF-SCORE:    0.00 PKD
ROOT
HETATM    1  N   UNL     1      -8.341  19.749  68.576  1.00  0.00    -0.280 N  
HETATM    2  C   UNL     1      -9.441  18.957  68.742  1.00  0.00    -0.358 C  
HETATM    3  H1  UNL     1      -7.405  19.354  68.667  1.00  0.00     0.000 HD 
HETATM    4  H2  UNL     1      -8.456  20.740  68.361  1.00  0.00     0.000 HD 
HETATM    5  O   UNL     1     -10.567  19.432  68.633  1.00  0.00    -0.196 OA 
ENDROOT
BRANCH   2   6
HETATM    6  C   UNL     1      -9.160  17.570  69.023  1.00  0.00    -0.050 A  
HETATM    7  C   UNL     1      -7.962  16.932  69.282  1.00  0.00     0.009 A  
HETATM    8  C   UNL     1      -8.266  15.573  69.534  1.00  0.00    -0.209 A  
HETATM    9  C   UNL     1      -7.525  14.428  69.875  1.00  0.00     0.257 A  
HETATM   10  C   UNL     1      -8.161  13.183  70.047  1.00  0.00     2.769 A  
HETATM   11  C   UNL     1      -9.556  13.137  69.862  1.00  0.00     2.444 A  
HETATM   12  O   UNL     1     -10.188  16.661  69.075  1.00  0.00    -0.265 OA 
HETATM   13  C   UNL     1      -9.638  15.455  69.383  1.00  0.00    -0.270 A  
HETATM   14  C   UNL     1     -10.329  14.262  69.533  1.00  0.00     0.089 A  
BRANCH  10  15
HETATM   15  N   UNL     1      -7.437  12.049  70.355  1.00  0.00     1.768 NA 
HETATM   16  C   UNL     1      -6.979  11.102  69.327  1.00  0.00    -0.118 C  
HETATM   17  N   UNL     1      -5.194  10.237  70.920  1.00  0.00    -0.066 NA 
HETATM   18  C   UNL     1      -5.492  10.758  69.561  1.00  0.00    -0.038 C  
HETATM   19  C   UNL     1      -7.161  11.649  71.746  1.00  0.00     7.280 C  
HETATM   20  C   UNL     1      -5.674  11.244  71.899  1.00  0.00     0.820 C  
BRANCH  17  21
HETATM   21  C   UNL     1      -5.817   8.927  71.168  1.00  0.00    -0.046 C  
BRANCH  21  22
HETATM   22  C   UNL     1      -5.476   7.884  70.094  1.00  0.00    -0.023 C  
BRANCH  22  23
HETATM   23  C   UNL     1      -6.703   7.200  69.486  1.00  0.00    -0.049 C  
BRANCH  23  24
HETATM   24  C   UNL     1      -7.942   8.090  69.568  1.00  0.00    -0.115 C  
BRANCH  24  25
HETATM   25  C   UNL     1      -9.077   7.422  70.263  1.00  0.00    -0.151 A  
HETATM   26  C   UNL     1      -9.108   6.116  70.711  1.00  0.00    -0.150 A  
HETATM   27  N   UNL     1     -10.336   5.888  71.268  1.00  0.00    -0.213 NA 
HETATM   28  H   UNL     1     -10.634   5.004  71.678  1.00  0.00     0.000 HD 
HETATM   29  C   UNL     1     -11.111   7.022  71.197  1.00  0.00    -0.258 A  
HETATM   30  C   UNL     1     -10.344   8.006  70.579  1.00  0.00    -0.205 A  
HETATM   31  C   UNL     1     -10.909   9.288  70.388  1.00  0.00    -0.302 A  
HETATM   32  C   UNL     1     -12.223   9.531  70.809  1.00  0.00    -0.269 A  
HETATM   33  C   UNL     1     -12.966   8.519  71.421  1.00  0.00    -0.267 A  
HETATM   34  C   UNL     1     -12.805  10.828  70.610  1.00  0.00    -0.293 C  
HETATM   35  N   UNL     1     -13.284  11.874  70.448  1.00  0.00     0.557 NA 
HETATM   36  C   UNL     1     -12.423   7.245  71.629  1.00  0.00    -0.394 A  
ENDBRANCH  24  25
ENDBRANCH  23  24
ENDBRANCH  22  23
ENDBRANCH  21  22
ENDBRANCH  17  21
ENDBRANCH  10  15
ENDBRANCH   2   6
TORSDOF 7
ENDMDL
MODEL      309
REMARK 921   NORMALIZED FREE ENERGY PREDICTED BY IDOCK:   11.68 KCAL/MOL
REMARK 922        TOTAL FREE ENERGY PREDICTED BY IDOCK:   15.18 KCAL/MOL
REMARK 923 INTER-LIGAND FREE ENERGY PREDICTED BY IDOCK:   14.15 KCAL/MOL
REMARK 924 INTRA-LIGAND FREE ENERGY PREDICTED BY IDOCK:    1.03 KCAL/MOL
REMARK 927      BINDING AFFINITY PREDICTED BY RF-SCORE:    0.00 PKD
ROOT
HETATM    1  N   UNL     1      -8.581  15.175  71.070  1.00  0.00     1.701 N  
HETATM    2  C   UNL     1      -7.991  15.110  69.840  1.00  0.00     0.116 C  
HETATM    3  H1  UNL     1      -9.256  14.466  71.354  1.00  0.00     0.000 HD 
HETATM    4  H2  UNL     1      -8.344  15.935  71.707  1.00  0.00     0.000 HD 
HETATM    5  O   UNL     1      -7.178  15.963  69.499  1.00  0.00    -0.207 OA 
ENDROOT
BRANCH   2   6
HETATM    6  C   UNL     1      -8.384  13.981  69.031  1.00  0.00     0.137 A  
HETATM    7  C   UNL     1      -8.184  12.628  69.224  1.00  0.00     0.757 A  
HETATM    8  C   UNL     1      -8.815  11.962  68.146  1.00  0.00    -0.178 A  
HETATM    9  C   UNL     1      -8.999  10.620  67.767  1.00  0.00    -0.140 A  
HETATM   10  C   UNL     1      -9.692  10.294  66.585  1.00  0.00    -0.185 A  
HETATM   11  C   UNL     1     -10.184  11.359  65.808  1.00  0.00    -0.295 A  
HETATM   12  O   UNL     1      -9.086  14.185  67.868  1.00  0.00    -0.176 OA 
HETATM   13  C   UNL     1      -9.341  12.957  67.338  1.00  0.00    -0.194 A  
HETATM   14  C   UNL     1     -10.029  12.709  66.160  1.00  0.00    -0.269 A  
BRANCH  10  15
HETATM   15  N   UNL     1      -9.853   8.980  66.193  1.00  0.00    -0.286 NA 
HETATM   16  C   UNL     1      -9.190   7.864  66.883  1.00  0.00    -0.155 C  
HETATM   17  N   UNL     1     -10.917   6.254  65.937  1.00  0.00     1.039 NA 
HETATM   18  C   UNL     1     -10.212   6.737  67.151  1.00  0.00    -0.225 C  
HETATM   19  C   UNL     1     -10.616   8.611  64.988  1.00  0.00     4.341 C  
HETATM   20  C   UNL     1     -11.565   7.427  65.300  1.00  0.00     9.465 C  
BRANCH  17  21
HETATM   21  C   UNL     1     -10.012   5.580  64.992  1.00  0.00     0.814 C  
BRANCH  21  22
HETATM   22  C   UNL     1      -9.837   4.083  65.288  1.00  0.00    -0.199 C  
BRANCH  22  23
HETATM   23  C   UNL     1      -8.842   3.789  66.413  1.00  0.00    -0.128 C  
BRANCH  23  24
HETATM   24  C   UNL     1      -9.511   3.074  67.586  1.00  0.00    -0.187 C  
BRANCH  24  25
HETATM   25  C   UNL     1      -8.829   3.345  68.881  1.00  0.00    -0.164 A  
HETATM   26  C   UNL     1      -8.051   2.458  69.598  1.00  0.00    -0.041 A  
HETATM   27  N   UNL     1      -7.634   3.085  70.739  1.00  0.00    -0.040 NA 
HETATM   28  H   UNL     1      -7.045   2.661  71.455  1.00  0.00     0.000 HD 
HETATM   29  C   UNL     1      -8.123   4.370  70.784  1.00  0.00    -0.071 A  
HETATM   30  C   UNL     1      -8.870   4.566  69.626  1.00  0.00    -0.125 A  
HETATM   31  C   UNL     1      -9.482   5.823  69.416  1.00  0.00    -0.162 A  
HETATM   32  C   UNL     1      -9.336   6.829  70.380  1.00  0.00    -0.163 A  
HETATM   33  C   UNL     1      -8.584   6.597  71.534  1.00  0.00    -0.124 A  
HETATM   34  C   UNL     1      -9.964   8.105  70.177  1.00  0.00    -0.187 C  
HETATM   35  N   UNL     1     -10.472   9.138  70.023  1.00  0.00    -0.210 NA 
HETATM   36  C   UNL     1      -7.961   5.363  71.757  1.00  0.00    -0.113 A  
ENDBRANCH  24  25
ENDBRANCH  23  24
ENDBRANCH  22  23
ENDBRANCH  21  22
ENDBRANCH  17  21
ENDBRANCH  10  15
ENDBRANCH   2   6
TORSDOF 7
ENDMDL
MODEL      310
REMARK 921   NORMALIZED FREE ENERGY PREDICTED BY IDOCK:   13.71 KCAL/MOL
REMARK 922        TOTAL FREE ENERGY PREDICTED BY IDOCK:   18.04 KCAL/MOL
REMARK 923 INTER-LIGAND FREE ENERGY PREDICTED BY IDOCK:   16.99 KCAL/MOL
REMARK 924 INTRA-LIGAND FREE ENERGY PREDICTED BY IDOCK:    1.06 KCAL/MOL
REMARK 927      BINDING AFFINITY PREDICTED BY RF-SCORE:    0.00 PKD
ROOT
HETATM    1  N   UNL     1     -12.253   2.959  63.450  1.00  0.00     2.632 N  
HETATM    2  C   UNL     1     -11.161   2.899  64.267  1.00  0.00     0.673 C  
HETATM    3  H1  UNL     1     -12.983   3.651  63.619  1.00  0.00     0.000 HD 
HETATM    4  H2  UNL     1     -12.339   2.310  62.668  1.00  0.00     0.000 HD 
HETATM    5  O   UNL     1     -10.282   2.066  64.064  1.00  0.00    -0.100 OA 
ENDROOT
BRANCH   2   6
HETATM    6  C   UNL     1     -11.133   3.877  65.327  1.00  0.00     0.802 A  
HETATM    7  C   UNL     1     -10.490   3.855  66.550  1.00  0.00     0.847 A  
HETATM    8  C   UNL     1     -10.764   5.092  67.180  1.00  0.00    -0.067 A  
HETATM    9  C   UNL     1     -10.402   5.700  68.396  1.00  0.00    -0.258 A  
HETATM   10  C   UNL     1     -10.875   6.984  68.730  1.00  0.00    -0.157 A  
HETATM   11  C   UNL     1     -11.721   7.623  67.803  1.00  0.00     1.775 A  
HETATM   12  O   UNL     1     -11.815   5.060  65.184  1.00  0.00     0.668 OA 
HETATM   13  C   UNL     1     -11.588   5.789  66.311  1.00  0.00     1.330 A  
HETATM   14  C   UNL     1     -12.094   7.052  66.576  1.00  0.00     4.624 A  
BRANCH  10  15
HETATM   15  N   UNL     1     -10.546   7.574  69.933  1.00  0.00    -0.234 NA 
HETATM   16  C   UNL     1     -10.958   8.943  70.279  1.00  0.00    -0.241 C  
HETATM   17  N   UNL     1     -10.637   8.416  72.747  1.00  0.00    -0.247 NA 
HETATM   18  C   UNL     1     -11.545   8.965  71.707  1.00  0.00    -0.352 C  
HETATM   19  C   UNL     1      -9.668   6.915  70.915  1.00  0.00    -0.178 C  
HETATM   20  C   UNL     1     -10.271   7.037  72.336  1.00  0.00    -0.188 C  
BRANCH  17  21
HETATM   21  C   UNL     1      -9.434   9.242  72.934  1.00  0.00     2.117 C  
BRANCH  21  22
HETATM   22  C   UNL     1      -8.752   9.625  71.613  1.00  0.00     1.282 C  
BRANCH  22  23
HETATM   23  C   UNL     1      -7.236   9.804  71.730  1.00  0.00     1.082 C  
BRANCH  23  24
HETATM   24  C   UNL     1      -6.767  11.091  71.053  1.00  0.00     1.386 C  
BRANCH  24  25
HETATM   25  C   UNL     1      -6.903  11.036  69.571  1.00  0.00    -0.133 A  
HETATM   26  C   UNL     1      -5.896  10.767  68.666  1.00  0.00    -0.039 A  
HETATM   27  N   UNL     1      -6.427  10.838  67.408  1.00  0.00    -0.061 NA 
HETATM   28  H   UNL     1      -5.904  10.683  66.546  1.00  0.00     0.000 HD 
HETATM   29  C   UNL     1      -7.765  11.147  67.470  1.00  0.00    -0.116 A  
HETATM   30  C   UNL     1      -8.096  11.269  68.816  1.00  0.00    -0.130 A  
HETATM   31  C   UNL     1      -9.432  11.577  69.163  1.00  0.00     0.185 A  
HETATM   32  C   UNL     1     -10.380  11.767  68.149  1.00  0.00    -0.213 A  
HETATM   33  C   UNL     1     -10.012  11.643  66.807  1.00  0.00    -0.229 A  
HETATM   34  C   UNL     1     -11.736  12.090  68.494  1.00  0.00    -0.332 C  
HETATM   35  N   UNL     1     -12.833  12.356  68.766  1.00  0.00     1.039 NA 
HETATM   36  C   UNL     1      -8.697  11.328  66.442  1.00  0.00    -0.180 A  
ENDBRANCH  24  25
ENDBRANCH  23  24
ENDBRANCH  22  23
ENDBRANCH  21  22
ENDBRANCH  17  21
ENDBRANCH  10  15
ENDBRANCH   2   6
TORSDOF 7
ENDMDL
MODEL      311
REMARK 921   NORMALIZED FREE ENERGY PREDICTED BY IDOCK:   15.74 KCAL/MOL
REMARK 922        TOTAL FREE ENERGY PREDICTED BY IDOCK:   20.90 KCAL/MOL
REMARK 923 INTER-LIGAND FREE ENERGY PREDICTED BY IDOCK:   18.83 KCAL/MOL
REMARK 924 INTRA-LIGAND FREE ENERGY PREDICTED BY IDOCK:    2.07 KCAL/MOL
REMARK 927      BINDING AFFINITY PREDICTED BY RF-SCORE:    0.00 PKD
ROOT
HETATM    1  N   UNL     1      -6.694   3.051  73.790  1.00  0.00    -0.030 N  
HETATM    2  C   UNL     1      -7.183   3.130  72.518  1.00  0.00    -0.044 C  
HETATM    3  H1  UNL     1      -6.413   3.897  74.285  1.00  0.00     0.000 HD 
HETATM    4  H2  UNL     1      -6.610   2.143  74.247  1.00  0.00     0.000 HD 
HETATM    5  O   UNL     1      -7.522   2.113  71.922  1.00  0.00    -0.038 OA 
ENDROOT
BRANCH   2   6
HETATM    6  C   UNL     1      -7.278   4.465  71.979  1.00  0.00    -0.061 A  
HETATM    7  C   UNL     1      -8.225   5.450  72.186  1.00  0.00    -0.115 A  
HETATM    8  C   UNL     1      -7.809   6.582  71.446  1.00  0.00    -0.100 A  
HETATM    9  C   UNL     1      -8.296   7.887  71.252  1.00  0.00    -0.120 A  
HETATM   10  C   UNL     1      -7.619   8.792  70.411  1.00  0.00    -0.082 A  
HETATM   11  C   UNL     1      -6.446   8.336  69.780  1.00  0.00    -0.036 A  
HETATM   12  O   UNL     1      -6.310   4.928  71.122  1.00  0.00    -0.018 OA 
HETATM   13  C   UNL     1      -6.639   6.209  70.803  1.00  0.00    -0.045 A  
HETATM   14  C   UNL     1      -5.924   7.045  69.960  1.00  0.00    -0.024 A  
BRANCH  10  15
HETATM   15  N   UNL     1      -8.107  10.065  70.194  1.00  0.00    -0.146 NA 
HETATM   16  C   UNL     1      -7.626  11.233  70.947  1.00  0.00     3.882 C  
HETATM   17  N   UNL     1      -8.464  12.768  69.099  1.00  0.00     0.502 NA 
HETATM   18  C   UNL     1      -7.322  12.392  69.972  1.00  0.00     1.399 C  
HETATM   19  C   UNL     1      -9.220  10.329  69.266  1.00  0.00    -0.202 C  
HETATM   20  C   UNL     1      -8.889  11.547  68.369  1.00  0.00    -0.163 C  
BRANCH  17  21
HETATM   21  C   UNL     1      -9.587  13.340  69.860  1.00  0.00     2.370 C  
BRANCH  21  22
HETATM   22  C   UNL     1      -9.394  14.826  70.194  1.00  0.00     0.723 C  
BRANCH  22  23
HETATM   23  C   UNL     1      -8.347  15.524  69.322  1.00  0.00    -0.257 C  
BRANCH  23  24
HETATM   24  C   UNL     1      -8.095  14.759  68.023  1.00  0.00    -0.140 C  
BRANCH  24  25
HETATM   25  C   UNL     1      -7.455  15.607  66.980  1.00  0.00    -0.228 A  
HETATM   26  C   UNL     1      -6.938  15.172  65.775  1.00  0.00     5.962 A  
HETATM   27  N   UNL     1      -6.420  16.254  65.121  1.00  0.00     4.406 NA 
HETATM   28  H   UNL     1      -5.972  16.222  64.205  1.00  0.00     0.000 HD 
HETATM   29  C   UNL     1      -6.589  17.394  65.872  1.00  0.00    -0.045 A  
HETATM   30  C   UNL     1      -7.245  17.020  67.042  1.00  0.00    -0.224 A  
HETATM   31  C   UNL     1      -7.553  18.017  67.997  1.00  0.00    -0.244 A  
HETATM   32  C   UNL     1      -7.180  19.345  67.750  1.00  0.00    -0.284 A  
HETATM   33  C   UNL     1      -6.517  19.683  66.568  1.00  0.00    -0.186 A  
HETATM   34  C   UNL     1      -7.481  20.360  68.720  1.00  0.00     0.176 C  
HETATM   35  N   UNL     1      -7.717  21.186  69.502  1.00  0.00     2.523 NA 
HETATM   36  C   UNL     1      -6.211  18.714  65.605  1.00  0.00    -0.288 A  
ENDBRANCH  24  25
ENDBRANCH  23  24
ENDBRANCH  22  23
ENDBRANCH  21  22
ENDBRANCH  17  21
ENDBRANCH  10  15
ENDBRANCH   2   6
TORSDOF 7
ENDMDL
MODEL      312
REMARK 921   NORMALIZED FREE ENERGY PREDICTED BY IDOCK:   17.55 KCAL/MOL
REMARK 922        TOTAL FREE ENERGY PREDICTED BY IDOCK:   23.46 KCAL/MOL
REMARK 923 INTER-LIGAND FREE ENERGY PREDICTED BY IDOCK:   20.07 KCAL/MOL
REMARK 924 INTRA-LIGAND FREE ENERGY PREDICTED BY IDOCK:    3.39 KCAL/MOL
REMARK 927      BINDING AFFINITY PREDICTED BY RF-SCORE:    0.00 PKD
ROOT
HETATM    1  N   UNL     1     -10.303  13.984  73.553  1.00  0.00     5.468 N  
HETATM    2  C   UNL     1     -11.312  13.851  72.643  1.00  0.00     2.952 C  
HETATM    3  H1  UNL     1      -9.342  13.771  73.289  1.00  0.00     0.000 HD 
HETATM    4  H2  UNL     1     -10.512  14.298  74.501  1.00  0.00     0.000 HD 
HETATM    5  O   UNL     1     -12.469  14.108  72.960  1.00  0.00    -0.176 OA 
ENDROOT
BRANCH   2   6
HETATM    6  C   UNL     1     -10.899  13.421  71.329  1.00  0.00     3.959 A  
HETATM    7  C   UNL     1     -11.584  12.709  70.363  1.00  0.00     0.082 A  
HETATM    8  C   UNL     1     -10.724  12.601  69.245  1.00  0.00     0.031 A  
HETATM    9  C   UNL     1     -10.816  12.037  67.960  1.00  0.00    -0.254 A  
HETATM   10  C   UNL     1      -9.730  12.099  67.065  1.00  0.00    -0.202 A  
HETATM   11  C   UNL     1      -8.560  12.743  67.511  1.00  0.00    -0.187 A  
HETATM   12  O   UNL     1      -9.644  13.734  70.870  1.00  0.00     4.191 OA 
HETATM   13  C   UNL     1      -9.545  13.233  69.608  1.00  0.00     1.583 A  
HETATM   14  C   UNL     1      -8.436  13.327  68.781  1.00  0.00     0.123 A  
BRANCH  10  15
HETATM   15  N   UNL     1      -9.804  11.523  65.813  1.00  0.00    -0.225 NA 
HETATM   16  C   UNL     1     -10.004  10.079  65.619  1.00  0.00    -0.285 C  
HETATM   17  N   UNL     1     -10.857  10.514  63.262  1.00  0.00     0.683 NA 
HETATM   18  C   UNL     1     -11.107   9.844  64.564  1.00  0.00     3.457 C  
HETATM   19  C   UNL     1      -9.580  12.298  64.580  1.00  0.00     0.112 C  
HETATM   20  C   UNL     1     -10.672  11.962  63.534  1.00  0.00    -0.442 C  
BRANCH  17  21
HETATM   21  C   UNL     1      -9.687   9.961  62.561  1.00  0.00     0.226 C  
BRANCH  21  22
HETATM   22  C   UNL     1      -8.376  10.677  62.916  1.00  0.00    -0.158 C  
BRANCH  22  23
HETATM   23  C   UNL     1      -7.813  10.292  64.286  1.00  0.00    -0.117 C  
BRANCH  23  24
HETATM   24  C   UNL     1      -6.461   9.592  64.163  1.00  0.00    -0.111 C  
BRANCH  24  25
HETATM   25  C   UNL     1      -6.529   8.152  64.537  1.00  0.00    -0.064 A  
HETATM   26  C   UNL     1      -6.456   7.078  63.673  1.00  0.00    -0.044 A  
HETATM   27  N   UNL     1      -6.585   5.933  64.409  1.00  0.00    -0.040 NA 
HETATM   28  H   UNL     1      -6.569   4.989  64.024  1.00  0.00     0.000 HD 
HETATM   29  C   UNL     1      -6.740   6.235  65.741  1.00  0.00    -0.048 A  
HETATM   30  C   UNL     1      -6.700   7.622  65.855  1.00  0.00    -0.046 A  
HETATM   31  C   UNL     1      -6.828   8.204  67.138  1.00  0.00    -0.070 A  
HETATM   32  C   UNL     1      -7.006   7.376  68.254  1.00  0.00    -0.079 A  
HETATM   33  C   UNL     1      -7.048   5.988  68.103  1.00  0.00    -0.078 A  
HETATM   34  C   UNL     1      -7.147   7.961  69.557  1.00  0.00    -0.059 C  
HETATM   35  N   UNL     1      -7.266   8.426  70.615  1.00  0.00    -0.048 NA 
HETATM   36  C   UNL     1      -6.914   5.391  66.843  1.00  0.00    -0.065 A  
ENDBRANCH  24  25
ENDBRANCH  23  24
ENDBRANCH  22  23
ENDBRANCH  21  22
ENDBRANCH  17  21
ENDBRANCH  10  15
ENDBRANCH   2   6
TORSDOF 7
ENDMDL
MODEL      313
REMARK 921   NORMALIZED FREE ENERGY PREDICTED BY IDOCK:   20.38 KCAL/MOL
REMARK 922        TOTAL FREE ENERGY PREDICTED BY IDOCK:   27.44 KCAL/MOL
REMARK 923 INTER-LIGAND FREE ENERGY PREDICTED BY IDOCK:   25.36 KCAL/MOL
REMARK 924 INTRA-LIGAND FREE ENERGY PREDICTED BY IDOCK:    2.07 KCAL/MOL
REMARK 927      BINDING AFFINITY PREDICTED BY RF-SCORE:    0.00 PKD
ROOT
HETATM    1  N   UNL     1      -6.691   3.051  73.783  1.00  0.00    -0.030 N  
HETATM    2  C   UNL     1      -7.133   3.016  72.492  1.00  0.00    -0.039 C  
HETATM    3  H1  UNL     1      -6.395   3.933  74.201  1.00  0.00     0.000 HD 
HETATM    4  H2  UNL     1      -6.657   2.192  74.332  1.00  0.00     0.000 HD 
HETATM    5  O   UNL     1      -7.489   1.955  71.989  1.00  0.00    -0.038 OA 
ENDROOT
BRANCH   2   6
HETATM    6  C   UNL     1      -7.160   4.292  71.818  1.00  0.00    -0.050 A  
HETATM    7  C   UNL     1      -8.079   5.321  71.884  1.00  0.00    -0.114 A  
HETATM    8  C   UNL     1      -7.594   6.358  71.053  1.00  0.00    -0.090 A  
HETATM    9  C   UNL     1      -8.028   7.651  70.707  1.00  0.00    -0.102 A  
HETATM   10  C   UNL     1      -7.286   8.445  69.811  1.00  0.00    -0.060 A  
HETATM   11  C   UNL     1      -6.105   7.892  69.281  1.00  0.00    -0.034 A  
HETATM   12  O   UNL     1      -6.142   4.634  70.963  1.00  0.00    -0.017 OA 
HETATM   13  C   UNL     1      -6.413   5.886  70.503  1.00  0.00    -0.036 A  
HETATM   14  C   UNL     1      -5.636   6.610  69.612  1.00  0.00    -0.015 A  
BRANCH  10  15
HETATM   15  N   UNL     1      -7.720   9.703  69.446  1.00  0.00    -0.091 NA 
HETATM   16  C   UNL     1      -8.931   9.917  68.640  1.00  0.00    -0.128 C  
HETATM   17  N   UNL     1      -9.074  12.311  69.490  1.00  0.00     1.249 NA 
HETATM   18  C   UNL     1      -9.793  11.028  69.280  1.00  0.00    -0.035 C  
HETATM   19  C   UNL     1      -6.943  10.918  69.748  1.00  0.00    -0.120 C  
HETATM   20  C   UNL     1      -7.874  12.019  70.313  1.00  0.00     3.160 C  
BRANCH  17  21
HETATM   21  C   UNL     1      -8.695  12.956  68.223  1.00  0.00    -0.168 C  
BRANCH  21  22
HETATM   22  C   UNL     1      -9.839  13.761  67.590  1.00  0.00    -0.234 C  
BRANCH  22  23
HETATM   23  C   UNL     1     -10.967  14.102  68.567  1.00  0.00    -0.271 C  
BRANCH  23  24
HETATM   24  C   UNL     1     -10.505  14.000  70.020  1.00  0.00     0.663 C  
BRANCH  24  25
HETATM   25  C   UNL     1     -10.613  15.297  70.744  1.00  0.00    -0.071 A  
HETATM   26  C   UNL     1     -10.450  15.493  72.101  1.00  0.00     1.670 A  
HETATM   27  N   UNL     1     -10.657  16.818  72.365  1.00  0.00     3.125 NA 
HETATM   28  H   UNL     1     -10.601  17.243  73.290  1.00  0.00     0.000 HD 
HETATM   29  C   UNL     1     -10.951  17.498  71.206  1.00  0.00     1.939 A  
HETATM   30  C   UNL     1     -10.922  16.570  70.168  1.00  0.00    -0.215 A  
HETATM   31  C   UNL     1     -11.183  17.014  68.851  1.00  0.00     0.097 A  
HETATM   32  C   UNL     1     -11.478  18.365  68.627  1.00  0.00     1.986 A  
HETATM   33  C   UNL     1     -11.505  19.268  69.692  1.00  0.00     4.533 A  
HETATM   34  C   UNL     1     -11.755  18.820  67.293  1.00  0.00     1.663 C  
HETATM   35  N   UNL     1     -11.983  19.195  66.218  1.00  0.00     2.385 NA 
HETATM   36  C   UNL     1     -11.240  18.851  71.002  1.00  0.00     4.849 A  
ENDBRANCH  24  25
ENDBRANCH  23  24
ENDBRANCH  22  23
ENDBRANCH  21  22
ENDBRANCH  17  21
ENDBRANCH  10  15
ENDBRANCH   2   6
TORSDOF 7
ENDMDL
MODEL      314
REMARK 921   NORMALIZED FREE ENERGY PREDICTED BY IDOCK:   30.05 KCAL/MOL
REMARK 922        TOTAL FREE ENERGY PREDICTED BY IDOCK:   41.07 KCAL/MOL
REMARK 923 INTER-LIGAND FREE ENERGY PREDICTED BY IDOCK:   26.65 KCAL/MOL
REMARK 924 INTRA-LIGAND FREE ENERGY PREDICTED BY IDOCK:   14.42 KCAL/MOL
REMARK 927      BINDING AFFINITY PREDICTED BY RF-SCORE:    0.00 PKD
ROOT
HETATM    1  N   UNL     1     -10.242  13.920  73.603  1.00  0.00     6.536 N  
HETATM    2  C   UNL     1     -11.162  13.730  72.612  1.00  0.00     3.953 C  
HETATM    3  H1  UNL     1      -9.255  13.728  73.430  1.00  0.00     0.000 HD 
HETATM    4  H2  UNL     1     -10.542  14.255  74.518  1.00  0.00     0.000 HD 
HETATM    5  O   UNL     1     -12.349  13.961  72.819  1.00  0.00     0.042 OA 
ENDROOT
BRANCH   2   6
HETATM    6  C   UNL     1     -10.623  13.275  71.353  1.00  0.00     5.867 A  
HETATM    7  C   UNL     1     -11.219  12.568  70.327  1.00  0.00     0.581 A  
HETATM    8  C   UNL     1     -10.248  12.427  69.307  1.00  0.00     0.351 A  
HETATM    9  C   UNL     1     -10.217  11.850  68.025  1.00  0.00    -0.199 A  
HETATM   10  C   UNL     1      -9.041  11.877  67.250  1.00  0.00    -0.178 A  
HETATM   11  C   UNL     1      -7.910  12.499  67.811  1.00  0.00    -0.151 A  
HETATM   12  O   UNL     1      -9.319  13.554  71.027  1.00  0.00     6.055 OA 
HETATM   13  C   UNL     1      -9.099  13.036  69.788  1.00  0.00     2.428 A  
HETATM   14  C   UNL     1      -7.907  13.096  69.082  1.00  0.00     0.362 A  
BRANCH  10  15
HETATM   15  N   UNL     1      -8.996  11.288  66.003  1.00  0.00    -0.201 NA 
HETATM   16  C   UNL     1      -9.229   9.850  65.800  1.00  0.00    -0.179 C  
HETATM   17  N   UNL     1      -9.794  10.286  63.358  1.00  0.00    -0.194 NA 
HETATM   18  C   UNL     1     -10.214   9.642  64.630  1.00  0.00     0.909 C  
HETATM   19  C   UNL     1      -8.606  12.038  64.796  1.00  0.00     1.292 C  
HETATM   20  C   UNL     1      -9.586  11.729  63.637  1.00  0.00    -0.189 C  
BRANCH  17  21
HETATM   21  C   UNL     1      -8.575   9.680  62.799  1.00  0.00    -0.204 C  
BRANCH  21  22
HETATM   22  C   UNL     1      -7.319  10.534  63.023  1.00  0.00    -0.034 C  
BRANCH  22  23
HETATM   23  C   UNL     1      -7.120  10.969  64.477  1.00  0.00     0.752 C  
BRANCH  23  24
HETATM   24  C   UNL     1      -6.215  10.000  65.236  1.00  0.00    -0.106 C  
BRANCH  24  25
HETATM   25  C   UNL     1      -6.986   9.037  66.071  1.00  0.00    -0.085 A  
HETATM   26  C   UNL     1      -7.639   9.320  67.254  1.00  0.00    -0.091 A  
HETATM   27  N   UNL     1      -8.200   8.162  67.716  1.00  0.00    -0.127 NA 
HETATM   28  H   UNL     1      -8.742   8.080  68.576  1.00  0.00     0.000 HD 
HETATM   29  C   UNL     1      -7.931   7.123  66.855  1.00  0.00    -0.115 A  
HETATM   30  C   UNL     1      -7.177   7.644  65.807  1.00  0.00    -0.065 A  
HETATM   31  C   UNL     1      -6.770   6.778  64.766  1.00  0.00    -0.042 A  
HETATM   32  C   UNL     1      -7.119   5.422  64.823  1.00  0.00    -0.054 A  
HETATM   33  C   UNL     1      -7.871   4.932  65.893  1.00  0.00    -0.095 A  
HETATM   34  C   UNL     1      -6.700   4.536  63.774  1.00  0.00    -0.043 C  
HETATM   35  N   UNL     1      -6.361   3.811  62.932  1.00  0.00    -0.021 NA 
HETATM   36  C   UNL     1      -8.293   5.774  66.929  1.00  0.00    -0.108 A  
ENDBRANCH  24  25
ENDBRANCH  23  24
ENDBRANCH  22  23
ENDBRANCH  21  22
ENDBRANCH  17  21
ENDBRANCH  10  15
ENDBRANCH   2   6
TORSDOF 7
ENDMDL
MODEL      315
REMARK 921   NORMALIZED FREE ENERGY PREDICTED BY IDOCK:   32.44 KCAL/MOL
REMARK 922        TOTAL FREE ENERGY PREDICTED BY IDOCK:   44.44 KCAL/MOL
REMARK 923 INTER-LIGAND FREE ENERGY PREDICTED BY IDOCK:   44.30 KCAL/MOL
REMARK 924 INTRA-LIGAND FREE ENERGY PREDICTED BY IDOCK:    0.14 KCAL/MOL
REMARK 927      BINDING AFFINITY PREDICTED BY RF-SCORE:    0.00 PKD
ROOT
HETATM    1  N   UNL     1      -6.131  16.971  63.294  1.00  0.00     8.292 N  
HETATM    2  C   UNL     1      -6.210  17.152  64.645  1.00  0.00     4.244 C  
HETATM    3  H1  UNL     1      -6.016  16.034  62.908  1.00  0.00     0.000 HD 
HETATM    4  H2  UNL     1      -6.188  17.775  62.669  1.00  0.00     0.000 HD 
HETATM    5  O   UNL     1      -6.349  18.279  65.110  1.00  0.00    -0.342 OA 
ENDROOT
BRANCH   2   6
HETATM    6  C   UNL     1      -6.139  15.944  65.431  1.00  0.00     7.015 A  
HETATM    7  C   UNL     1      -6.594  15.679  66.709  1.00  0.00     0.565 A  
HETATM    8  C   UNL     1      -6.304  14.320  66.974  1.00  0.00     1.057 A  
HETATM    9  C   UNL     1      -6.519  13.441  68.050  1.00  0.00    -0.131 A  
HETATM   10  C   UNL     1      -6.078  12.105  67.990  1.00  0.00    -0.062 A  
HETATM   11  C   UNL     1      -5.416  11.694  66.817  1.00  0.00    -0.125 A  
HETATM   12  O   UNL     1      -5.556  14.819  64.905  1.00  0.00    13.431 OA 
HETATM   13  C   UNL     1      -5.658  13.840  65.846  1.00  0.00     7.191 A  
HETATM   14  C   UNL     1      -5.193  12.540  65.719  1.00  0.00     3.150 A  
BRANCH  10  15
HETATM   15  N   UNL     1      -6.261  11.244  69.053  1.00  0.00    -0.052 NA 
HETATM   16  C   UNL     1      -5.241  11.046  70.093  1.00  0.00    -0.060 C  
HETATM   17  N   UNL     1      -7.029  10.179  71.682  1.00  0.00     0.571 NA 
HETATM   18  C   UNL     1      -5.897  11.123  71.488  1.00  0.00     0.553 C  
HETATM   19  C   UNL     1      -7.451  10.382  69.166  1.00  0.00    -0.112 C  
HETATM   20  C   UNL     1      -8.017  10.442  70.606  1.00  0.00     1.253 C  
BRANCH  17  21
HETATM   21  C   UNL     1      -6.596   8.773  71.662  1.00  0.00    -0.075 C  
BRANCH  21  22
HETATM   22  C   UNL     1      -7.479   7.858  72.523  1.00  0.00    -0.123 C  
BRANCH  22  23
HETATM   23  C   UNL     1      -8.579   8.602  73.285  1.00  0.00     0.104 C  
BRANCH  23  24
HETATM   24  C   UNL     1      -9.769   7.693  73.587  1.00  0.00    -0.314 C  
BRANCH  24  25
HETATM   25  C   UNL     1     -10.175   6.878  72.409  1.00  0.00    -0.208 A  
HETATM   26  C   UNL     1     -11.257   7.112  71.584  1.00  0.00    -0.244 A  
HETATM   27  N   UNL     1     -11.294   6.123  70.641  1.00  0.00    -0.324 NA 
HETATM   28  H   UNL     1     -11.993   6.048  69.903  1.00  0.00     0.000 HD 
HETATM   29  C   UNL     1     -10.254   5.242  70.831  1.00  0.00    -0.234 A  
HETATM   30  C   UNL     1      -9.528   5.695  71.928  1.00  0.00    -0.171 A  
HETATM   31  C   UNL     1      -8.386   4.967  72.336  1.00  0.00    -0.120 A  
HETATM   32  C   UNL     1      -8.025   3.807  71.639  1.00  0.00    -0.062 A  
HETATM   33  C   UNL     1      -8.781   3.377  70.545  1.00  0.00    -0.128 A  
HETATM   34  C   UNL     1      -6.873   3.057  72.053  1.00  0.00    -0.022 C  
HETATM   35  N   UNL     1      -5.944   2.444  72.385  1.00  0.00    -0.009 NA 
HETATM   36  C   UNL     1      -9.909   4.088  70.119  1.00  0.00    -0.207 A  
ENDBRANCH  24  25
ENDBRANCH  23  24
ENDBRANCH  22  23
ENDBRANCH  21  22
ENDBRANCH  17  21
ENDBRANCH  10  15
ENDBRANCH   2   6
TORSDOF 7
ENDMDL
MODEL      316
REMARK 921   NORMALIZED FREE ENERGY PREDICTED BY IDOCK:   33.43 KCAL/MOL
REMARK 922        TOTAL FREE ENERGY PREDICTED BY IDOCK:   45.84 KCAL/MOL
REMARK 923 INTER-LIGAND FREE ENERGY PREDICTED BY IDOCK:   45.04 KCAL/MOL
REMARK 924 INTRA-LIGAND FREE ENERGY PREDICTED BY IDOCK:    0.79 KCAL/MOL
REMARK 927      BINDING AFFINITY PREDICTED BY RF-SCORE:    0.00 PKD
ROOT
HETATM    1  N   UNL     1      -6.131  16.971  63.294  1.00  0.00     8.292 N  
HETATM    2  C   UNL     1      -6.214  17.153  64.645  1.00  0.00     4.244 C  
HETATM    3  H1  UNL     1      -6.006  16.035  62.909  1.00  0.00     0.000 HD 
HETATM    4  H2  UNL     1      -6.194  17.773  62.668  1.00  0.00     0.000 HD 
HETATM    5  O   UNL     1      -6.365  18.280  65.108  1.00  0.00    -0.342 OA 
ENDROOT
BRANCH   2   6
HETATM    6  C   UNL     1      -6.134  15.947  65.433  1.00  0.00     7.015 A  
HETATM    7  C   UNL     1      -6.588  15.679  66.710  1.00  0.00     0.565 A  
HETATM    8  C   UNL     1      -6.285  14.323  66.977  1.00  0.00     1.121 A  
HETATM    9  C   UNL     1      -6.495  13.443  68.054  1.00  0.00    -0.131 A  
HETATM   10  C   UNL     1      -6.040  12.111  67.996  1.00  0.00    -0.062 A  
HETATM   11  C   UNL     1      -5.372  11.706  66.825  1.00  0.00    -0.119 A  
HETATM   12  O   UNL     1      -5.538  14.826  64.909  1.00  0.00    13.431 OA 
HETATM   13  C   UNL     1      -5.633  13.848  65.851  1.00  0.00     7.441 A  
HETATM   14  C   UNL     1      -5.155  12.553  65.727  1.00  0.00     2.976 A  
BRANCH  10  15
HETATM   15  N   UNL     1      -6.218  11.250  69.060  1.00  0.00    -0.052 NA 
HETATM   16  C   UNL     1      -5.197  11.063  70.102  1.00  0.00    -0.060 C  
HETATM   17  N   UNL     1      -6.980  10.181  71.689  1.00  0.00     0.571 NA 
HETATM   18  C   UNL     1      -5.857  11.136  71.496  1.00  0.00     0.553 C  
HETATM   19  C   UNL     1      -7.399  10.377  69.172  1.00  0.00    -0.102 C  
HETATM   20  C   UNL     1      -7.969  10.433  70.611  1.00  0.00     1.253 C  
BRANCH  17  21
HETATM   21  C   UNL     1      -6.534   8.779  71.672  1.00  0.00    -0.075 C  
BRANCH  21  22
HETATM   22  C   UNL     1      -7.410   7.857  72.532  1.00  0.00    -0.108 C  
BRANCH  22  23
HETATM   23  C   UNL     1      -8.518   8.591  73.291  1.00  0.00    -0.074 C  
BRANCH  23  24
HETATM   24  C   UNL     1      -9.700   7.671  73.591  1.00  0.00    -0.314 C  
BRANCH  24  25
HETATM   25  C   UNL     1     -10.308   7.105  72.356  1.00  0.00    -0.228 A  
HETATM   26  C   UNL     1     -10.679   5.790  72.155  1.00  0.00    -0.231 A  
HETATM   27  N   UNL     1     -11.170   5.678  70.884  1.00  0.00    -0.136 NA 
HETATM   28  H   UNL     1     -11.516   4.814  70.467  1.00  0.00     0.000 HD 
HETATM   29  C   UNL     1     -11.129   6.896  70.246  1.00  0.00    -0.297 A  
HETATM   30  C   UNL     1     -10.601   7.814  71.149  1.00  0.00    -0.235 A  
HETATM   31  C   UNL     1     -10.459   9.162  70.743  1.00  0.00    -0.322 A  
HETATM   32  C   UNL     1     -10.836   9.533  69.446  1.00  0.00    -0.226 A  
HETATM   33  C   UNL     1     -11.358   8.584  68.564  1.00  0.00     0.744 A  
HETATM   34  C   UNL     1     -10.685  10.898  69.025  1.00  0.00    -0.224 C  
HETATM   35  N   UNL     1     -10.562  11.999  68.676  1.00  0.00    -0.229 NA 
HETATM   36  C   UNL     1     -11.516   7.247  68.948  1.00  0.00     0.403 A  
ENDBRANCH  24  25
ENDBRANCH  23  24
ENDBRANCH  22  23
ENDBRANCH  21  22
ENDBRANCH  17  21
ENDBRANCH  10  15
ENDBRANCH   2   6
TORSDOF 7
ENDMDL
MODEL      317
REMARK 921   NORMALIZED FREE ENERGY PREDICTED BY IDOCK:   36.66 KCAL/MOL
REMARK 922        TOTAL FREE ENERGY PREDICTED BY IDOCK:   50.38 KCAL/MOL
REMARK 923 INTER-LIGAND FREE ENERGY PREDICTED BY IDOCK:   33.67 KCAL/MOL
REMARK 924 INTRA-LIGAND FREE ENERGY PREDICTED BY IDOCK:   16.71 KCAL/MOL
REMARK 927      BINDING AFFINITY PREDICTED BY RF-SCORE:    0.00 PKD
ROOT
HETATM    1  N   UNL     1     -12.677   3.161  63.886  1.00  0.00     6.379 N  
HETATM    2  C   UNL     1     -11.505   3.124  64.585  1.00  0.00     2.135 C  
HETATM    3  H1  UNL     1     -13.284   3.979  63.945  1.00  0.00     0.000 HD 
HETATM    4  H2  UNL     1     -12.947   2.369  63.304  1.00  0.00     0.000 HD 
HETATM    5  O   UNL     1     -10.775   2.140  64.515  1.00  0.00     0.506 OA 
ENDROOT
BRANCH   2   6
HETATM    6  C   UNL     1     -11.213   4.307  65.358  1.00  0.00     0.667 A  
HETATM    7  C   UNL     1     -10.408   4.476  66.468  1.00  0.00    -0.159 A  
HETATM    8  C   UNL     1     -10.446   5.852  66.797  1.00  0.00    -0.344 A  
HETATM    9  C   UNL     1      -9.845   6.666  67.774  1.00  0.00    -0.144 A  
HETATM   10  C   UNL     1     -10.117   8.046  67.829  1.00  0.00    -0.195 A  
HETATM   11  C   UNL     1     -11.009   8.569  66.874  1.00  0.00     0.278 A  
HETATM   12  O   UNL     1     -11.770   5.511  65.003  1.00  0.00     2.076 OA 
HETATM   13  C   UNL     1     -11.302   6.440  65.879  1.00  0.00     2.403 A  
HETATM   14  C   UNL     1     -11.618   7.790  65.877  1.00  0.00     6.040 A  
BRANCH  10  15
HETATM   15  N   UNL     1      -9.553   8.846  68.803  1.00  0.00    -0.155 NA 
HETATM   16  C   UNL     1     -10.358   9.534  69.823  1.00  0.00    -0.230 C  
HETATM   17  N   UNL     1      -8.303   9.729  71.311  1.00  0.00     0.180 NA 
HETATM   18  C   UNL     1      -9.728   9.317  71.216  1.00  0.00    -0.229 C  
HETATM   19  C   UNL     1      -8.112   9.153  68.826  1.00  0.00    -0.101 C  
HETATM   20  C   UNL     1      -7.555   8.992  70.262  1.00  0.00    -0.087 C  
BRANCH  17  21
HETATM   21  C   UNL     1      -8.128  11.182  71.157  1.00  0.00     5.978 C  
BRANCH  21  22
HETATM   22  C   UNL     1      -8.872  11.753  69.942  1.00  0.00     2.273 C  
BRANCH  22  23
HETATM   23  C   UNL     1      -9.760  12.955  70.272  1.00  0.00     4.081 C  
BRANCH  23  24
HETATM   24  C   UNL     1     -10.182  13.708  69.011  1.00  0.00    -0.006 C  
BRANCH  24  25
HETATM   25  C   UNL     1      -9.083  13.800  68.010  1.00  0.00    -0.191 A  
HETATM   26  C   UNL     1      -8.954  14.755  67.021  1.00  0.00    -0.238 A  
HETATM   27  N   UNL     1      -7.827  14.470  66.301  1.00  0.00     0.450 NA 
HETATM   28  H   UNL     1      -7.491  15.014  65.506  1.00  0.00     0.000 HD 
HETATM   29  C   UNL     1      -7.212  13.346  66.799  1.00  0.00     0.994 A  
HETATM   30  C   UNL     1      -7.973  12.907  67.880  1.00  0.00    -0.156 A  
HETATM   31  C   UNL     1      -7.549  11.758  68.588  1.00  0.00    -0.125 A  
HETATM   32  C   UNL     1      -6.391  11.085  68.177  1.00  0.00    -0.056 A  
HETATM   33  C   UNL     1      -5.655  11.550  67.085  1.00  0.00    -0.099 A  
HETATM   34  C   UNL     1      -5.962   9.912  68.885  1.00  0.00    -0.037 C  
HETATM   35  N   UNL     1      -5.610   8.960  69.450  1.00  0.00    -0.035 NA 
HETATM   36  C   UNL     1      -6.051  12.691  66.376  1.00  0.00     1.820 A  
ENDBRANCH  24  25
ENDBRANCH  23  24
ENDBRANCH  22  23
ENDBRANCH  21  22
ENDBRANCH  17  21
ENDBRANCH  10  15
ENDBRANCH   2   6
TORSDOF 7
ENDMDL
MODEL      318
REMARK 921   NORMALIZED FREE ENERGY PREDICTED BY IDOCK:   38.66 KCAL/MOL
REMARK 922        TOTAL FREE ENERGY PREDICTED BY IDOCK:   53.21 KCAL/MOL
REMARK 923 INTER-LIGAND FREE ENERGY PREDICTED BY IDOCK:    8.70 KCAL/MOL
REMARK 924 INTRA-LIGAND FREE ENERGY PREDICTED BY IDOCK:   44.51 KCAL/MOL
REMARK 927      BINDING AFFINITY PREDICTED BY RF-SCORE:    0.00 PKD
ROOT
HETATM    1  N   UNL     1      -8.998   5.472  70.206  1.00  0.00    -0.135 N  
HETATM    2  C   UNL     1      -8.745   5.918  68.940  1.00  0.00    -0.116 C  
HETATM    3  H1  UNL     1      -9.190   6.137  70.955  1.00  0.00     0.000 HD 
HETATM    4  H2  UNL     1      -8.996   4.472  70.403  1.00  0.00     0.000 HD 
HETATM    5  O   UNL     1      -8.514   5.118  68.038  1.00  0.00    -0.101 OA 
ENDROOT
BRANCH   2   6
HETATM    6  C   UNL     1      -8.795   7.350  68.772  1.00  0.00    -0.130 A  
HETATM    7  C   UNL     1      -8.150   8.168  67.864  1.00  0.00    -0.128 A  
HETATM    8  C   UNL     1      -8.593   9.489  68.115  1.00  0.00    -0.120 A  
HETATM    9  C   UNL     1      -8.351  10.752  67.548  1.00  0.00    -0.115 A  
HETATM   10  C   UNL     1      -8.969  11.906  68.066  1.00  0.00    -0.185 A  
HETATM   11  C   UNL     1      -9.831  11.740  69.167  1.00  0.00     0.198 A  
HETATM   12  O   UNL     1      -9.595   8.107  69.591  1.00  0.00    -0.166 OA 
HETATM   13  C   UNL     1      -9.466   9.401  69.188  1.00  0.00    -0.163 A  
HETATM   14  C   UNL     1     -10.106  10.494  69.752  1.00  0.00    -0.126 A  
BRANCH  10  15
HETATM   15  N   UNL     1      -8.714  13.153  67.531  1.00  0.00    -0.189 NA 
HETATM   16  C   UNL     1      -8.637  14.366  68.360  1.00  0.00    -0.174 C  
HETATM   17  N   UNL     1      -7.297  15.526  66.535  1.00  0.00     0.118 NA 
HETATM   18  C   UNL     1      -7.381  15.179  67.977  1.00  0.00    -0.123 C  
HETATM   19  C   UNL     1      -8.605  13.375  66.079  1.00  0.00     0.954 C  
HETATM   20  C   UNL     1      -7.373  14.259  65.766  1.00  0.00     5.961 C  
BRANCH  17  21
HETATM   21  C   UNL     1      -8.359  16.456  66.119  1.00  0.00    -0.256 C  
BRANCH  21  22
HETATM   22  C   UNL     1      -9.455  16.633  67.179  1.00  0.00    -0.236 C  
BRANCH  22  23
HETATM   23  C   UNL     1     -10.593  15.616  67.065  1.00  0.00    -0.311 C  
BRANCH  23  24
HETATM   24  C   UNL     1     -10.139  14.338  66.362  1.00  0.00    -0.295 C  
BRANCH  24  25
HETATM   25  C   UNL     1     -10.668  13.110  67.016  1.00  0.00    -0.270 A  
HETATM   26  C   UNL     1     -11.233  13.030  68.274  1.00  0.00    -0.275 A  
HETATM   27  N   UNL     1     -11.564  11.725  68.509  1.00  0.00    -0.296 NA 
HETATM   28  H   UNL     1     -11.997  11.379  69.364  1.00  0.00     0.000 HD 
HETATM   29  C   UNL     1     -11.230  10.945  67.427  1.00  0.00    -0.273 A  
HETATM   30  C   UNL     1     -10.673  11.788  66.469  1.00  0.00    -0.304 A  
HETATM   31  C   UNL     1     -10.248  11.233  65.239  1.00  0.00    -0.328 A  
HETATM   32  C   UNL     1     -10.382   9.856  65.023  1.00  0.00     0.247 A  
HETATM   33  C   UNL     1     -10.939   9.038  66.009  1.00  0.00     1.704 A  
HETATM   34  C   UNL     1      -9.942   9.285  63.781  1.00  0.00     2.113 C  
HETATM   35  N   UNL     1      -9.586   8.815  62.781  1.00  0.00     1.490 NA 
HETATM   36  C   UNL     1     -11.376   9.567  67.229  1.00  0.00     0.734 A  
ENDBRANCH  24  25
ENDBRANCH  23  24
ENDBRANCH  22  23
ENDBRANCH  21  22
ENDBRANCH  17  21
ENDBRANCH  10  15
ENDBRANCH   2   6
TORSDOF 7
ENDMDL
MODEL      319
REMARK 921   NORMALIZED FREE ENERGY PREDICTED BY IDOCK:   55.97 KCAL/MOL
REMARK 922        TOTAL FREE ENERGY PREDICTED BY IDOCK:   77.59 KCAL/MOL
REMARK 923 INTER-LIGAND FREE ENERGY PREDICTED BY IDOCK:   76.99 KCAL/MOL
REMARK 924 INTRA-LIGAND FREE ENERGY PREDICTED BY IDOCK:    0.60 KCAL/MOL
REMARK 927      BINDING AFFINITY PREDICTED BY RF-SCORE:    0.00 PKD
ROOT
HETATM    1  N   UNL     1     -14.003  15.042  64.237  1.00  0.00     3.001 N  
HETATM    2  C   UNL     1     -12.673  15.333  64.137  1.00  0.00     0.482 C  
HETATM    3  H1  UNL     1     -14.472  15.085  65.142  1.00  0.00     0.000 HD 
HETATM    4  H2  UNL     1     -14.530  14.780  63.404  1.00  0.00     0.000 HD 
HETATM    5  O   UNL     1     -12.109  15.281  63.049  1.00  0.00     1.164 OA 
ENDROOT
BRANCH   2   6
HETATM    6  C   UNL     1     -12.033  15.711  65.374  1.00  0.00     0.545 A  
HETATM    7  C   UNL     1     -12.117  16.880  66.106  1.00  0.00     3.069 A  
HETATM    8  C   UNL     1     -11.320  16.701  67.260  1.00  0.00     0.324 A  
HETATM    9  C   UNL     1     -11.005  17.476  68.391  1.00  0.00    -0.057 A  
HETATM   10  C   UNL     1     -10.137  16.982  69.385  1.00  0.00    -0.139 A  
HETATM   11  C   UNL     1      -9.604  15.693  69.196  1.00  0.00    -0.251 A  
HETATM   12  O   UNL     1     -11.197  14.827  66.010  1.00  0.00    -0.337 OA 
HETATM   13  C   UNL     1     -10.768  15.434  67.150  1.00  0.00    -0.314 A  
HETATM   14  C   UNL     1      -9.905  14.887  68.086  1.00  0.00    -0.218 A  
BRANCH  10  15
HETATM   15  N   UNL     1      -9.802  17.747  70.484  1.00  0.00     2.143 NA 
HETATM   16  C   UNL     1      -9.788  19.217  70.446  1.00  0.00     1.249 C  
HETATM   17  N   UNL     1      -9.999  19.283  72.981  1.00  0.00     3.350 NA 
HETATM   18  C   UNL     1     -10.526  19.776  71.682  1.00  0.00     3.530 C  
HETATM   19  C   UNL     1      -9.331  17.145  71.743  1.00  0.00     9.424 C  
HETATM   20  C   UNL     1     -10.051  17.800  72.948  1.00  0.00     7.522 C  
BRANCH  17  21
HETATM   21  C   UNL     1      -8.630  19.753  73.246  1.00  0.00     4.584 C  
BRANCH  21  22
HETATM   22  C   UNL     1      -7.699  18.643  73.754  1.00  0.00     8.450 C  
BRANCH  22  23
HETATM   23  C   UNL     1      -6.249  18.791  73.285  1.00  0.00     5.436 C  
BRANCH  23  24
HETATM   24  C   UNL     1      -5.428  17.539  73.590  1.00  0.00     7.923 C  
BRANCH  24  25
HETATM   25  C   UNL     1      -6.126  16.288  73.183  1.00  0.00     3.353 A  
HETATM   26  C   UNL     1      -6.637  15.324  74.029  1.00  0.00     3.863 A  
HETATM   27  N   UNL     1      -7.172  14.327  73.261  1.00  0.00     2.589 NA 
HETATM   28  H   UNL     1      -7.618  13.486  73.627  1.00  0.00     0.000 HD 
HETATM   29  C   UNL     1      -7.025  14.620  71.926  1.00  0.00     2.262 A  
HETATM   30  C   UNL     1      -6.378  15.850  71.845  1.00  0.00     2.371 A  
HETATM   31  C   UNL     1      -6.110  16.395  70.567  1.00  0.00     0.254 A  
HETATM   32  C   UNL     1      -6.483  15.679  69.422  1.00  0.00    -0.156 A  
HETATM   33  C   UNL     1      -7.125  14.444  69.540  1.00  0.00    -0.092 A  
HETATM   34  C   UNL     1      -6.204  16.222  68.122  1.00  0.00    -0.124 C  
HETATM   35  N   UNL     1      -5.978  16.652  67.067  1.00  0.00    -0.212 NA 
HETATM   36  C   UNL     1      -7.410  13.892  70.795  1.00  0.00     2.005 A  
ENDBRANCH  24  25
ENDBRANCH  23  24
ENDBRANCH  22  23
ENDBRANCH  21  22
ENDBRANCH  17  21
ENDBRANCH  10  15
ENDBRANCH   2   6
TORSDOF 7
ENDMDL
MODEL      320
REMARK 921   NORMALIZED FREE ENERGY PREDICTED BY IDOCK:   69.37 KCAL/MOL
REMARK 922        TOTAL FREE ENERGY PREDICTED BY IDOCK:   96.48 KCAL/MOL
REMARK 923 INTER-LIGAND FREE ENERGY PREDICTED BY IDOCK:   56.87 KCAL/MOL
REMARK 924 INTRA-LIGAND FREE ENERGY PREDICTED BY IDOCK:   39.61 KCAL/MOL
REMARK 927      BINDING AFFINITY PREDICTED BY RF-SCORE:    0.00 PKD
ROOT
HETATM    1  N   UNL     1      -9.270  13.188  73.322  1.00  0.00    15.946 N  
HETATM    2  C   UNL     1     -10.130  12.890  72.304  1.00  0.00    14.891 C  
HETATM    3  H1  UNL     1      -8.274  12.992  73.227  1.00  0.00     0.000 HD 
HETATM    4  H2  UNL     1      -9.625  13.610  74.180  1.00  0.00     0.000 HD 
HETATM    5  O   UNL     1     -11.328  13.127  72.419  1.00  0.00     3.768 OA 
ENDROOT
BRANCH   2   6
HETATM    6  C   UNL     1      -9.516  12.318  71.131  1.00  0.00    11.347 A  
HETATM    7  C   UNL     1     -10.085  11.837  69.967  1.00  0.00     1.696 A  
HETATM    8  C   UNL     1      -9.020  11.432  69.127  1.00  0.00     0.197 A  
HETATM    9  C   UNL     1      -8.915  10.894  67.832  1.00  0.00    -0.141 A  
HETATM   10  C   UNL     1      -7.657  10.583  67.280  1.00  0.00    -0.096 A  
HETATM   11  C   UNL     1      -6.522  10.832  68.076  1.00  0.00    -0.062 A  
HETATM   12  O   UNL     1      -8.150  12.202  71.061  1.00  0.00     6.134 OA 
HETATM   13  C   UNL     1      -7.858  11.663  69.845  1.00  0.00     1.352 A  
HETATM   14  C   UNL     1      -6.588  11.378  69.367  1.00  0.00    -0.119 A  
BRANCH  10  15
HETATM   15  N   UNL     1      -7.547  10.029  66.021  1.00  0.00    -0.106 NA 
HETATM   16  C   UNL     1      -8.274   8.813  65.628  1.00  0.00    -0.121 C  
HETATM   17  N   UNL     1      -8.009   9.445  63.178  1.00  0.00    -0.135 NA 
HETATM   18  C   UNL     1      -8.945   9.028  64.254  1.00  0.00     0.049 C  
HETATM   19  C   UNL     1      -6.612  10.556  65.012  1.00  0.00    -0.014 C  
HETATM   20  C   UNL     1      -7.320  10.677  63.640  1.00  0.00     0.197 C  
BRANCH  17  21
HETATM   21  C   UNL     1      -7.034   8.395  62.844  1.00  0.00    -0.090 C  
BRANCH  21  22
HETATM   22  C   UNL     1      -5.680   8.583  63.542  1.00  0.00    -0.071 C  
BRANCH  22  23
HETATM   23  C   UNL     1      -5.796   8.998  65.011  1.00  0.00    -0.059 C  
BRANCH  23  24
HETATM   24  C   UNL     1      -6.106   7.803  65.911  1.00  0.00    -0.038 C  
BRANCH  24  25
HETATM   25  C   UNL     1      -7.529   7.774  66.348  1.00  0.00    -0.084 A  
HETATM   26  C   UNL     1      -8.092   8.533  67.355  1.00  0.00    -0.106 A  
HETATM   27  N   UNL     1      -9.411   8.189  67.457  1.00  0.00    -0.149 NA 
HETATM   28  H   UNL     1     -10.069   8.594  68.124  1.00  0.00     0.000 HD 
HETATM   29  C   UNL     1      -9.726   7.219  66.535  1.00  0.00    -0.140 A  
HETATM   30  C   UNL     1      -8.566   6.944  65.817  1.00  0.00    -0.139 A  
HETATM   31  C   UNL     1      -8.617   5.977  64.786  1.00  0.00     0.036 A  
HETATM   32  C   UNL     1      -9.822   5.312  64.526  1.00  0.00     0.756 A  
HETATM   33  C   UNL     1     -10.967   5.609  65.270  1.00  0.00     1.741 A  
HETATM   34  C   UNL     1      -9.878   4.322  63.487  1.00  0.00    -0.031 C  
HETATM   35  N   UNL     1      -9.931   3.517  62.652  1.00  0.00    -0.117 NA 
HETATM   36  C   UNL     1     -10.941   6.570  66.288  1.00  0.00     0.579 A  
ENDBRANCH  24  25
ENDBRANCH  23  24
ENDBRANCH  22  23
ENDBRANCH  21  22
ENDBRANCH  17  21
ENDBRANCH  10  15
ENDBRANCH   2   6
TORSDOF 7
ENDMDL
MODEL      321
REMARK 921   NORMALIZED FREE ENERGY PREDICTED BY IDOCK:   72.42 KCAL/MOL
REMARK 922        TOTAL FREE ENERGY PREDICTED BY IDOCK:  100.78 KCAL/MOL
REMARK 923 INTER-LIGAND FREE ENERGY PREDICTED BY IDOCK:   81.02 KCAL/MOL
REMARK 924 INTRA-LIGAND FREE ENERGY PREDICTED BY IDOCK:   19.76 KCAL/MOL
REMARK 927      BINDING AFFINITY PREDICTED BY RF-SCORE:    0.00 PKD
ROOT
HETATM    1  N   UNL     1      -8.771  19.445  69.630  1.00  0.00     0.279 N  
HETATM    2  C   UNL     1      -9.895  18.700  69.840  1.00  0.00     0.821 C  
HETATM    3  H1  UNL     1      -7.848  19.028  69.752  1.00  0.00     0.000 HD 
HETATM    4  H2  UNL     1      -8.853  20.422  69.349  1.00  0.00     0.000 HD 
HETATM    5  O   UNL     1     -11.005  19.202  69.692  1.00  0.00     1.432 OA 
ENDROOT
BRANCH   2   6
HETATM    6  C   UNL     1      -9.660  17.326  70.213  1.00  0.00     2.022 A  
HETATM    7  C   UNL     1      -8.516  16.708  70.680  1.00  0.00     3.902 A  
HETATM    8  C   UNL     1      -8.853  15.357  70.932  1.00  0.00     2.390 A  
HETATM    9  C   UNL     1      -8.174  14.230  71.427  1.00  0.00     5.111 A  
HETATM   10  C   UNL     1      -8.827  12.987  71.544  1.00  0.00    15.566 A  
HETATM   11  C   UNL     1     -10.175  12.925  71.145  1.00  0.00     7.436 A  
HETATM   12  O   UNL     1     -10.682  16.412  70.137  1.00  0.00    -0.299 OA 
HETATM   13  C   UNL     1     -10.185  15.223  70.572  1.00  0.00     0.142 A  
HETATM   14  C   UNL     1     -10.888  14.031  70.656  1.00  0.00     1.002 A  
BRANCH  10  15
HETATM   15  N   UNL     1      -8.158  11.871  72.004  1.00  0.00    13.331 NA 
HETATM   16  C   UNL     1      -7.521  10.904  71.097  1.00  0.00     3.427 C  
HETATM   17  N   UNL     1      -6.032  10.103  72.999  1.00  0.00     0.267 NA 
HETATM   18  C   UNL     1      -6.094  10.586  71.595  1.00  0.00     0.663 C  
HETATM   19  C   UNL     1      -8.125  11.511  73.432  1.00  0.00    19.582 C  
HETATM   20  C   UNL     1      -6.684  11.128  73.852  1.00  0.00     5.098 C  
BRANCH  17  21
HETATM   21  C   UNL     1      -6.679   8.792  73.170  1.00  0.00     0.101 C  
BRANCH  21  22
HETATM   22  C   UNL     1      -6.168   7.734  72.182  1.00  0.00    -0.040 C  
BRANCH  22  23
HETATM   23  C   UNL     1      -7.241   6.739  71.733  1.00  0.00    -0.084 C  
BRANCH  23  24
HETATM   24  C   UNL     1      -7.799   7.096  70.356  1.00  0.00    -0.100 C  
BRANCH  24  25
HETATM   25  C   UNL     1      -7.322   8.422  69.876  1.00  0.00    -0.060 A  
HETATM   26  C   UNL     1      -6.877   9.466  70.662  1.00  0.00    -0.104 A  
HETATM   27  N   UNL     1      -6.557  10.510  69.839  1.00  0.00    -0.113 NA 
HETATM   28  H   UNL     1      -6.202  11.412  70.155  1.00  0.00     0.000 HD 
HETATM   29  C   UNL     1      -6.783  10.171  68.526  1.00  0.00    -0.057 A  
HETATM   30  C   UNL     1      -7.255   8.861  68.516  1.00  0.00    -0.073 A  
HETATM   31  C   UNL     1      -7.560   8.258  67.274  1.00  0.00    -0.097 A  
HETATM   32  C   UNL     1      -7.395   8.993  66.093  1.00  0.00    -0.091 A  
HETATM   33  C   UNL     1      -6.924  10.307  66.140  1.00  0.00    -0.116 A  
HETATM   34  C   UNL     1      -7.712   8.389  64.829  1.00  0.00    -0.109 C  
HETATM   35  N   UNL     1      -7.970   7.909  63.803  1.00  0.00    -0.140 NA 
HETATM   36  C   UNL     1      -6.607  10.921  67.358  1.00  0.00    -0.069 A  
ENDBRANCH  24  25
ENDBRANCH  23  24
ENDBRANCH  22  23
ENDBRANCH  21  22
ENDBRANCH  17  21
ENDBRANCH  10  15
ENDBRANCH   2   6
TORSDOF 7
ENDMDL
