MODEL        1
REMARK 921   NORMALIZED FREE ENERGY PREDICTED BY IDOCK:   -6.64 KCAL/MOL
REMARK 922        TOTAL FREE ENERGY PREDICTED BY IDOCK:  -14.93 KCAL/MOL
REMARK 923 INTER-LIGAND FREE ENERGY PREDICTED BY IDOCK:  -12.86 KCAL/MOL
REMARK 924 INTRA-LIGAND FREE ENERGY PREDICTED BY IDOCK:   -2.07 KCAL/MOL
REMARK 927      BINDING AFFINITY PREDICTED BY RF-SCORE:    0.00 PKD
ROOT
HETATM    1  O   UNL     1     -11.449  16.322  63.708  1.00  0.00    -1.475 OA 
HETATM    2  C   UNL     1     -11.032  15.799  64.969  1.00  0.00    -0.417 C  
HETATM    3  H   UNL     1     -11.415  17.272  63.704  1.00  0.00     0.000 HD 
ENDROOT
BRANCH   2   4
HETATM    4  C   UNL     1     -11.086  14.293  64.974  1.00  0.00    -0.377 A  
HETATM    5  C   UNL     1     -11.844  13.547  64.064  1.00  0.00    -0.427 A  
HETATM    6  O   UNL     1     -12.540  14.141  63.048  1.00  0.00    -1.002 OA 
HETATM    7  C   UNL     1     -11.922  12.160  64.149  1.00  0.00    -0.497 A  
HETATM    8  C   UNL     1     -11.229  11.485  65.151  1.00  0.00    -0.214 A  
HETATM    9  H   UNL     1     -13.055  13.635  62.431  1.00  0.00     0.000 HD 
HETATM   10  C   UNL     1     -10.457  12.195  66.082  1.00  0.00    -0.281 A  
HETATM   11  C   UNL     1     -10.406  13.597  65.989  1.00  0.00    -0.305 A  
BRANCH  10  12
HETATM   12  C   UNL     1      -9.767  11.449  67.205  1.00  0.00    -0.182 C  
HETATM   13  O   UNL     1      -8.347  11.449  67.000  1.00  0.00    -0.148 OA 
HETATM   14  H   UNL     1      -7.914  10.982  67.705  1.00  0.00     0.000 HD 
BRANCH  12  15
HETATM   15  C   UNL     1     -10.093  12.104  68.563  1.00  0.00    -0.187 C  
BRANCH  15  16
HETATM   16  N   UNL     1     -10.313  11.090  69.608  1.00  0.00    -0.446 NA 
HETATM   17  H   UNL     1      -9.804  11.308  70.465  1.00  0.00     0.000 HD 
BRANCH  16  18
HETATM   18  C   UNL     1     -11.741  10.920  69.851  1.00  0.00    -0.339 C  
BRANCH  18  19
HETATM   19  C   UNL     1     -12.335  12.209  70.413  1.00  0.00    -0.315 C  
BRANCH  19  20
HETATM   20  C   UNL     1     -12.949  11.951  71.789  1.00  0.00    -0.455 C  
BRANCH  20  21
HETATM   21  C   UNL     1     -13.847  13.106  72.216  1.00  0.00    -0.586 C  
BRANCH  21  22
HETATM   22  C   UNL     1     -13.032  14.238  72.834  1.00  0.00    -0.548 C  
BRANCH  22  23
HETATM   23  C   UNL     1     -13.472  15.581  72.274  1.00  0.00    -0.499 C  
BRANCH  23  24
HETATM   24  O   UNL     1     -13.333  15.555  70.857  1.00  0.00    -0.492 OA 
BRANCH  24  25
HETATM   25  C   UNL     1     -11.989  15.842  70.477  1.00  0.00    -0.371 C  
BRANCH  25  26
HETATM   26  C   UNL     1     -11.786  15.493  69.012  1.00  0.00    -0.377 C  
BRANCH  26  27
HETATM   27  O   UNL     1     -11.338  16.658  68.318  1.00  0.00    -0.309 OA 
BRANCH  27  28
HETATM   28  C   UNL     1     -10.203  17.232  68.951  1.00  0.00    -0.349 C  
BRANCH  28  29
HETATM   29  C   UNL     1      -9.146  17.482  67.910  1.00  0.00    -0.261 A  
HETATM   30  C   UNL     1      -9.193  18.613  67.076  1.00  0.00    -0.291 A  
HETATM   31 CL   UNL     1     -10.493  19.754  67.141  1.00  0.00    -0.581 Cl 
HETATM   32  C   UNL     1      -8.178  18.867  66.144  1.00  0.00    -0.222 A  
HETATM   33  C   UNL     1      -7.112  17.985  66.010  1.00  0.00    -0.330 A  
HETATM   34  C   UNL     1      -7.074  16.831  66.786  1.00  0.00    -0.270 A  
HETATM   35  C   UNL     1      -8.087  16.575  67.720  1.00  0.00    -0.161 A  
HETATM   36 CL   UNL     1      -7.965  15.098  68.614  1.00  0.00    -0.142 Cl 
ENDBRANCH  28  29
ENDBRANCH  27  28
ENDBRANCH  26  27
ENDBRANCH  25  26
ENDBRANCH  24  25
ENDBRANCH  23  24
ENDBRANCH  22  23
ENDBRANCH  21  22
ENDBRANCH  20  21
ENDBRANCH  19  20
ENDBRANCH  18  19
ENDBRANCH  16  18
ENDBRANCH  15  16
ENDBRANCH  12  15
ENDBRANCH  10  12
ENDBRANCH   2   4
TORSDOF 16
ENDMDL
MODEL        2
REMARK 921   NORMALIZED FREE ENERGY PREDICTED BY IDOCK:   -6.58 KCAL/MOL
REMARK 922        TOTAL FREE ENERGY PREDICTED BY IDOCK:  -14.81 KCAL/MOL
REMARK 923 INTER-LIGAND FREE ENERGY PREDICTED BY IDOCK:  -13.09 KCAL/MOL
REMARK 924 INTRA-LIGAND FREE ENERGY PREDICTED BY IDOCK:   -1.73 KCAL/MOL
REMARK 927      BINDING AFFINITY PREDICTED BY RF-SCORE:    0.00 PKD
ROOT
HETATM    1  O   UNL     1      -9.160  11.962  63.014  1.00  0.00    -0.658 OA 
HETATM    2  C   UNL     1     -10.573  11.767  63.090  1.00  0.00    -0.280 C  
HETATM    3  H   UNL     1      -8.811  11.617  62.201  1.00  0.00     0.000 HD 
ENDROOT
BRANCH   2   4
HETATM    4  C   UNL     1     -11.126  12.315  64.380  1.00  0.00    -0.381 A  
HETATM    5  C   UNL     1     -11.962  13.435  64.445  1.00  0.00    -0.411 A  
HETATM    6  O   UNL     1     -12.400  14.075  63.318  1.00  0.00    -1.133 OA 
HETATM    7  C   UNL     1     -12.393  13.951  65.663  1.00  0.00    -0.511 A  
HETATM    8  C   UNL     1     -11.997  13.344  66.853  1.00  0.00    -0.437 A  
HETATM    9  H   UNL     1     -12.967  14.835  63.362  1.00  0.00     0.000 HD 
HETATM   10  C   UNL     1     -11.161  12.219  66.833  1.00  0.00    -0.367 A  
HETATM   11  C   UNL     1     -10.723  11.724  65.591  1.00  0.00    -0.328 A  
BRANCH  10  12
HETATM   12  C   UNL     1     -10.687  11.615  68.138  1.00  0.00    -0.213 C  
HETATM   13  O   UNL     1      -9.931  12.579  68.883  1.00  0.00    -0.417 OA 
HETATM   14  H   UNL     1      -9.633  12.200  69.702  1.00  0.00     0.000 HD 
BRANCH  12  15
HETATM   15  C   UNL     1     -11.890  11.139  68.978  1.00  0.00    -0.348 C  
BRANCH  15  16
HETATM   16  N   UNL     1     -11.705  11.452  70.405  1.00  0.00    -0.459 NA 
HETATM   17  H   UNL     1     -11.884  12.436  70.606  1.00  0.00     0.000 HD 
BRANCH  16  18
HETATM   18  C   UNL     1     -12.530  10.570  71.224  1.00  0.00    -0.419 C  
BRANCH  18  19
HETATM   19  C   UNL     1     -13.507  11.391  72.061  1.00  0.00    -0.289 C  
BRANCH  19  20
HETATM   20  C   UNL     1     -13.037  12.844  72.143  1.00  0.00    -0.466 C  
BRANCH  20  21
HETATM   21  C   UNL     1     -14.221  13.801  72.218  1.00  0.00    -0.563 C  
BRANCH  21  22
HETATM   22  C   UNL     1     -13.755  15.240  72.416  1.00  0.00    -0.622 C  
BRANCH  22  23
HETATM   23  C   UNL     1     -12.238  15.307  72.484  1.00  0.00    -0.390 C  
BRANCH  23  24
HETATM   24  O   UNL     1     -11.776  16.227  71.500  1.00  0.00    -0.469 OA 
BRANCH  24  25
HETATM   25  C   UNL     1     -11.832  15.645  70.200  1.00  0.00    -0.364 C  
BRANCH  25  26
HETATM   26  C   UNL     1     -10.559  15.972  69.437  1.00  0.00    -0.275 C  
BRANCH  26  27
HETATM   27  O   UNL     1     -10.817  17.067  68.557  1.00  0.00    -0.354 OA 
BRANCH  27  28
HETATM   28  C   UNL     1     -10.535  16.724  67.208  1.00  0.00    -0.310 C  
BRANCH  28  29
HETATM   29  C   UNL     1      -9.255  17.399  66.796  1.00  0.00    -0.274 A  
HETATM   30  C   UNL     1      -8.049  16.682  66.702  1.00  0.00    -0.274 A  
HETATM   31 CL   UNL     1      -7.937  15.005  67.113  1.00  0.00    -0.237 Cl 
HETATM   32  C   UNL     1      -6.871  17.304  66.268  1.00  0.00    -0.283 A  
HETATM   33  C   UNL     1      -6.870  18.657  65.944  1.00  0.00    -0.312 A  
HETATM   34  C   UNL     1      -8.040  19.396  66.082  1.00  0.00    -0.323 A  
HETATM   35  C   UNL     1      -9.219  18.777  66.515  1.00  0.00    -0.331 A  
HETATM   36 CL   UNL     1     -10.613  19.789  66.685  1.00  0.00    -0.588 Cl 
ENDBRANCH  28  29
ENDBRANCH  27  28
ENDBRANCH  26  27
ENDBRANCH  25  26
ENDBRANCH  24  25
ENDBRANCH  23  24
ENDBRANCH  22  23
ENDBRANCH  21  22
ENDBRANCH  20  21
ENDBRANCH  19  20
ENDBRANCH  18  19
ENDBRANCH  16  18
ENDBRANCH  15  16
ENDBRANCH  12  15
ENDBRANCH  10  12
ENDBRANCH   2   4
TORSDOF 16
ENDMDL
MODEL        3
REMARK 921   NORMALIZED FREE ENERGY PREDICTED BY IDOCK:   -6.36 KCAL/MOL
REMARK 922        TOTAL FREE ENERGY PREDICTED BY IDOCK:  -14.38 KCAL/MOL
REMARK 923 INTER-LIGAND FREE ENERGY PREDICTED BY IDOCK:  -12.11 KCAL/MOL
REMARK 924 INTRA-LIGAND FREE ENERGY PREDICTED BY IDOCK:   -2.28 KCAL/MOL
REMARK 927      BINDING AFFINITY PREDICTED BY RF-SCORE:    0.00 PKD
ROOT
HETATM    1  O   UNL     1      -8.790  20.910  66.816  1.00  0.00    -0.558 OA 
HETATM    2  C   UNL     1      -9.928  20.076  67.045  1.00  0.00    -0.445 C  
HETATM    3  H   UNL     1      -8.995  21.821  66.989  1.00  0.00     0.000 HD 
ENDROOT
BRANCH   2   4
HETATM    4  C   UNL     1      -9.603  18.631  66.770  1.00  0.00    -0.332 A  
HETATM    5  C   UNL     1      -8.377  18.042  67.101  1.00  0.00    -0.233 A  
HETATM    6  O   UNL     1      -7.404  18.729  67.771  1.00  0.00    -0.229 OA 
HETATM    7  C   UNL     1      -8.092  16.722  66.764  1.00  0.00    -0.273 A  
HETATM    8  C   UNL     1      -9.041  15.956  66.091  1.00  0.00    -0.385 A  
HETATM    9  H   UNL     1      -6.572  18.329  67.996  1.00  0.00     0.000 HD 
HETATM   10  C   UNL     1     -10.281  16.507  65.743  1.00  0.00    -0.350 A  
HETATM   11  C   UNL     1     -10.543  17.849  66.076  1.00  0.00    -0.235 A  
BRANCH  10  12
HETATM   12  C   UNL     1     -11.273  15.681  64.951  1.00  0.00    -0.369 C  
HETATM   13  O   UNL     1     -11.608  16.349  63.727  1.00  0.00    -1.605 OA 
HETATM   14  H   UNL     1     -12.230  15.830  63.230  1.00  0.00     0.000 HD 
BRANCH  12  15
HETATM   15  C   UNL     1     -10.682  14.290  64.636  1.00  0.00    -0.365 C  
BRANCH  15  16
HETATM   16  N   UNL     1     -11.622  13.474  63.850  1.00  0.00    -0.604 NA 
HETATM   17  H   UNL     1     -11.656  13.765  62.873  1.00  0.00     0.000 HD 
BRANCH  16  18
HETATM   18  C   UNL     1     -11.293  12.059  63.986  1.00  0.00    -0.403 C  
BRANCH  18  19
HETATM   19  C   UNL     1     -10.049  11.889  64.853  1.00  0.00    -0.296 C  
BRANCH  19  20
HETATM   20  C   UNL     1      -9.804  10.408  65.138  1.00  0.00    -0.378 C  
BRANCH  20  21
HETATM   21  C   UNL     1      -9.352  10.192  66.577  1.00  0.00    -0.200 C  
BRANCH  21  22
HETATM   22  C   UNL     1     -10.231   9.164  67.283  1.00  0.00    -0.319 C  
BRANCH  22  23
HETATM   23  C   UNL     1      -9.713   8.889  68.685  1.00  0.00    -0.161 C  
BRANCH  23  24
HETATM   24  O   UNL     1     -10.798   8.455  69.498  1.00  0.00    -0.210 OA 
BRANCH  24  25
HETATM   25  C   UNL     1     -10.659   8.947  70.829  1.00  0.00    -0.226 C  
BRANCH  25  26
HETATM   26  C   UNL     1     -11.853   9.819  71.180  1.00  0.00    -0.382 C  
BRANCH  26  27
HETATM   27  O   UNL     1     -11.579  11.160  70.772  1.00  0.00    -0.239 OA 
BRANCH  27  28
HETATM   28  C   UNL     1     -12.752  11.960  70.804  1.00  0.00    -0.153 C  
BRANCH  28  29
HETATM   29  C   UNL     1     -12.399  13.351  70.350  1.00  0.00    -0.382 A  
HETATM   30  C   UNL     1     -12.478  14.448  71.225  1.00  0.00    -0.352 A  
HETATM   31 CL   UNL     1     -13.044  14.291  72.853  1.00  0.00    -0.594 Cl 
HETATM   32  C   UNL     1     -12.099  15.732  70.811  1.00  0.00    -0.448 A  
HETATM   33  C   UNL     1     -11.659  15.948  69.510  1.00  0.00    -0.337 A  
HETATM   34  C   UNL     1     -11.625  14.886  68.612  1.00  0.00    -0.342 A  
HETATM   35  C   UNL     1     -12.003  13.602  69.023  1.00  0.00    -0.353 A  
HETATM   36 CL   UNL     1     -11.956  12.355  67.823  1.00  0.00    -0.348 Cl 
ENDBRANCH  28  29
ENDBRANCH  27  28
ENDBRANCH  26  27
ENDBRANCH  25  26
ENDBRANCH  24  25
ENDBRANCH  23  24
ENDBRANCH  22  23
ENDBRANCH  21  22
ENDBRANCH  20  21
ENDBRANCH  19  20
ENDBRANCH  18  19
ENDBRANCH  16  18
ENDBRANCH  15  16
ENDBRANCH  12  15
ENDBRANCH  10  12
ENDBRANCH   2   4
TORSDOF 16
ENDMDL
MODEL        4
REMARK 921   NORMALIZED FREE ENERGY PREDICTED BY IDOCK:   -6.31 KCAL/MOL
REMARK 922        TOTAL FREE ENERGY PREDICTED BY IDOCK:  -14.29 KCAL/MOL
REMARK 923 INTER-LIGAND FREE ENERGY PREDICTED BY IDOCK:  -12.44 KCAL/MOL
REMARK 924 INTRA-LIGAND FREE ENERGY PREDICTED BY IDOCK:   -1.85 KCAL/MOL
REMARK 927      BINDING AFFINITY PREDICTED BY RF-SCORE:    0.00 PKD
ROOT
HETATM    1  O   UNL     1     -12.417  15.962  72.188  1.00  0.00    -0.415 OA 
HETATM    2  C   UNL     1     -13.089  15.443  71.039  1.00  0.00    -0.501 C  
HETATM    3  H   UNL     1     -12.573  16.894  72.283  1.00  0.00     0.000 HD 
ENDROOT
BRANCH   2   4
HETATM    4  C   UNL     1     -12.841  13.965  70.889  1.00  0.00    -0.370 A  
HETATM    5  C   UNL     1     -13.337  13.007  71.781  1.00  0.00    -0.378 A  
HETATM    6  O   UNL     1     -14.154  13.347  72.823  1.00  0.00    -0.715 OA 
HETATM    7  C   UNL     1     -13.024  11.658  71.646  1.00  0.00    -0.483 A  
HETATM    8  C   UNL     1     -12.207  11.235  70.600  1.00  0.00    -0.489 A  
HETATM    9  H   UNL     1     -14.491  12.697  73.429  1.00  0.00     0.000 HD 
HETATM   10  C   UNL     1     -11.691  12.162  69.684  1.00  0.00    -0.396 A  
HETATM   11  C   UNL     1     -12.004  13.523  69.849  1.00  0.00    -0.416 A  
BRANCH  10  12
HETATM   12  C   UNL     1     -10.749  11.693  68.595  1.00  0.00    -0.212 C  
HETATM   13  O   UNL     1      -9.458  12.296  68.763  1.00  0.00    -0.390 OA 
HETATM   14  H   UNL     1      -8.867  12.002  68.080  1.00  0.00     0.000 HD 
BRANCH  12  15
HETATM   15  C   UNL     1     -10.611  10.157  68.630  1.00  0.00    -0.210 C  
BRANCH  15  16
HETATM   16  N   UNL     1     -10.874   9.565  67.307  1.00  0.00    -0.323 NA 
HETATM   17  H   UNL     1     -11.558  10.104  66.776  1.00  0.00     0.000 HD 
BRANCH  16  18
HETATM   18  C   UNL     1      -9.624   9.400  66.573  1.00  0.00    -0.208 C  
BRANCH  18  19
HETATM   19  C   UNL     1      -9.808   9.822  65.118  1.00  0.00    -0.294 C  
BRANCH  19  20
HETATM   20  C   UNL     1     -10.202  11.297  65.044  1.00  0.00    -0.339 C  
BRANCH  20  21
HETATM   21  C   UNL     1     -10.802  11.638  63.685  1.00  0.00    -0.503 C  
BRANCH  21  22
HETATM   22  C   UNL     1     -12.183  12.269  63.835  1.00  0.00    -0.608 C  
BRANCH  22  23
HETATM   23  C   UNL     1     -12.316  12.953  65.186  1.00  0.00    -0.493 C  
BRANCH  23  24
HETATM   24  O   UNL     1     -12.724  14.302  64.979  1.00  0.00    -0.625 OA 
BRANCH  24  25
HETATM   25  C   UNL     1     -11.591  15.149  64.799  1.00  0.00    -0.364 C  
BRANCH  25  26
HETATM   26  C   UNL     1     -10.489  14.743  65.764  1.00  0.00    -0.334 C  
BRANCH  26  27
HETATM   27  O   UNL     1      -9.341  15.555  65.520  1.00  0.00    -0.248 OA 
BRANCH  27  28
HETATM   28  C   UNL     1      -8.772  16.027  66.733  1.00  0.00    -0.253 C  
BRANCH  28  29
HETATM   29  C   UNL     1      -9.110  17.485  66.889  1.00  0.00    -0.265 A  
HETATM   30  C   UNL     1      -8.302  18.486  66.322  1.00  0.00    -0.213 A  
HETATM   31 CL   UNL     1      -6.840  18.122  65.471  1.00  0.00    -0.244 Cl 
HETATM   32  C   UNL     1      -8.649  19.840  66.427  1.00  0.00    -0.398 A  
HETATM   33  C   UNL     1      -9.794  20.219  67.119  1.00  0.00    -0.606 A  
HETATM   34  C   UNL     1     -10.578  19.248  67.733  1.00  0.00    -0.516 A  
HETATM   35  C   UNL     1     -10.233  17.894  67.629  1.00  0.00    -0.365 A  
HETATM   36 CL   UNL     1     -11.254  16.766  68.455  1.00  0.00    -0.271 Cl 
ENDBRANCH  28  29
ENDBRANCH  27  28
ENDBRANCH  26  27
ENDBRANCH  25  26
ENDBRANCH  24  25
ENDBRANCH  23  24
ENDBRANCH  22  23
ENDBRANCH  21  22
ENDBRANCH  20  21
ENDBRANCH  19  20
ENDBRANCH  18  19
ENDBRANCH  16  18
ENDBRANCH  15  16
ENDBRANCH  12  15
ENDBRANCH  10  12
ENDBRANCH   2   4
TORSDOF 16
ENDMDL
MODEL        5
REMARK 921   NORMALIZED FREE ENERGY PREDICTED BY IDOCK:   -6.20 KCAL/MOL
REMARK 922        TOTAL FREE ENERGY PREDICTED BY IDOCK:  -14.07 KCAL/MOL
REMARK 923 INTER-LIGAND FREE ENERGY PREDICTED BY IDOCK:  -12.56 KCAL/MOL
REMARK 924 INTRA-LIGAND FREE ENERGY PREDICTED BY IDOCK:   -1.51 KCAL/MOL
REMARK 927      BINDING AFFINITY PREDICTED BY RF-SCORE:    0.00 PKD
ROOT
HETATM    1  O   UNL     1     -13.139   6.444  72.218  1.00  0.00    -0.532 OA 
HETATM    2  C   UNL     1     -11.897   7.122  72.027  1.00  0.00    -0.295 C  
HETATM    3  H   UNL     1     -12.998   5.528  72.428  1.00  0.00     0.000 HD 
ENDROOT
BRANCH   2   4
HETATM    4  C   UNL     1     -12.120   8.575  71.694  1.00  0.00    -0.373 A  
HETATM    5  C   UNL     1     -13.105   9.361  72.302  1.00  0.00    -0.428 A  
HETATM    6  O   UNL     1     -13.896   8.877  73.307  1.00  0.00    -1.163 OA 
HETATM    7  C   UNL     1     -13.325  10.679  71.914  1.00  0.00    -0.454 A  
HETATM    8  C   UNL     1     -12.549  11.244  70.904  1.00  0.00    -0.467 A  
HETATM    9  H   UNL     1     -14.565   9.410  73.720  1.00  0.00     0.000 HD 
HETATM   10  C   UNL     1     -11.550  10.492  70.271  1.00  0.00    -0.417 A  
HETATM   11  C   UNL     1     -11.357   9.156  70.666  1.00  0.00    -0.323 A  
BRANCH  10  12
HETATM   12  C   UNL     1     -10.763  11.101  69.129  1.00  0.00    -0.221 C  
HETATM   13  O   UNL     1      -9.358  11.043  69.410  1.00  0.00    -0.405 OA 
HETATM   14  H   UNL     1      -8.865  11.425  68.694  1.00  0.00     0.000 HD 
BRANCH  12  15
HETATM   15  C   UNL     1     -11.060  10.353  67.813  1.00  0.00    -0.299 C  
BRANCH  15  16
HETATM   16  N   UNL     1      -9.981   9.409  67.478  1.00  0.00    -0.187 NA 
HETATM   17  H   UNL     1     -10.098   8.512  67.950  1.00  0.00     0.000 HD 
BRANCH  16  18
HETATM   18  C   UNL     1      -9.879   9.255  66.031  1.00  0.00    -0.293 C  
BRANCH  18  19
HETATM   19  C   UNL     1      -9.742  10.622  65.366  1.00  0.00    -0.306 C  
BRANCH  19  20
HETATM   20  C   UNL     1      -9.933  10.493  63.855  1.00  0.00    -0.348 C  
BRANCH  20  21
HETATM   21  C   UNL     1     -10.328  11.828  63.235  1.00  0.00    -0.446 C  
BRANCH  21  22
HETATM   22  C   UNL     1     -11.813  12.113  63.438  1.00  0.00    -0.553 C  
BRANCH  22  23
HETATM   23  C   UNL     1     -12.011  13.454  64.127  1.00  0.00    -0.450 C  
BRANCH  23  24
HETATM   24  O   UNL     1     -12.212  13.230  65.518  1.00  0.00    -0.404 OA 
BRANCH  24  25
HETATM   25  C   UNL     1     -11.574  14.245  66.290  1.00  0.00    -0.372 C  
BRANCH  25  26
HETATM   26  C   UNL     1     -10.076  14.215  66.037  1.00  0.00    -0.316 C  
BRANCH  26  27
HETATM   27  O   UNL     1      -9.626  15.544  65.773  1.00  0.00    -0.337 OA 
BRANCH  27  28
HETATM   28  C   UNL     1      -8.782  16.021  66.811  1.00  0.00    -0.253 C  
BRANCH  28  29
HETATM   29  C   UNL     1      -9.091  17.473  67.055  1.00  0.00    -0.255 A  
HETATM   30  C   UNL     1      -8.286  18.492  66.515  1.00  0.00    -0.281 A  
HETATM   31 CL   UNL     1      -6.859  18.152  65.597  1.00  0.00    -0.299 Cl 
HETATM   32  C   UNL     1      -8.608  19.843  66.703  1.00  0.00    -0.390 A  
HETATM   33  C   UNL     1      -9.723  20.201  67.453  1.00  0.00    -0.563 A  
HETATM   34  C   UNL     1     -10.502  19.209  68.041  1.00  0.00    -0.461 A  
HETATM   35  C   UNL     1     -10.183  17.858  67.855  1.00  0.00    -0.371 A  
HETATM   36 CL   UNL     1     -11.194  16.702  68.654  1.00  0.00    -0.297 Cl 
ENDBRANCH  28  29
ENDBRANCH  27  28
ENDBRANCH  26  27
ENDBRANCH  25  26
ENDBRANCH  24  25
ENDBRANCH  23  24
ENDBRANCH  22  23
ENDBRANCH  21  22
ENDBRANCH  20  21
ENDBRANCH  19  20
ENDBRANCH  18  19
ENDBRANCH  16  18
ENDBRANCH  15  16
ENDBRANCH  12  15
ENDBRANCH  10  12
ENDBRANCH   2   4
TORSDOF 16
ENDMDL
MODEL        6
REMARK 921   NORMALIZED FREE ENERGY PREDICTED BY IDOCK:   -6.20 KCAL/MOL
REMARK 922        TOTAL FREE ENERGY PREDICTED BY IDOCK:  -14.06 KCAL/MOL
REMARK 923 INTER-LIGAND FREE ENERGY PREDICTED BY IDOCK:  -12.25 KCAL/MOL
REMARK 924 INTRA-LIGAND FREE ENERGY PREDICTED BY IDOCK:   -1.82 KCAL/MOL
REMARK 927      BINDING AFFINITY PREDICTED BY RF-SCORE:    0.00 PKD
ROOT
HETATM    1  O   UNL     1     -14.281   9.396  72.766  1.00  0.00    -0.840 OA 
HETATM    2  C   UNL     1     -12.944   9.056  72.399  1.00  0.00    -0.405 C  
HETATM    3  H   UNL     1     -14.628   8.781  73.401  1.00  0.00     0.000 HD 
ENDROOT
BRANCH   2   4
HETATM    4  C   UNL     1     -12.395  10.032  71.391  1.00  0.00    -0.512 A  
HETATM    5  C   UNL     1     -12.689  11.400  71.407  1.00  0.00    -0.384 A  
HETATM    6  O   UNL     1     -13.446  11.965  72.395  1.00  0.00    -0.611 OA 
HETATM    7  C   UNL     1     -12.218  12.256  70.414  1.00  0.00    -0.371 A  
HETATM    8  C   UNL     1     -11.430  11.754  69.381  1.00  0.00    -0.371 A  
HETATM    9  H   UNL     1     -13.645  12.893  72.406  1.00  0.00     0.000 HD 
HETATM   10  C   UNL     1     -11.111  10.390  69.330  1.00  0.00    -0.303 A  
HETATM   11  C   UNL     1     -11.612   9.540  70.332  1.00  0.00    -0.268 A  
BRANCH  10  12
HETATM   12  C   UNL     1     -10.311   9.852  68.162  1.00  0.00    -0.195 C  
HETATM   13  O   UNL     1     -10.995   8.743  67.562  1.00  0.00    -0.482 OA 
HETATM   14  H   UNL     1     -10.493   8.405  66.829  1.00  0.00     0.000 HD 
BRANCH  12  15
HETATM   15  C   UNL     1     -10.091  10.957  67.108  1.00  0.00    -0.198 C  
BRANCH  15  16
HETATM   16  N   UNL     1      -8.755  10.856  66.497  1.00  0.00    -0.157 NA 
HETATM   17  H   UNL     1      -8.219  10.075  66.876  1.00  0.00     0.000 HD 
BRANCH  16  18
HETATM   18  C   UNL     1      -8.870  10.783  65.045  1.00  0.00    -0.177 C  
BRANCH  18  19
HETATM   19  C   UNL     1     -10.329  10.939  64.625  1.00  0.00    -0.407 C  
BRANCH  19  20
HETATM   20  C   UNL     1     -10.466  12.072  63.608  1.00  0.00    -0.494 C  
BRANCH  20  21
HETATM   21  C   UNL     1     -11.914  12.535  63.493  1.00  0.00    -0.629 C  
BRANCH  21  22
HETATM   22  C   UNL     1     -12.590  12.577  64.859  1.00  0.00    -0.469 C  
BRANCH  22  23
HETATM   23  C   UNL     1     -12.614  13.997  65.402  1.00  0.00    -0.505 C  
BRANCH  23  24
HETATM   24  O   UNL     1     -12.388  13.955  66.807  1.00  0.00    -0.422 OA 
BRANCH  24  25
HETATM   25  C   UNL     1     -11.193  14.655  67.146  1.00  0.00    -0.344 C  
BRANCH  25  26
HETATM   26  C   UNL     1     -11.422  15.483  68.399  1.00  0.00    -0.363 C  
BRANCH  26  27
HETATM   27  O   UNL     1     -11.071  16.840  68.125  1.00  0.00    -0.363 OA 
BRANCH  27  28
HETATM   28  C   UNL     1     -10.061  16.923  67.131  1.00  0.00    -0.287 C  
BRANCH  28  29
HETATM   29  C   UNL     1      -9.094  18.010  67.515  1.00  0.00    -0.253 A  
HETATM   30  C   UNL     1      -7.999  17.750  68.357  1.00  0.00    -0.293 A  
HETATM   31 CL   UNL     1      -7.723  16.192  69.059  1.00  0.00    -0.212 Cl 
HETATM   32  C   UNL     1      -7.072  18.754  68.670  1.00  0.00    -0.321 A  
HETATM   33  C   UNL     1      -7.237  20.041  68.169  1.00  0.00    -0.320 A  
HETATM   34  C   UNL     1      -8.343  20.333  67.378  1.00  0.00    -0.396 A  
HETATM   35  C   UNL     1      -9.271  19.331  67.064  1.00  0.00    -0.307 A  
HETATM   36 CL   UNL     1     -10.629  19.802  66.101  1.00  0.00    -0.591 Cl 
ENDBRANCH  28  29
ENDBRANCH  27  28
ENDBRANCH  26  27
ENDBRANCH  25  26
ENDBRANCH  24  25
ENDBRANCH  23  24
ENDBRANCH  22  23
ENDBRANCH  21  22
ENDBRANCH  20  21
ENDBRANCH  19  20
ENDBRANCH  18  19
ENDBRANCH  16  18
ENDBRANCH  15  16
ENDBRANCH  12  15
ENDBRANCH  10  12
ENDBRANCH   2   4
TORSDOF 16
ENDMDL
MODEL        7
REMARK 921   NORMALIZED FREE ENERGY PREDICTED BY IDOCK:   -6.19 KCAL/MOL
REMARK 922        TOTAL FREE ENERGY PREDICTED BY IDOCK:  -14.06 KCAL/MOL
REMARK 923 INTER-LIGAND FREE ENERGY PREDICTED BY IDOCK:  -11.16 KCAL/MOL
REMARK 924 INTRA-LIGAND FREE ENERGY PREDICTED BY IDOCK:   -2.90 KCAL/MOL
REMARK 927      BINDING AFFINITY PREDICTED BY RF-SCORE:    0.00 PKD
ROOT
HETATM    1  O   UNL     1     -12.839  15.539  69.720  1.00  0.00    -0.616 OA 
HETATM    2  C   UNL     1     -11.955  14.529  69.231  1.00  0.00    -0.319 C  
HETATM    3  H   UNL     1     -13.149  15.327  70.593  1.00  0.00     0.000 HD 
ENDROOT
BRANCH   2   4
HETATM    4  C   UNL     1     -11.465  14.866  67.846  1.00  0.00    -0.357 A  
HETATM    5  C   UNL     1     -10.805  16.060  67.533  1.00  0.00    -0.292 A  
HETATM    6  O   UNL     1     -10.492  16.984  68.490  1.00  0.00    -0.328 OA 
HETATM    7  C   UNL     1     -10.432  16.362  66.227  1.00  0.00    -0.298 A  
HETATM    8  C   UNL     1     -10.708  15.462  65.200  1.00  0.00    -0.460 A  
HETATM    9  H   UNL     1     -10.044  17.794  68.278  1.00  0.00     0.000 HD 
HETATM   10  C   UNL     1     -11.365  14.254  65.471  1.00  0.00    -0.325 A  
HETATM   11  C   UNL     1     -11.749  13.976  66.795  1.00  0.00    -0.430 A  
BRANCH  10  12
HETATM   12  C   UNL     1     -11.717  13.321  64.332  1.00  0.00    -0.388 C  
HETATM   13  O   UNL     1     -12.302  14.058  63.250  1.00  0.00    -1.133 OA 
HETATM   14  H   UNL     1     -12.522  13.473  62.535  1.00  0.00     0.000 HD 
BRANCH  12  15
HETATM   15  C   UNL     1     -10.456  12.583  63.834  1.00  0.00    -0.434 C  
BRANCH  15  16
HETATM   16  N   UNL     1     -10.764  11.195  63.450  1.00  0.00    -0.705 NA 
HETATM   17  H   UNL     1     -10.987  11.114  62.458  1.00  0.00     0.000 HD 
BRANCH  16  18
HETATM   18  C   UNL     1      -9.669  10.312  63.837  1.00  0.00    -0.261 C  
BRANCH  18  19
HETATM   19  C   UNL     1      -9.853   9.848  65.280  1.00  0.00    -0.373 C  
BRANCH  19  20
HETATM   20  C   UNL     1      -8.586   9.150  65.773  1.00  0.00    -0.171 C  
BRANCH  20  21
HETATM   21  C   UNL     1      -8.918   8.060  66.787  1.00  0.00    -0.169 C  
BRANCH  21  22
HETATM   22  C   UNL     1     -10.424   7.952  67.006  1.00  0.00    -0.419 C  
BRANCH  22  23
HETATM   23  C   UNL     1     -10.825   6.509  67.268  1.00  0.00    -0.390 C  
BRANCH  23  24
HETATM   24  O   UNL     1     -11.523   6.445  68.507  1.00  0.00    -0.228 OA 
BRANCH  24  25
HETATM   25  C   UNL     1     -10.695   5.885  69.524  1.00  0.00    -0.343 C  
BRANCH  25  26
HETATM   26  C   UNL     1     -11.224   6.283  70.892  1.00  0.00    -0.324 C  
BRANCH  26  27
HETATM   27  O   UNL     1     -11.835   7.570  70.793  1.00  0.00    -0.287 OA 
BRANCH  27  28
HETATM   28  C   UNL     1     -11.129   8.538  71.556  1.00  0.00    -0.275 C  
BRANCH  28  29
HETATM   29  C   UNL     1     -10.393   9.451  70.614  1.00  0.00    -0.349 A  
HETATM   30  C   UNL     1      -9.002   9.352  70.436  1.00  0.00    -0.250 A  
HETATM   31 CL   UNL     1      -8.036   8.228  71.330  1.00  0.00    -0.121 Cl 
HETATM   32  C   UNL     1      -8.330  10.170  69.519  1.00  0.00    -0.178 A  
HETATM   33  C   UNL     1      -9.029  11.119  68.781  1.00  0.00    -0.136 A  
HETATM   34  C   UNL     1     -10.398  11.270  68.980  1.00  0.00    -0.189 A  
HETATM   35  C   UNL     1     -11.072  10.453  69.896  1.00  0.00    -0.305 A  
HETATM   36 CL   UNL     1     -12.767  10.741  70.095  1.00  0.00    -0.307 Cl 
ENDBRANCH  28  29
ENDBRANCH  27  28
ENDBRANCH  26  27
ENDBRANCH  25  26
ENDBRANCH  24  25
ENDBRANCH  23  24
ENDBRANCH  22  23
ENDBRANCH  21  22
ENDBRANCH  20  21
ENDBRANCH  19  20
ENDBRANCH  18  19
ENDBRANCH  16  18
ENDBRANCH  15  16
ENDBRANCH  12  15
ENDBRANCH  10  12
ENDBRANCH   2   4
TORSDOF 16
ENDMDL
MODEL        8
REMARK 921   NORMALIZED FREE ENERGY PREDICTED BY IDOCK:   -6.19 KCAL/MOL
REMARK 922        TOTAL FREE ENERGY PREDICTED BY IDOCK:  -14.06 KCAL/MOL
REMARK 923 INTER-LIGAND FREE ENERGY PREDICTED BY IDOCK:  -11.77 KCAL/MOL
REMARK 924 INTRA-LIGAND FREE ENERGY PREDICTED BY IDOCK:   -2.29 KCAL/MOL
REMARK 927      BINDING AFFINITY PREDICTED BY RF-SCORE:    0.00 PKD
ROOT
HETATM    1  O   UNL     1      -9.187  12.015  63.081  1.00  0.00    -0.662 OA 
HETATM    2  C   UNL     1     -10.569  11.677  63.200  1.00  0.00    -0.277 C  
HETATM    3  H   UNL     1      -8.831  11.710  62.255  1.00  0.00     0.000 HD 
ENDROOT
BRANCH   2   4
HETATM    4  C   UNL     1     -11.134  12.161  64.510  1.00  0.00    -0.375 A  
HETATM    5  C   UNL     1     -11.995  13.258  64.618  1.00  0.00    -0.394 A  
HETATM    6  O   UNL     1     -12.448  13.931  63.518  1.00  0.00    -0.981 OA 
HETATM    7  C   UNL     1     -12.436  13.716  65.856  1.00  0.00    -0.502 A  
HETATM    8  C   UNL     1     -12.026  13.073  67.022  1.00  0.00    -0.409 A  
HETATM    9  H   UNL     1     -13.033  14.676  63.591  1.00  0.00     0.000 HD 
HETATM   10  C   UNL     1     -11.165  11.969  66.957  1.00  0.00    -0.377 A  
HETATM   11  C   UNL     1     -10.716  11.533  65.697  1.00  0.00    -0.323 A  
BRANCH  10  12
HETATM   12  C   UNL     1     -10.675  11.325  68.238  1.00  0.00    -0.194 C  
HETATM   13  O   UNL     1      -9.661  12.139  68.844  1.00  0.00    -0.409 OA 
HETATM   14  H   UNL     1      -9.355  11.735  69.648  1.00  0.00     0.000 HD 
BRANCH  12  15
HETATM   15  C   UNL     1     -11.846  11.136  69.225  1.00  0.00    -0.352 C  
BRANCH  15  16
HETATM   16  N   UNL     1     -11.747  12.069  70.359  1.00  0.00    -0.525 NA 
HETATM   17  H   UNL     1     -11.483  13.008  70.060  1.00  0.00     0.000 HD 
BRANCH  16  18
HETATM   18  C   UNL     1     -12.992  12.070  71.120  1.00  0.00    -0.158 C  
BRANCH  18  19
HETATM   19  C   UNL     1     -13.068  13.313  72.002  1.00  0.00    -0.475 C  
BRANCH  19  20
HETATM   20  C   UNL     1     -13.675  14.477  71.219  1.00  0.00    -0.407 C  
BRANCH  20  21
HETATM   21  C   UNL     1     -12.732  15.674  71.194  1.00  0.00    -0.525 C  
BRANCH  21  22
HETATM   22  C   UNL     1     -11.981  15.758  69.868  1.00  0.00    -0.346 C  
BRANCH  22  23
HETATM   23  C   UNL     1     -10.494  15.526  70.079  1.00  0.00    -0.309 C  
BRANCH  23  24
HETATM   24  O   UNL     1      -9.920  15.084  68.854  1.00  0.00    -0.221 OA 
BRANCH  24  25
HETATM   25  C   UNL     1      -8.499  15.197  68.892  1.00  0.00    -0.199 C  
BRANCH  25  26
HETATM   26  C   UNL     1      -7.944  15.159  67.478  1.00  0.00    -0.174 C  
BRANCH  26  27
HETATM   27  O   UNL     1      -7.059  16.265  67.301  1.00  0.00    -0.153 OA 
BRANCH  27  28
HETATM   28  C   UNL     1      -7.506  17.124  66.261  1.00  0.00    -0.309 C  
BRANCH  28  29
HETATM   29  C   UNL     1      -8.490  18.106  66.835  1.00  0.00    -0.265 A  
HETATM   30  C   UNL     1      -9.868  17.996  66.577  1.00  0.00    -0.353 A  
HETATM   31 CL   UNL     1     -10.517  16.775  65.537  1.00  0.00    -0.317 Cl 
HETATM   32  C   UNL     1     -10.785  18.883  67.157  1.00  0.00    -0.506 A  
HETATM   33  C   UNL     1     -10.342  19.909  67.983  1.00  0.00    -0.547 A  
HETATM   34  C   UNL     1      -8.978  20.069  68.208  1.00  0.00    -0.223 A  
HETATM   35  C   UNL     1      -8.059  19.183  67.631  1.00  0.00    -0.269 A  
HETATM   36 CL   UNL     1      -6.384  19.486  67.945  1.00  0.00    -0.235 Cl 
ENDBRANCH  28  29
ENDBRANCH  27  28
ENDBRANCH  26  27
ENDBRANCH  25  26
ENDBRANCH  24  25
ENDBRANCH  23  24
ENDBRANCH  22  23
ENDBRANCH  21  22
ENDBRANCH  20  21
ENDBRANCH  19  20
ENDBRANCH  18  19
ENDBRANCH  16  18
ENDBRANCH  15  16
ENDBRANCH  12  15
ENDBRANCH  10  12
ENDBRANCH   2   4
TORSDOF 16
ENDMDL
MODEL        9
REMARK 921   NORMALIZED FREE ENERGY PREDICTED BY IDOCK:   -6.14 KCAL/MOL
REMARK 922        TOTAL FREE ENERGY PREDICTED BY IDOCK:  -13.96 KCAL/MOL
REMARK 923 INTER-LIGAND FREE ENERGY PREDICTED BY IDOCK:  -11.10 KCAL/MOL
REMARK 924 INTRA-LIGAND FREE ENERGY PREDICTED BY IDOCK:   -2.85 KCAL/MOL
REMARK 927      BINDING AFFINITY PREDICTED BY RF-SCORE:    0.00 PKD
ROOT
HETATM    1  O   UNL     1      -9.867  16.919  65.526  1.00  0.00    -0.559 OA 
HETATM    2  C   UNL     1     -10.980  16.314  64.865  1.00  0.00    -0.307 C  
HETATM    3  H   UNL     1      -9.702  17.791  65.187  1.00  0.00     0.000 HD 
ENDROOT
BRANCH   2   4
HETATM    4  C   UNL     1     -11.242  14.932  65.404  1.00  0.00    -0.359 A  
HETATM    5  C   UNL     1     -11.459  14.663  66.760  1.00  0.00    -0.364 A  
HETATM    6  O   UNL     1     -11.522  15.660  67.693  1.00  0.00    -0.284 OA 
HETATM    7  C   UNL     1     -11.626  13.361  67.225  1.00  0.00    -0.400 A  
HETATM    8  C   UNL     1     -11.586  12.294  66.330  1.00  0.00    -0.445 A  
HETATM    9  H   UNL     1     -11.669  15.478  68.613  1.00  0.00     0.000 HD 
HETATM   10  C   UNL     1     -11.373  12.520  64.963  1.00  0.00    -0.353 A  
HETATM   11  C   UNL     1     -11.189  13.841  64.518  1.00  0.00    -0.381 A  
BRANCH  10  12
HETATM   12  C   UNL     1     -11.264  11.343  64.017  1.00  0.00    -0.269 C  
HETATM   13  O   UNL     1     -12.317  11.392  63.044  1.00  0.00    -0.952 OA 
HETATM   14  H   UNL     1     -12.248  10.653  62.450  1.00  0.00     0.000 HD 
BRANCH  12  15
HETATM   15  C   UNL     1      -9.897  11.353  63.303  1.00  0.00    -0.404 C  
BRANCH  15  16
HETATM   16  N   UNL     1      -8.809  10.983  64.223  1.00  0.00    -0.369 NA 
HETATM   17  H   UNL     1      -8.603  11.726  64.890  1.00  0.00     0.000 HD 
BRANCH  16  18
HETATM   18  C   UNL     1      -9.122   9.723  64.890  1.00  0.00    -0.229 C  
BRANCH  18  19
HETATM   19  C   UNL     1      -8.747   9.803  66.367  1.00  0.00    -0.144 C  
BRANCH  19  20
HETATM   20  C   UNL     1      -9.161   8.519  67.085  1.00  0.00    -0.164 C  
BRANCH  20  21
HETATM   21  C   UNL     1     -10.657   8.265  66.940  1.00  0.00    -0.302 C  
BRANCH  21  22
HETATM   22  C   UNL     1     -11.033   6.878  67.451  1.00  0.00    -0.374 C  
BRANCH  22  23
HETATM   23  C   UNL     1     -10.121   6.463  68.594  1.00  0.00    -0.158 C  
BRANCH  23  24
HETATM   24  O   UNL     1     -10.901   5.808  69.589  1.00  0.00    -0.326 OA 
BRANCH  24  25
HETATM   25  C   UNL     1     -10.079   5.373  70.669  1.00  0.00    -0.231 C  
BRANCH  25  26
HETATM   26  C   UNL     1     -10.888   5.358  71.955  1.00  0.00    -0.202 C  
BRANCH  26  27
HETATM   27  O   UNL     1     -11.800   6.456  71.938  1.00  0.00    -0.315 OA 
BRANCH  27  28
HETATM   28  C   UNL     1     -11.236   7.607  72.551  1.00  0.00    -0.346 C  
BRANCH  28  29
HETATM   29  C   UNL     1     -11.446   8.788  71.643  1.00  0.00    -0.386 A  
HETATM   30  C   UNL     1     -10.393   9.315  70.874  1.00  0.00    -0.296 A  
HETATM   31 CL   UNL     1      -8.781   8.692  70.966  1.00  0.00    -0.201 Cl 
HETATM   32  C   UNL     1     -10.606  10.383  69.992  1.00  0.00    -0.282 A  
HETATM   33  C   UNL     1     -11.867  10.958  69.879  1.00  0.00    -0.427 A  
HETATM   34  C   UNL     1     -12.910  10.487  70.670  1.00  0.00    -0.407 A  
HETATM   35  C   UNL     1     -12.699   9.420  71.553  1.00  0.00    -0.361 A  
HETATM   36 CL   UNL     1     -14.051   8.929  72.516  1.00  0.00    -0.506 Cl 
ENDBRANCH  28  29
ENDBRANCH  27  28
ENDBRANCH  26  27
ENDBRANCH  25  26
ENDBRANCH  24  25
ENDBRANCH  23  24
ENDBRANCH  22  23
ENDBRANCH  21  22
ENDBRANCH  20  21
ENDBRANCH  19  20
ENDBRANCH  18  19
ENDBRANCH  16  18
ENDBRANCH  15  16
ENDBRANCH  12  15
ENDBRANCH  10  12
ENDBRANCH   2   4
TORSDOF 16
ENDMDL
MODEL       10
REMARK 921   NORMALIZED FREE ENERGY PREDICTED BY IDOCK:   -6.11 KCAL/MOL
REMARK 922        TOTAL FREE ENERGY PREDICTED BY IDOCK:  -13.89 KCAL/MOL
REMARK 923 INTER-LIGAND FREE ENERGY PREDICTED BY IDOCK:  -11.49 KCAL/MOL
REMARK 924 INTRA-LIGAND FREE ENERGY PREDICTED BY IDOCK:   -2.41 KCAL/MOL
REMARK 927      BINDING AFFINITY PREDICTED BY RF-SCORE:    0.00 PKD
ROOT
HETATM    1  O   UNL     1     -11.740  16.348  63.581  1.00  0.00    -1.520 OA 
HETATM    2  C   UNL     1     -11.017  16.074  64.782  1.00  0.00    -0.356 C  
HETATM    3  H   UNL     1     -11.581  17.236  63.282  1.00  0.00     0.000 HD 
ENDROOT
BRANCH   2   4
HETATM    4  C   UNL     1     -11.271  14.666  65.256  1.00  0.00    -0.358 A  
HETATM    5  C   UNL     1     -11.913  13.696  64.478  1.00  0.00    -0.418 A  
HETATM    6  O   UNL     1     -12.295  13.943  63.188  1.00  0.00    -1.122 OA 
HETATM    7  C   UNL     1     -12.191  12.429  64.981  1.00  0.00    -0.465 A  
HETATM    8  C   UNL     1     -11.820  12.101  66.283  1.00  0.00    -0.320 A  
HETATM    9  H   UNL     1     -12.730  13.285  62.660  1.00  0.00     0.000 HD 
HETATM   10  C   UNL     1     -11.173  13.043  67.095  1.00  0.00    -0.322 A  
HETATM   11  C   UNL     1     -10.918  14.324  66.573  1.00  0.00    -0.316 A  
BRANCH  10  12
HETATM   12  C   UNL     1     -10.840  12.692  68.530  1.00  0.00    -0.252 C  
HETATM   13  O   UNL     1     -10.172  13.790  69.166  1.00  0.00    -0.422 OA 
HETATM   14  H   UNL     1      -9.963  13.570  70.066  1.00  0.00     0.000 HD 
BRANCH  12  15
HETATM   15  C   UNL     1     -12.126  12.347  69.310  1.00  0.00    -0.165 C  
BRANCH  15  16
HETATM   16  N   UNL     1     -11.922  12.474  70.763  1.00  0.00    -0.462 NA 
HETATM   17  H   UNL     1     -11.874  13.449  71.058  1.00  0.00     0.000 HD 
BRANCH  16  18
HETATM   18  C   UNL     1     -12.955  11.737  71.482  1.00  0.00    -0.341 C  
BRANCH  18  19
HETATM   19  C   UNL     1     -12.969  10.278  71.033  1.00  0.00    -0.488 C  
BRANCH  19  20
HETATM   20  C   UNL     1     -13.254   9.363  72.224  1.00  0.00    -0.528 C  
BRANCH  20  21
HETATM   21  C   UNL     1     -14.346   8.354  71.892  1.00  0.00    -0.561 C  
BRANCH  21  22
HETATM   22  C   UNL     1     -13.750   7.016  71.465  1.00  0.00    -0.355 C  
BRANCH  22  23
HETATM   23  C   UNL     1     -12.332   6.869  71.993  1.00  0.00    -0.269 C  
BRANCH  23  24
HETATM   24  O   UNL     1     -11.536   6.233  70.999  1.00  0.00    -0.324 OA 
BRANCH  24  25
HETATM   25  C   UNL     1     -10.867   7.201  70.194  1.00  0.00    -0.257 C  
BRANCH  25  26
HETATM   26  C   UNL     1      -9.366   6.969  70.256  1.00  0.00    -0.159 C  
BRANCH  26  27
HETATM   27  O   UNL     1      -8.723   7.879  69.363  1.00  0.00    -0.136 OA 
BRANCH  27  28
HETATM   28  C   UNL     1      -9.559   8.987  69.061  1.00  0.00    -0.160 C  
BRANCH  28  29
HETATM   29  C   UNL     1      -9.239   9.469  67.672  1.00  0.00    -0.138 A  
HETATM   30  C   UNL     1      -9.769   8.831  66.537  1.00  0.00    -0.259 A  
HETATM   31 CL   UNL     1     -10.764   7.420  66.651  1.00  0.00    -0.197 Cl 
HETATM   32  C   UNL     1      -9.508   9.316  65.248  1.00  0.00    -0.234 A  
HETATM   33  C   UNL     1      -8.695  10.429  65.068  1.00  0.00    -0.195 A  
HETATM   34  C   UNL     1      -8.117  11.043  66.175  1.00  0.00    -0.141 A  
HETATM   35  C   UNL     1      -8.376  10.561  67.464  1.00  0.00    -0.118 A  
HETATM   36 CL   UNL     1      -7.584  11.372  68.772  1.00  0.00    -0.129 Cl 
ENDBRANCH  28  29
ENDBRANCH  27  28
ENDBRANCH  26  27
ENDBRANCH  25  26
ENDBRANCH  24  25
ENDBRANCH  23  24
ENDBRANCH  22  23
ENDBRANCH  21  22
ENDBRANCH  20  21
ENDBRANCH  19  20
ENDBRANCH  18  19
ENDBRANCH  16  18
ENDBRANCH  15  16
ENDBRANCH  12  15
ENDBRANCH  10  12
ENDBRANCH   2   4
TORSDOF 16
ENDMDL
MODEL       11
REMARK 921   NORMALIZED FREE ENERGY PREDICTED BY IDOCK:   -6.10 KCAL/MOL
REMARK 922        TOTAL FREE ENERGY PREDICTED BY IDOCK:  -13.88 KCAL/MOL
REMARK 923 INTER-LIGAND FREE ENERGY PREDICTED BY IDOCK:  -11.94 KCAL/MOL
REMARK 924 INTRA-LIGAND FREE ENERGY PREDICTED BY IDOCK:   -1.94 KCAL/MOL
REMARK 927      BINDING AFFINITY PREDICTED BY RF-SCORE:    0.00 PKD
ROOT
HETATM    1  O   UNL     1     -11.507  16.161  63.858  1.00  0.00    -1.351 OA 
HETATM    2  C   UNL     1     -11.274  15.420  65.056  1.00  0.00    -0.387 C  
HETATM    3  H   UNL     1     -11.625  17.085  64.046  1.00  0.00     0.000 HD 
ENDROOT
BRANCH   2   4
HETATM    4  C   UNL     1     -11.087  13.955  64.757  1.00  0.00    -0.386 A  
HETATM    5  C   UNL     1     -11.773  13.284  63.739  1.00  0.00    -0.421 A  
HETATM    6  O   UNL     1     -12.617  13.937  62.885  1.00  0.00    -0.966 OA 
HETATM    7  C   UNL     1     -11.624  11.914  63.543  1.00  0.00    -0.537 A  
HETATM    8  C   UNL     1     -10.770  11.183  64.367  1.00  0.00    -0.388 A  
HETATM    9  H   UNL     1     -13.083  13.482  62.194  1.00  0.00     0.000 HD 
HETATM   10  C   UNL     1     -10.063  11.818  65.398  1.00  0.00    -0.291 A  
HETATM   11  C   UNL     1     -10.242  13.199  65.590  1.00  0.00    -0.294 A  
BRANCH  10  12
HETATM   12  C   UNL     1      -9.194  10.995  66.326  1.00  0.00    -0.182 C  
HETATM   13  O   UNL     1      -8.936  11.721  67.536  1.00  0.00    -0.160 OA 
HETATM   14  H   UNL     1      -8.391  11.205  68.118  1.00  0.00     0.000 HD 
BRANCH  12  15
HETATM   15  C   UNL     1      -9.884   9.657  66.662  1.00  0.00    -0.224 C  
BRANCH  15  16
HETATM   16  N   UNL     1      -9.512   9.185  68.007  1.00  0.00    -0.141 NA 
HETATM   17  H   UNL     1     -10.282   9.277  68.670  1.00  0.00     0.000 HD 
BRANCH  16  18
HETATM   18  C   UNL     1      -9.012   7.816  67.939  1.00  0.00    -0.125 C  
BRANCH  18  19
HETATM   19  C   UNL     1      -9.418   7.046  69.192  1.00  0.00    -0.143 C  
BRANCH  19  20
HETATM   20  C   UNL     1     -10.819   6.459  69.018  1.00  0.00    -0.385 C  
BRANCH  20  21
HETATM   21  C   UNL     1     -11.541   6.354  70.356  1.00  0.00    -0.440 C  
BRANCH  21  22
HETATM   22  C   UNL     1     -10.670   6.875  71.495  1.00  0.00    -0.248 C  
BRANCH  22  23
HETATM   23  C   UNL     1     -11.516   7.605  72.525  1.00  0.00    -0.352 C  
BRANCH  23  24
HETATM   24  O   UNL     1     -12.794   7.878  71.959  1.00  0.00    -0.307 OA 
BRANCH  24  25
HETATM   25  C   UNL     1     -13.219   9.199  72.287  1.00  0.00    -0.461 C  
BRANCH  25  26
HETATM   26  C   UNL     1     -13.030  10.111  71.087  1.00  0.00    -0.395 C  
BRANCH  26  27
HETATM   27  O   UNL     1     -12.412  11.322  71.521  1.00  0.00    -0.312 OA 
BRANCH  27  28
HETATM   28  C   UNL     1     -13.279  12.435  71.353  1.00  0.00    -0.098 C  
BRANCH  28  29
HETATM   29  C   UNL     1     -12.465  13.615  70.894  1.00  0.00    -0.448 A  
HETATM   30  C   UNL     1     -12.240  14.719  71.735  1.00  0.00    -0.347 A  
HETATM   31 CL   UNL     1     -12.931  14.830  73.318  1.00  0.00    -0.618 Cl 
HETATM   32  C   UNL     1     -11.439  15.792  71.320  1.00  0.00    -0.481 A  
HETATM   33  C   UNL     1     -10.869  15.793  70.052  1.00  0.00    -0.348 A  
HETATM   34  C   UNL     1     -11.123  14.735  69.185  1.00  0.00    -0.278 A  
HETATM   35  C   UNL     1     -11.924  13.661  69.597  1.00  0.00    -0.343 A  
HETATM   36 CL   UNL     1     -12.206  12.411  68.434  1.00  0.00    -0.084 Cl 
ENDBRANCH  28  29
ENDBRANCH  27  28
ENDBRANCH  26  27
ENDBRANCH  25  26
ENDBRANCH  24  25
ENDBRANCH  23  24
ENDBRANCH  22  23
ENDBRANCH  21  22
ENDBRANCH  20  21
ENDBRANCH  19  20
ENDBRANCH  18  19
ENDBRANCH  16  18
ENDBRANCH  15  16
ENDBRANCH  12  15
ENDBRANCH  10  12
ENDBRANCH   2   4
TORSDOF 16
ENDMDL
MODEL       12
REMARK 921   NORMALIZED FREE ENERGY PREDICTED BY IDOCK:   -6.08 KCAL/MOL
REMARK 922        TOTAL FREE ENERGY PREDICTED BY IDOCK:  -13.83 KCAL/MOL
REMARK 923 INTER-LIGAND FREE ENERGY PREDICTED BY IDOCK:  -11.86 KCAL/MOL
REMARK 924 INTRA-LIGAND FREE ENERGY PREDICTED BY IDOCK:   -1.97 KCAL/MOL
REMARK 927      BINDING AFFINITY PREDICTED BY RF-SCORE:    0.00 PKD
ROOT
HETATM    1  O   UNL     1     -13.872   6.586  72.238  1.00  0.00    -0.510 OA 
HETATM    2  C   UNL     1     -12.536   6.938  71.876  1.00  0.00    -0.311 C  
HETATM    3  H   UNL     1     -13.938   5.660  72.441  1.00  0.00     0.000 HD 
ENDROOT
BRANCH   2   4
HETATM    4  C   UNL     1     -12.432   8.406  71.554  1.00  0.00    -0.342 A  
HETATM    5  C   UNL     1     -13.187   9.391  72.201  1.00  0.00    -0.460 A  
HETATM    6  O   UNL     1     -14.029   9.091  73.235  1.00  0.00    -1.205 OA 
HETATM    7  C   UNL     1     -13.112  10.728  71.823  1.00  0.00    -0.573 A  
HETATM    8  C   UNL     1     -12.266  11.111  70.784  1.00  0.00    -0.484 A  
HETATM    9  H   UNL     1     -14.541   9.759  73.674  1.00  0.00     0.000 HD 
HETATM   10  C   UNL     1     -11.492  10.156  70.111  1.00  0.00    -0.368 A  
HETATM   11  C   UNL     1     -11.596   8.807  70.497  1.00  0.00    -0.170 A  
BRANCH  10  12
HETATM   12  C   UNL     1     -10.630  10.580  68.940  1.00  0.00    -0.216 C  
HETATM   13  O   UNL     1      -9.300  10.876  69.387  1.00  0.00    -0.404 OA 
HETATM   14  H   UNL     1      -8.759  11.142  68.652  1.00  0.00     0.000 HD 
BRANCH  12  15
HETATM   15  C   UNL     1     -10.584   9.464  67.876  1.00  0.00    -0.237 C  
BRANCH  15  16
HETATM   16  N   UNL     1      -9.289   9.447  67.174  1.00  0.00    -0.136 NA 
HETATM   17  H   UNL     1      -8.629   8.800  67.604  1.00  0.00     0.000 HD 
BRANCH  16  18
HETATM   18  C   UNL     1      -9.490   9.159  65.757  1.00  0.00    -0.254 C  
BRANCH  18  19
HETATM   19  C   UNL     1      -8.774  10.201  64.902  1.00  0.00    -0.198 C  
BRANCH  19  20
HETATM   20  C   UNL     1      -9.395  10.254  63.507  1.00  0.00    -0.341 C  
BRANCH  20  21
HETATM   21  C   UNL     1     -10.071  11.597  63.256  1.00  0.00    -0.454 C  
BRANCH  21  22
HETATM   22  C   UNL     1     -11.476  11.627  63.850  1.00  0.00    -0.433 C  
BRANCH  22  23
HETATM   23  C   UNL     1     -12.158  12.951  63.544  1.00  0.00    -0.555 C  
BRANCH  23  24
HETATM   24  O   UNL     1     -12.836  13.398  64.713  1.00  0.00    -0.680 OA 
BRANCH  24  25
HETATM   25  C   UNL     1     -12.610  14.790  64.926  1.00  0.00    -0.087 C  
BRANCH  25  26
HETATM   26  C   UNL     1     -11.244  15.176  64.383  1.00  0.00    -0.169 C  
BRANCH  26  27
HETATM   27  O   UNL     1     -10.802  16.360  65.046  1.00  0.00    -0.591 OA 
BRANCH  27  28
HETATM   28  C   UNL     1      -9.679  16.101  65.876  1.00  0.00    -0.340 C  
BRANCH  28  29
HETATM   29  C   UNL     1     -10.168  15.782  67.263  1.00  0.00    -0.268 A  
HETATM   30  C   UNL     1     -10.240  14.456  67.725  1.00  0.00    -0.230 A  
HETATM   31 CL   UNL     1      -9.840  13.104  66.721  1.00  0.00    -0.245 Cl 
HETATM   32  C   UNL     1     -10.647  14.168  69.035  1.00  0.00    -0.227 A  
HETATM   33  C   UNL     1     -11.012  15.196  69.898  1.00  0.00    -0.291 A  
HETATM   34  C   UNL     1     -10.999  16.510  69.443  1.00  0.00    -0.288 A  
HETATM   35  C   UNL     1     -10.593  16.801  68.134  1.00  0.00    -0.350 A  
HETATM   36 CL   UNL     1     -10.642  18.463  67.655  1.00  0.00    -0.442 Cl 
ENDBRANCH  28  29
ENDBRANCH  27  28
ENDBRANCH  26  27
ENDBRANCH  25  26
ENDBRANCH  24  25
ENDBRANCH  23  24
ENDBRANCH  22  23
ENDBRANCH  21  22
ENDBRANCH  20  21
ENDBRANCH  19  20
ENDBRANCH  18  19
ENDBRANCH  16  18
ENDBRANCH  15  16
ENDBRANCH  12  15
ENDBRANCH  10  12
ENDBRANCH   2   4
TORSDOF 16
ENDMDL
MODEL       13
REMARK 921   NORMALIZED FREE ENERGY PREDICTED BY IDOCK:   -6.07 KCAL/MOL
REMARK 922        TOTAL FREE ENERGY PREDICTED BY IDOCK:  -13.82 KCAL/MOL
REMARK 923 INTER-LIGAND FREE ENERGY PREDICTED BY IDOCK:  -11.74 KCAL/MOL
REMARK 924 INTRA-LIGAND FREE ENERGY PREDICTED BY IDOCK:   -2.09 KCAL/MOL
REMARK 927      BINDING AFFINITY PREDICTED BY RF-SCORE:    0.00 PKD
ROOT
HETATM    1  O   UNL     1     -12.266  10.548  68.573  1.00  0.00    -0.806 OA 
HETATM    2  C   UNL     1     -11.952  10.474  69.964  1.00  0.00    -0.288 C  
HETATM    3  H   UNL     1     -11.966   9.772  68.114  1.00  0.00     0.000 HD 
ENDROOT
BRANCH   2   4
HETATM    4  C   UNL     1     -12.429  11.704  70.692  1.00  0.00    -0.386 A  
HETATM    5  C   UNL     1     -13.278  11.660  71.803  1.00  0.00    -0.333 A  
HETATM    6  O   UNL     1     -13.680  10.477  72.357  1.00  0.00    -0.525 OA 
HETATM    7  C   UNL     1     -13.752  12.824  72.401  1.00  0.00    -0.457 A  
HETATM    8  C   UNL     1     -13.374  14.067  71.899  1.00  0.00    -0.489 A  
HETATM    9  H   UNL     1     -14.257  10.447  73.111  1.00  0.00     0.000 HD 
HETATM   10  C   UNL     1     -12.524  14.155  70.788  1.00  0.00    -0.436 A  
HETATM   11  C   UNL     1     -12.071  12.967  70.187  1.00  0.00    -0.377 A  
BRANCH  10  12
HETATM   12  C   UNL     1     -12.180  15.514  70.215  1.00  0.00    -0.400 C  
HETATM   13  O   UNL     1     -11.944  16.453  71.273  1.00  0.00    -0.621 OA 
HETATM   14  H   UNL     1     -11.728  17.305  70.913  1.00  0.00     0.000 HD 
BRANCH  12  15
HETATM   15  C   UNL     1     -10.927  15.417  69.319  1.00  0.00    -0.261 C  
BRANCH  15  16
HETATM   16  N   UNL     1     -11.212  15.870  67.948  1.00  0.00    -0.329 NA 
HETATM   17  H   UNL     1     -10.688  16.711  67.706  1.00  0.00     0.000 HD 
BRANCH  16  18
HETATM   18  C   UNL     1     -10.971  14.786  67.001  1.00  0.00    -0.324 C  
BRANCH  18  19
HETATM   19  C   UNL     1     -12.256  13.998  66.764  1.00  0.00    -0.439 C  
BRANCH  19  20
HETATM   20  C   UNL     1     -12.572  13.942  65.270  1.00  0.00    -0.508 C  
BRANCH  20  21
HETATM   21  C   UNL     1     -12.465  12.518  64.739  1.00  0.00    -0.532 C  
BRANCH  21  22
HETATM   22  C   UNL     1     -11.729  12.481  63.402  1.00  0.00    -0.567 C  
BRANCH  22  23
HETATM   23  C   UNL     1     -10.296  12.010  63.592  1.00  0.00    -0.450 C  
BRANCH  23  24
HETATM   24  O   UNL     1     -10.028  11.908  64.987  1.00  0.00    -0.253 OA 
BRANCH  24  25
HETATM   25  C   UNL     1      -9.163  10.807  65.254  1.00  0.00    -0.204 C  
BRANCH  25  26
HETATM   26  C   UNL     1      -9.949   9.686  65.913  1.00  0.00    -0.281 C  
BRANCH  26  27
HETATM   27  O   UNL     1      -9.637   9.661  67.306  1.00  0.00    -0.155 OA 
BRANCH  27  28
HETATM   28  C   UNL     1      -8.927   8.483  67.657  1.00  0.00    -0.135 C  
BRANCH  28  29
HETATM   29  C   UNL     1      -9.622   7.830  68.821  1.00  0.00    -0.154 A  
HETATM   30  C   UNL     1     -10.579   6.819  68.627  1.00  0.00    -0.227 A  
HETATM   31 CL   UNL     1     -11.072   6.304  67.049  1.00  0.00    -0.430 Cl 
HETATM   32  C   UNL     1     -11.185   6.178  69.716  1.00  0.00    -0.494 A  
HETATM   33  C   UNL     1     -10.865   6.551  71.017  1.00  0.00    -0.301 A  
HETATM   34  C   UNL     1      -9.960   7.586  71.230  1.00  0.00    -0.196 A  
HETATM   35  C   UNL     1      -9.353   8.228  70.143  1.00  0.00    -0.159 A  
HETATM   36 CL   UNL     1      -8.266   9.524  70.512  1.00  0.00    -0.218 Cl 
ENDBRANCH  28  29
ENDBRANCH  27  28
ENDBRANCH  26  27
ENDBRANCH  25  26
ENDBRANCH  24  25
ENDBRANCH  23  24
ENDBRANCH  22  23
ENDBRANCH  21  22
ENDBRANCH  20  21
ENDBRANCH  19  20
ENDBRANCH  18  19
ENDBRANCH  16  18
ENDBRANCH  15  16
ENDBRANCH  12  15
ENDBRANCH  10  12
ENDBRANCH   2   4
TORSDOF 16
ENDMDL
MODEL       14
REMARK 921   NORMALIZED FREE ENERGY PREDICTED BY IDOCK:   -6.03 KCAL/MOL
REMARK 922        TOTAL FREE ENERGY PREDICTED BY IDOCK:  -13.74 KCAL/MOL
REMARK 923 INTER-LIGAND FREE ENERGY PREDICTED BY IDOCK:  -10.70 KCAL/MOL
REMARK 924 INTRA-LIGAND FREE ENERGY PREDICTED BY IDOCK:   -3.04 KCAL/MOL
REMARK 927      BINDING AFFINITY PREDICTED BY RF-SCORE:    0.00 PKD
ROOT
HETATM    1  O   UNL     1     -10.957  14.140  69.926  1.00  0.00    -0.450 OA 
HETATM    2  C   UNL     1     -11.892  14.701  69.004  1.00  0.00    -0.310 C  
HETATM    3  H   UNL     1     -11.281  14.196  70.817  1.00  0.00     0.000 HD 
ENDROOT
BRANCH   2   4
HETATM    4  C   UNL     1     -11.378  14.611  67.591  1.00  0.00    -0.350 A  
HETATM    5  C   UNL     1     -10.180  15.199  67.169  1.00  0.00    -0.247 A  
HETATM    6  O   UNL     1      -9.346  15.842  68.041  1.00  0.00    -0.199 OA 
HETATM    7  C   UNL     1      -9.778  15.153  65.838  1.00  0.00    -0.385 A  
HETATM    8  C   UNL     1     -10.571  14.504  64.894  1.00  0.00    -0.450 A  
HETATM    9  H   UNL     1      -8.533  16.241  67.755  1.00  0.00     0.000 HD 
HETATM   10  C   UNL     1     -11.778  13.901  65.275  1.00  0.00    -0.347 A  
HETATM   11  C   UNL     1     -12.175  13.975  66.623  1.00  0.00    -0.463 A  
BRANCH  10  12
HETATM   12  C   UNL     1     -12.660  13.261  64.224  1.00  0.00    -0.182 C  
HETATM   13  O   UNL     1     -12.480  13.916  62.961  1.00  0.00    -1.099 OA 
HETATM   14  H   UNL     1     -13.033  13.514  62.301  1.00  0.00     0.000 HD 
BRANCH  12  15
HETATM   15  C   UNL     1     -12.322  11.762  64.082  1.00  0.00    -0.166 C  
BRANCH  15  16
HETATM   16  N   UNL     1     -11.241  11.546  63.105  1.00  0.00    -0.833 NA 
HETATM   17  H   UNL     1     -11.020  12.396  62.587  1.00  0.00     0.000 HD 
BRANCH  16  18
HETATM   18  C   UNL     1     -10.066  10.993  63.771  1.00  0.00    -0.363 C  
BRANCH  18  19
HETATM   19  C   UNL     1     -10.401  10.636  65.217  1.00  0.00    -0.321 C  
BRANCH  19  20
HETATM   20  C   UNL     1      -9.334  11.196  66.157  1.00  0.00    -0.227 C  
BRANCH  20  21
HETATM   21  C   UNL     1      -9.854  11.283  67.588  1.00  0.00    -0.190 C  
BRANCH  21  22
HETATM   22  C   UNL     1     -11.156  10.506  67.749  1.00  0.00    -0.382 C  
BRANCH  22  23
HETATM   23  C   UNL     1     -11.992  11.089  68.878  1.00  0.00    -0.262 C  
BRANCH  23  24
HETATM   24  O   UNL     1     -11.254  10.991  70.092  1.00  0.00    -0.270 OA 
BRANCH  24  25
HETATM   25  C   UNL     1     -11.622   9.817  70.812  1.00  0.00    -0.339 C  
BRANCH  25  26
HETATM   26  C   UNL     1     -10.378   9.152  71.378  1.00  0.00    -0.338 C  
BRANCH  26  27
HETATM   27  O   UNL     1      -9.940   8.143  70.468  1.00  0.00    -0.185 OA 
BRANCH  27  28
HETATM   28  C   UNL     1     -11.017   7.311  70.061  1.00  0.00    -0.253 C  
BRANCH  28  29
HETATM   29  C   UNL     1     -10.455   6.087  69.390  1.00  0.00    -0.331 A  
HETATM   30  C   UNL     1      -9.957   5.007  70.138  1.00  0.00    -0.258 A  
HETATM   31 CL   UNL     1      -9.893   5.032  71.868  1.00  0.00    -0.225 Cl 
HETATM   32  C   UNL     1      -9.481   3.849  69.508  1.00  0.00    -0.259 A  
HETATM   33  C   UNL     1      -9.472   3.759  68.120  1.00  0.00    -0.216 A  
HETATM   34  C   UNL     1      -9.910   4.838  67.360  1.00  0.00    -0.214 A  
HETATM   35  C   UNL     1     -10.386   5.997  67.988  1.00  0.00    -0.202 A  
HETATM   36 CL   UNL     1     -10.878   7.295  66.955  1.00  0.00    -0.384 Cl 
ENDBRANCH  28  29
ENDBRANCH  27  28
ENDBRANCH  26  27
ENDBRANCH  25  26
ENDBRANCH  24  25
ENDBRANCH  23  24
ENDBRANCH  22  23
ENDBRANCH  21  22
ENDBRANCH  20  21
ENDBRANCH  19  20
ENDBRANCH  18  19
ENDBRANCH  16  18
ENDBRANCH  15  16
ENDBRANCH  12  15
ENDBRANCH  10  12
ENDBRANCH   2   4
TORSDOF 16
ENDMDL
MODEL       15
REMARK 921   NORMALIZED FREE ENERGY PREDICTED BY IDOCK:   -6.02 KCAL/MOL
REMARK 922        TOTAL FREE ENERGY PREDICTED BY IDOCK:  -13.72 KCAL/MOL
REMARK 923 INTER-LIGAND FREE ENERGY PREDICTED BY IDOCK:  -11.11 KCAL/MOL
REMARK 924 INTRA-LIGAND FREE ENERGY PREDICTED BY IDOCK:   -2.61 KCAL/MOL
REMARK 927      BINDING AFFINITY PREDICTED BY RF-SCORE:    0.00 PKD
ROOT
HETATM    1  O   UNL     1      -9.643  16.779  65.681  1.00  0.00    -0.527 OA 
HETATM    2  C   UNL     1     -10.822  16.289  65.040  1.00  0.00    -0.320 C  
HETATM    3  H   UNL     1      -9.422  17.649  65.370  1.00  0.00     0.000 HD 
ENDROOT
BRANCH   2   4
HETATM    4  C   UNL     1     -11.172  14.910  65.533  1.00  0.00    -0.348 A  
HETATM    5  C   UNL     1     -11.461  14.622  66.872  1.00  0.00    -0.363 A  
HETATM    6  O   UNL     1     -11.518  15.601  67.825  1.00  0.00    -0.307 OA 
HETATM    7  C   UNL     1     -11.709  13.320  67.298  1.00  0.00    -0.424 A  
HETATM    8  C   UNL     1     -11.681  12.272  66.381  1.00  0.00    -0.431 A  
HETATM    9  H   UNL     1     -11.714  15.406  68.733  1.00  0.00     0.000 HD 
HETATM   10  C   UNL     1     -11.397  12.518  65.030  1.00  0.00    -0.353 A  
HETATM   11  C   UNL     1     -11.131  13.838  64.624  1.00  0.00    -0.391 A  
BRANCH  10  12
HETATM   12  C   UNL     1     -11.303  11.357  64.062  1.00  0.00    -0.208 C  
HETATM   13  O   UNL     1     -12.290  11.492  63.030  1.00  0.00    -0.975 OA 
HETATM   14  H   UNL     1     -12.231  10.764  62.422  1.00  0.00     0.000 HD 
BRANCH  12  15
HETATM   15  C   UNL     1      -9.897  11.300  63.429  1.00  0.00    -0.385 C  
BRANCH  15  16
HETATM   16  N   UNL     1      -8.879  10.914  64.420  1.00  0.00    -0.341 NA 
HETATM   17  H   UNL     1      -8.704  11.656  65.097  1.00  0.00     0.000 HD 
BRANCH  16  18
HETATM   18  C   UNL     1      -9.258   9.663  65.069  1.00  0.00    -0.250 C  
BRANCH  18  19
HETATM   19  C   UNL     1      -8.623   9.576  66.454  1.00  0.00    -0.143 C  
BRANCH  19  20
HETATM   20  C   UNL     1      -9.134   8.338  67.191  1.00  0.00    -0.162 C  
BRANCH  20  21
HETATM   21  C   UNL     1     -10.647   8.204  67.056  1.00  0.00    -0.346 C  
BRANCH  21  22
HETATM   22  C   UNL     1     -11.104   6.783  67.370  1.00  0.00    -0.366 C  
BRANCH  22  23
HETATM   23  C   UNL     1     -10.252   6.177  68.474  1.00  0.00    -0.185 C  
BRANCH  23  24
HETATM   24  O   UNL     1     -11.091   5.862  69.580  1.00  0.00    -0.378 OA 
BRANCH  24  25
HETATM   25  C   UNL     1     -10.378   5.102  70.553  1.00  0.00    -0.243 C  
BRANCH  25  26
HETATM   26  C   UNL     1     -10.260   5.901  71.841  1.00  0.00    -0.203 C  
BRANCH  26  27
HETATM   27  O   UNL     1     -11.415   6.729  71.977  1.00  0.00    -0.259 OA 
BRANCH  27  28
HETATM   28  C   UNL     1     -11.091   7.976  72.576  1.00  0.00    -0.375 C  
BRANCH  28  29
HETATM   29  C   UNL     1     -11.467   9.080  71.625  1.00  0.00    -0.431 A  
HETATM   30  C   UNL     1     -12.766   9.616  71.606  1.00  0.00    -0.407 A  
HETATM   31 CL   UNL     1     -14.032   9.006  72.616  1.00  0.00    -0.466 Cl 
HETATM   32  C   UNL     1     -13.097  10.679  70.754  1.00  0.00    -0.299 A  
HETATM   33  C   UNL     1     -12.143  11.209  69.891  1.00  0.00    -0.418 A  
HETATM   34  C   UNL     1     -10.867  10.657  69.856  1.00  0.00    -0.301 A  
HETATM   35  C   UNL     1     -10.534   9.595  70.707  1.00  0.00    -0.305 A  
HETATM   36 CL   UNL     1      -8.931   8.957  70.565  1.00  0.00    -0.198 Cl 
ENDBRANCH  28  29
ENDBRANCH  27  28
ENDBRANCH  26  27
ENDBRANCH  25  26
ENDBRANCH  24  25
ENDBRANCH  23  24
ENDBRANCH  22  23
ENDBRANCH  21  22
ENDBRANCH  20  21
ENDBRANCH  19  20
ENDBRANCH  18  19
ENDBRANCH  16  18
ENDBRANCH  15  16
ENDBRANCH  12  15
ENDBRANCH  10  12
ENDBRANCH   2   4
TORSDOF 16
ENDMDL
MODEL       16
REMARK 921   NORMALIZED FREE ENERGY PREDICTED BY IDOCK:   -6.02 KCAL/MOL
REMARK 922        TOTAL FREE ENERGY PREDICTED BY IDOCK:  -13.72 KCAL/MOL
REMARK 923 INTER-LIGAND FREE ENERGY PREDICTED BY IDOCK:  -10.86 KCAL/MOL
REMARK 924 INTRA-LIGAND FREE ENERGY PREDICTED BY IDOCK:   -2.86 KCAL/MOL
REMARK 927      BINDING AFFINITY PREDICTED BY RF-SCORE:    0.00 PKD
ROOT
HETATM    1  O   UNL     1     -12.476  10.481  69.720  1.00  0.00    -0.531 OA 
HETATM    2  C   UNL     1     -11.463  10.616  68.721  1.00  0.00    -0.262 C  
HETATM    3  H   UNL     1     -12.381   9.663  70.193  1.00  0.00     0.000 HD 
ENDROOT
BRANCH   2   4
HETATM    4  C   UNL     1     -11.614  11.913  67.970  1.00  0.00    -0.401 A  
HETATM    5  C   UNL     1     -11.754  13.155  68.600  1.00  0.00    -0.326 A  
HETATM    6  O   UNL     1     -11.689  13.286  69.960  1.00  0.00    -0.428 OA 
HETATM    7  C   UNL     1     -11.963  14.321  67.870  1.00  0.00    -0.364 A  
HETATM    8  C   UNL     1     -12.029  14.267  66.479  1.00  0.00    -0.448 A  
HETATM    9  H   UNL     1     -11.783  14.128  70.387  1.00  0.00     0.000 HD 
HETATM   10  C   UNL     1     -11.892  13.043  65.809  1.00  0.00    -0.453 A  
HETATM   11  C   UNL     1     -11.699  11.874  66.567  1.00  0.00    -0.247 A  
BRANCH  10  12
HETATM   12  C   UNL     1     -12.035  12.994  64.302  1.00  0.00    -0.402 C  
HETATM   13  O   UNL     1     -12.361  14.295  63.794  1.00  0.00    -0.956 OA 
HETATM   14  H   UNL     1     -12.450  14.265  62.848  1.00  0.00     0.000 HD 
BRANCH  12  15
HETATM   15  C   UNL     1     -10.725  12.499  63.655  1.00  0.00    -0.430 C  
BRANCH  15  16
HETATM   16  N   UNL     1     -10.928  11.228  62.938  1.00  0.00    -0.786 NA 
HETATM   17  H   UNL     1     -11.362  11.370  62.026  1.00  0.00     0.000 HD 
BRANCH  16  18
HETATM   18  C   UNL     1      -9.667  10.502  62.836  1.00  0.00    -0.265 C  
BRANCH  18  19
HETATM   19  C   UNL     1      -8.883  10.623  64.140  1.00  0.00    -0.170 C  
BRANCH  19  20
HETATM   20  C   UNL     1      -9.298   9.515  65.108  1.00  0.00    -0.316 C  
BRANCH  20  21
HETATM   21  C   UNL     1      -8.609   9.679  66.458  1.00  0.00    -0.135 C  
BRANCH  21  22
HETATM   22  C   UNL     1      -7.725  10.922  66.478  1.00  0.00    -0.149 C  
BRANCH  22  23
HETATM   23  C   UNL     1      -7.905  11.686  67.780  1.00  0.00    -0.129 C  
BRANCH  23  24
HETATM   24  O   UNL     1      -8.445  12.970  67.487  1.00  0.00    -0.167 OA 
BRANCH  24  25
HETATM   25  C   UNL     1      -8.033  13.925  68.462  1.00  0.00    -0.137 C  
BRANCH  25  26
HETATM   26  C   UNL     1      -6.917  14.787  67.895  1.00  0.00    -0.160 C  
BRANCH  26  27
HETATM   27  O   UNL     1      -7.105  16.132  68.337  1.00  0.00    -0.124 OA 
BRANCH  27  28
HETATM   28  C   UNL     1      -7.107  17.041  67.246  1.00  0.00    -0.163 C  
BRANCH  28  29
HETATM   29  C   UNL     1      -8.365  17.864  67.306  1.00  0.00    -0.232 A  
HETATM   30  C   UNL     1      -8.455  19.002  68.127  1.00  0.00    -0.316 A  
HETATM   31 CL   UNL     1      -7.162  19.494  69.168  1.00  0.00    -0.397 Cl 
HETATM   32  C   UNL     1      -9.611  19.794  68.141  1.00  0.00    -0.483 A  
HETATM   33  C   UNL     1     -10.705  19.452  67.354  1.00  0.00    -0.594 A  
HETATM   34  C   UNL     1     -10.657  18.300  66.575  1.00  0.00    -0.313 A  
HETATM   35  C   UNL     1      -9.503  17.506  66.560  1.00  0.00    -0.272 A  
HETATM   36 CL   UNL     1      -9.553  16.078  65.584  1.00  0.00    -0.301 Cl 
ENDBRANCH  28  29
ENDBRANCH  27  28
ENDBRANCH  26  27
ENDBRANCH  25  26
ENDBRANCH  24  25
ENDBRANCH  23  24
ENDBRANCH  22  23
ENDBRANCH  21  22
ENDBRANCH  20  21
ENDBRANCH  19  20
ENDBRANCH  18  19
ENDBRANCH  16  18
ENDBRANCH  15  16
ENDBRANCH  12  15
ENDBRANCH  10  12
ENDBRANCH   2   4
TORSDOF 16
ENDMDL
MODEL       17
REMARK 921   NORMALIZED FREE ENERGY PREDICTED BY IDOCK:   -6.01 KCAL/MOL
REMARK 922        TOTAL FREE ENERGY PREDICTED BY IDOCK:  -13.71 KCAL/MOL
REMARK 923 INTER-LIGAND FREE ENERGY PREDICTED BY IDOCK:  -12.02 KCAL/MOL
REMARK 924 INTRA-LIGAND FREE ENERGY PREDICTED BY IDOCK:   -1.69 KCAL/MOL
REMARK 927      BINDING AFFINITY PREDICTED BY RF-SCORE:    0.00 PKD
ROOT
HETATM    1  O   UNL     1     -14.351   6.698  72.266  1.00  0.00    -0.614 OA 
HETATM    2  C   UNL     1     -13.297   7.528  71.776  1.00  0.00    -0.315 C  
HETATM    3  H   UNL     1     -15.058   7.220  72.625  1.00  0.00     0.000 HD 
ENDROOT
BRANCH   2   4
HETATM    4  C   UNL     1     -12.176   6.698  71.206  1.00  0.00    -0.369 A  
HETATM    5  C   UNL     1     -11.339   5.895  71.989  1.00  0.00    -0.267 A  
HETATM    6  O   UNL     1     -11.531   5.749  73.335  1.00  0.00    -0.468 OA 
HETATM    7  C   UNL     1     -10.269   5.201  71.432  1.00  0.00    -0.282 A  
HETATM    8  C   UNL     1     -10.019   5.291  70.065  1.00  0.00    -0.315 A  
HETATM    9  H   UNL     1     -10.963   5.204  73.867  1.00  0.00     0.000 HD 
HETATM   10  C   UNL     1     -10.834   6.083  69.245  1.00  0.00    -0.428 A  
HETATM   11  C   UNL     1     -11.899   6.791  69.831  1.00  0.00    -0.208 A  
BRANCH  10  12
HETATM   12  C   UNL     1     -10.505   6.224  67.773  1.00  0.00    -0.232 C  
HETATM   13  O   UNL     1     -11.701   6.471  67.020  1.00  0.00    -0.611 OA 
HETATM   14  H   UNL     1     -11.494   6.559  66.097  1.00  0.00     0.000 HD 
BRANCH  12  15
HETATM   15  C   UNL     1      -9.507   7.380  67.555  1.00  0.00    -0.138 C  
BRANCH  15  16
HETATM   16  N   UNL     1      -9.599   7.916  66.186  1.00  0.00    -0.421 NA 
HETATM   17  H   UNL     1     -10.496   7.700  65.751  1.00  0.00     0.000 HD 
BRANCH  16  18
HETATM   18  C   UNL     1      -9.326   9.349  66.188  1.00  0.00    -0.205 C  
BRANCH  18  19
HETATM   19  C   UNL     1     -10.285  10.069  65.243  1.00  0.00    -0.196 C  
BRANCH  19  20
HETATM   20  C   UNL     1      -9.540  10.532  63.991  1.00  0.00    -0.367 C  
BRANCH  20  21
HETATM   21  C   UNL     1     -10.093  11.859  63.483  1.00  0.00    -0.464 C  
BRANCH  21  22
HETATM   22  C   UNL     1     -11.614  11.900  63.589  1.00  0.00    -0.559 C  
BRANCH  22  23
HETATM   23  C   UNL     1     -12.089  13.300  63.941  1.00  0.00    -0.468 C  
BRANCH  23  24
HETATM   24  O   UNL     1     -10.988  14.041  64.460  1.00  0.00    -0.389 OA 
BRANCH  24  25
HETATM   25  C   UNL     1     -11.336  14.661  65.696  1.00  0.00    -0.338 C  
BRANCH  25  26
HETATM   26  C   UNL     1     -11.664  13.596  66.729  1.00  0.00    -0.392 C  
BRANCH  26  27
HETATM   27  O   UNL     1     -12.178  14.233  67.899  1.00  0.00    -0.311 OA 
BRANCH  27  28
HETATM   28  C   UNL     1     -11.302  14.070  69.005  1.00  0.00    -0.281 C  
BRANCH  28  29
HETATM   29  C   UNL     1     -12.006  13.265  70.063  1.00  0.00    -0.399 A  
HETATM   30  C   UNL     1     -12.753  13.886  71.079  1.00  0.00    -0.357 A  
HETATM   31 CL   UNL     1     -12.861  15.607  71.225  1.00  0.00    -0.531 Cl 
HETATM   32  C   UNL     1     -13.448  13.129  72.032  1.00  0.00    -0.598 A  
HETATM   33  C   UNL     1     -13.390  11.739  72.001  1.00  0.00    -0.417 A  
HETATM   34  C   UNL     1     -12.613  11.106  71.037  1.00  0.00    -0.503 A  
HETATM   35  C   UNL     1     -11.917  11.861  70.084  1.00  0.00    -0.332 A  
HETATM   36 CL   UNL     1     -10.954  10.981  68.947  1.00  0.00    -0.248 Cl 
ENDBRANCH  28  29
ENDBRANCH  27  28
ENDBRANCH  26  27
ENDBRANCH  25  26
ENDBRANCH  24  25
ENDBRANCH  23  24
ENDBRANCH  22  23
ENDBRANCH  21  22
ENDBRANCH  20  21
ENDBRANCH  19  20
ENDBRANCH  18  19
ENDBRANCH  16  18
ENDBRANCH  15  16
ENDBRANCH  12  15
ENDBRANCH  10  12
ENDBRANCH   2   4
TORSDOF 16
ENDMDL
MODEL       18
REMARK 921   NORMALIZED FREE ENERGY PREDICTED BY IDOCK:   -6.01 KCAL/MOL
REMARK 922        TOTAL FREE ENERGY PREDICTED BY IDOCK:  -13.70 KCAL/MOL
REMARK 923 INTER-LIGAND FREE ENERGY PREDICTED BY IDOCK:  -10.54 KCAL/MOL
REMARK 924 INTRA-LIGAND FREE ENERGY PREDICTED BY IDOCK:   -3.16 KCAL/MOL
REMARK 927      BINDING AFFINITY PREDICTED BY RF-SCORE:    0.00 PKD
ROOT
HETATM    1  O   UNL     1     -13.794  15.572  70.756  1.00  0.00    -0.867 OA 
HETATM    2  C   UNL     1     -12.771  14.610  70.499  1.00  0.00    -0.337 C  
HETATM    3  H   UNL     1     -14.239  15.387  71.575  1.00  0.00     0.000 HD 
ENDROOT
BRANCH   2   4
HETATM    4  C   UNL     1     -12.066  14.904  69.201  1.00  0.00    -0.267 A  
HETATM    5  C   UNL     1     -11.281  16.044  68.993  1.00  0.00    -0.347 A  
HETATM    6  O   UNL     1     -11.037  16.945  69.992  1.00  0.00    -0.417 OA 
HETATM    7  C   UNL     1     -10.706  16.314  67.754  1.00  0.00    -0.325 A  
HETATM    8  C   UNL     1     -10.900  15.434  66.692  1.00  0.00    -0.302 A  
HETATM    9  H   UNL     1     -10.505  17.718  69.851  1.00  0.00     0.000 HD 
HETATM   10  C   UNL     1     -11.678  14.280  66.859  1.00  0.00    -0.430 A  
HETATM   11  C   UNL     1     -12.265  14.036  68.113  1.00  0.00    -0.191 A  
BRANCH  10  12
HETATM   12  C   UNL     1     -11.934  13.372  65.674  1.00  0.00    -0.401 C  
HETATM   13  O   UNL     1     -13.140  13.763  65.002  1.00  0.00    -0.751 OA 
HETATM   14  H   UNL     1     -13.300  13.194  64.259  1.00  0.00     0.000 HD 
BRANCH  12  15
HETATM   15  C   UNL     1     -10.749  13.430  64.687  1.00  0.00    -0.411 C  
BRANCH  15  16
HETATM   16  N   UNL     1      -9.785  12.347  64.944  1.00  0.00    -0.467 NA 
HETATM   17  H   UNL     1      -9.272  12.490  65.814  1.00  0.00     0.000 HD 
BRANCH  16  18
HETATM   18  C   UNL     1     -10.463  11.055  64.918  1.00  0.00    -0.303 C  
BRANCH  18  19
HETATM   19  C   UNL     1      -9.985  10.188  66.080  1.00  0.00    -0.310 C  
BRANCH  19  20
HETATM   20  C   UNL     1     -10.136  10.945  67.399  1.00  0.00    -0.223 C  
BRANCH  20  21
HETATM   21  C   UNL     1     -11.313  10.412  68.207  1.00  0.00    -0.292 C  
BRANCH  21  22
HETATM   22  C   UNL     1     -11.085  10.601  69.704  1.00  0.00    -0.342 C  
BRANCH  22  23
HETATM   23  C   UNL     1     -12.395  10.914  70.410  1.00  0.00    -0.351 C  
BRANCH  23  24
HETATM   24  O   UNL     1     -12.410  10.245  71.666  1.00  0.00    -0.388 OA 
BRANCH  24  25
HETATM   25  C   UNL     1     -13.509   9.340  71.742  1.00  0.00    -0.415 C  
BRANCH  25  26
HETATM   26  C   UNL     1     -12.995   7.925  71.946  1.00  0.00    -0.298 C  
BRANCH  26  27
HETATM   27  O   UNL     1     -12.442   7.454  70.718  1.00  0.00    -0.218 OA 
BRANCH  27  28
HETATM   28  C   UNL     1     -11.330   6.600  70.944  1.00  0.00    -0.325 C  
BRANCH  28  29
HETATM   29  C   UNL     1     -10.136   7.159  70.219  1.00  0.00    -0.195 A  
HETATM   30  C   UNL     1      -9.158   7.911  70.892  1.00  0.00    -0.151 A  
HETATM   31 CL   UNL     1      -9.289   8.302  72.573  1.00  0.00    -0.326 Cl 
HETATM   32  C   UNL     1      -8.022   8.386  70.222  1.00  0.00    -0.102 A  
HETATM   33  C   UNL     1      -7.855   8.139  68.864  1.00  0.00    -0.112 A  
HETATM   34  C   UNL     1      -8.837   7.442  68.167  1.00  0.00    -0.127 A  
HETATM   35  C   UNL     1      -9.973   6.967  68.835  1.00  0.00    -0.157 A  
HETATM   36 CL   UNL     1     -11.152   6.140  67.874  1.00  0.00    -0.394 Cl 
ENDBRANCH  28  29
ENDBRANCH  27  28
ENDBRANCH  26  27
ENDBRANCH  25  26
ENDBRANCH  24  25
ENDBRANCH  23  24
ENDBRANCH  22  23
ENDBRANCH  21  22
ENDBRANCH  20  21
ENDBRANCH  19  20
ENDBRANCH  18  19
ENDBRANCH  16  18
ENDBRANCH  15  16
ENDBRANCH  12  15
ENDBRANCH  10  12
ENDBRANCH   2   4
TORSDOF 16
ENDMDL
MODEL       19
REMARK 921   NORMALIZED FREE ENERGY PREDICTED BY IDOCK:   -6.01 KCAL/MOL
REMARK 922        TOTAL FREE ENERGY PREDICTED BY IDOCK:  -13.70 KCAL/MOL
REMARK 923 INTER-LIGAND FREE ENERGY PREDICTED BY IDOCK:  -11.76 KCAL/MOL
REMARK 924 INTRA-LIGAND FREE ENERGY PREDICTED BY IDOCK:   -1.94 KCAL/MOL
REMARK 927      BINDING AFFINITY PREDICTED BY RF-SCORE:    0.00 PKD
ROOT
HETATM    1  O   UNL     1      -7.641   8.800  71.999  1.00  0.00    -0.281 OA 
HETATM    2  C   UNL     1      -8.659   8.987  71.015  1.00  0.00    -0.210 C  
HETATM    3  H   UNL     1      -6.874   9.325  71.800  1.00  0.00     0.000 HD 
ENDROOT
BRANCH   2   4
HETATM    4  C   UNL     1      -9.875   8.154  71.331  1.00  0.00    -0.223 A  
HETATM    5  C   UNL     1      -9.857   6.756  71.383  1.00  0.00    -0.178 A  
HETATM    6  O   UNL     1      -8.702   6.042  71.221  1.00  0.00    -0.134 OA 
HETATM    7  C   UNL     1     -11.019   6.023  71.608  1.00  0.00    -0.328 A  
HETATM    8  C   UNL     1     -12.231   6.682  71.794  1.00  0.00    -0.400 A  
HETATM    9  H   UNL     1      -8.690   5.093  71.256  1.00  0.00     0.000 HD 
HETATM   10  C   UNL     1     -12.292   8.082  71.751  1.00  0.00    -0.352 A  
HETATM   11  C   UNL     1     -11.110   8.803  71.505  1.00  0.00    -0.377 A  
BRANCH  10  12
HETATM   12  C   UNL     1     -13.630   8.778  71.887  1.00  0.00    -0.424 C  
HETATM   13  O   UNL     1     -13.995   8.882  73.271  1.00  0.00    -1.203 OA 
HETATM   14  H   UNL     1     -14.835   9.319  73.356  1.00  0.00     0.000 HD 
BRANCH  12  15
HETATM   15  C   UNL     1     -13.568  10.187  71.261  1.00  0.00    -0.120 C  
BRANCH  15  16
HETATM   16  N   UNL     1     -13.509  11.232  72.298  1.00  0.00    -0.521 NA 
HETATM   17  H   UNL     1     -12.981  10.928  73.116  1.00  0.00     0.000 HD 
BRANCH  16  18
HETATM   18  C   UNL     1     -12.978  12.469  71.734  1.00  0.00    -0.313 C  
BRANCH  18  19
HETATM   19  C   UNL     1     -13.794  13.662  72.225  1.00  0.00    -0.689 C  
BRANCH  19  20
HETATM   20  C   UNL     1     -12.894  14.640  72.980  1.00  0.00    -0.572 C  
BRANCH  20  21
HETATM   21  C   UNL     1     -12.698  15.929  72.190  1.00  0.00    -0.506 C  
BRANCH  21  22
HETATM   22  C   UNL     1     -11.411  15.884  71.373  1.00  0.00    -0.484 C  
BRANCH  22  23
HETATM   23  C   UNL     1     -11.719  15.941  69.885  1.00  0.00    -0.322 C  
BRANCH  23  24
HETATM   24  O   UNL     1     -11.456  14.664  69.313  1.00  0.00    -0.260 OA 
BRANCH  24  25
HETATM   25  C   UNL     1     -10.666  14.794  68.133  1.00  0.00    -0.247 C  
BRANCH  25  26
HETATM   26  C   UNL     1     -11.566  14.758  66.909  1.00  0.00    -0.327 C  
BRANCH  26  27
HETATM   27  O   UNL     1     -10.970  13.915  65.923  1.00  0.00    -0.283 OA 
BRANCH  27  28
HETATM   28  C   UNL     1     -11.789  12.790  65.639  1.00  0.00    -0.425 C  
BRANCH  28  29
HETATM   29  C   UNL     1     -10.955  11.544  65.758  1.00  0.00    -0.305 A  
HETATM   30  C   UNL     1     -10.252  11.027  64.656  1.00  0.00    -0.330 A  
HETATM   31 CL   UNL     1     -10.348  11.741  63.082  1.00  0.00    -0.403 Cl 
HETATM   32  C   UNL     1      -9.436   9.895  64.785  1.00  0.00    -0.356 A  
HETATM   33  C   UNL     1      -9.326   9.246  66.010  1.00  0.00    -0.283 A  
HETATM   34  C   UNL     1     -10.055   9.709  67.100  1.00  0.00    -0.276 A  
HETATM   35  C   UNL     1     -10.871  10.840  66.974  1.00  0.00    -0.252 A  
HETATM   36 CL   UNL     1     -11.762  11.318  68.379  1.00  0.00    -0.378 Cl 
ENDBRANCH  28  29
ENDBRANCH  27  28
ENDBRANCH  26  27
ENDBRANCH  25  26
ENDBRANCH  24  25
ENDBRANCH  23  24
ENDBRANCH  22  23
ENDBRANCH  21  22
ENDBRANCH  20  21
ENDBRANCH  19  20
ENDBRANCH  18  19
ENDBRANCH  16  18
ENDBRANCH  15  16
ENDBRANCH  12  15
ENDBRANCH  10  12
ENDBRANCH   2   4
TORSDOF 16
ENDMDL
MODEL       20
REMARK 921   NORMALIZED FREE ENERGY PREDICTED BY IDOCK:   -5.98 KCAL/MOL
REMARK 922        TOTAL FREE ENERGY PREDICTED BY IDOCK:  -13.65 KCAL/MOL
REMARK 923 INTER-LIGAND FREE ENERGY PREDICTED BY IDOCK:  -11.64 KCAL/MOL
REMARK 924 INTRA-LIGAND FREE ENERGY PREDICTED BY IDOCK:   -2.01 KCAL/MOL
REMARK 927      BINDING AFFINITY PREDICTED BY RF-SCORE:    0.00 PKD
ROOT
HETATM    1  O   UNL     1     -13.690  15.299  70.686  1.00  0.00    -0.715 OA 
HETATM    2  C   UNL     1     -12.652  14.363  70.395  1.00  0.00    -0.345 C  
HETATM    3  H   UNL     1     -14.125  15.083  71.503  1.00  0.00     0.000 HD 
ENDROOT
BRANCH   2   4
HETATM    4  C   UNL     1     -11.962  14.706  69.100  1.00  0.00    -0.329 A  
HETATM    5  C   UNL     1     -11.236  15.886  68.904  1.00  0.00    -0.343 A  
HETATM    6  O   UNL     1     -11.039  16.788  69.912  1.00  0.00    -0.423 OA 
HETATM    7  C   UNL     1     -10.676  16.197  67.669  1.00  0.00    -0.318 A  
HETATM    8  C   UNL     1     -10.825  15.320  66.597  1.00  0.00    -0.310 A  
HETATM    9  H   UNL     1     -10.546  17.589  69.779  1.00  0.00     0.000 HD 
HETATM   10  C   UNL     1     -11.543  14.126  66.752  1.00  0.00    -0.409 A  
HETATM   11  C   UNL     1     -12.117  13.840  68.004  1.00  0.00    -0.315 A  
BRANCH  10  12
HETATM   12  C   UNL     1     -11.753  13.218  65.558  1.00  0.00    -0.346 C  
HETATM   13  O   UNL     1     -13.046  13.450  64.982  1.00  0.00    -0.734 OA 
HETATM   14  H   UNL     1     -13.178  12.881  64.233  1.00  0.00     0.000 HD 
BRANCH  12  15
HETATM   15  C   UNL     1     -10.661  13.466  64.497  1.00  0.00    -0.419 C  
BRANCH  15  16
HETATM   16  N   UNL     1      -9.709  12.344  64.435  1.00  0.00    -0.520 NA 
HETATM   17  H   UNL     1      -8.994  12.410  65.159  1.00  0.00     0.000 HD 
BRANCH  16  18
HETATM   18  C   UNL     1     -10.426  11.074  64.492  1.00  0.00    -0.342 C  
BRANCH  18  19
HETATM   19  C   UNL     1      -9.487   9.961  64.947  1.00  0.00    -0.355 C  
BRANCH  19  20
HETATM   20  C   UNL     1      -9.790   9.576  66.395  1.00  0.00    -0.320 C  
BRANCH  20  21
HETATM   21  C   UNL     1     -10.169   8.104  66.505  1.00  0.00    -0.248 C  
BRANCH  21  22
HETATM   22  C   UNL     1     -10.267   7.667  67.963  1.00  0.00    -0.248 C  
BRANCH  22  23
HETATM   23  C   UNL     1     -10.879   6.279  68.066  1.00  0.00    -0.326 C  
BRANCH  23  24
HETATM   24  O   UNL     1     -11.520   6.153  69.331  1.00  0.00    -0.423 OA 
BRANCH  24  25
HETATM   25  C   UNL     1     -10.647   5.546  70.281  1.00  0.00    -0.287 C  
BRANCH  25  26
HETATM   26  C   UNL     1     -11.145   5.830  71.689  1.00  0.00    -0.226 C  
BRANCH  26  27
HETATM   27  O   UNL     1     -10.280   6.789  72.298  1.00  0.00    -0.188 OA 
BRANCH  27  28
HETATM   28  C   UNL     1     -11.017   7.847  72.894  1.00  0.00    -0.388 C  
BRANCH  28  29
HETATM   29  C   UNL     1     -11.291   8.892  71.847  1.00  0.00    -0.446 A  
HETATM   30  C   UNL     1     -12.600   9.327  71.574  1.00  0.00    -0.352 A  
HETATM   31 CL   UNL     1     -13.982   8.650  72.366  1.00  0.00    -0.446 Cl 
HETATM   32  C   UNL     1     -12.845  10.337  70.634  1.00  0.00    -0.362 A  
HETATM   33  C   UNL     1     -11.791  10.914  69.934  1.00  0.00    -0.427 A  
HETATM   34  C   UNL     1     -10.494  10.461  70.150  1.00  0.00    -0.185 A  
HETATM   35  C   UNL     1     -10.246   9.451  71.089  1.00  0.00    -0.291 A  
HETATM   36 CL   UNL     1      -8.604   8.934  71.261  1.00  0.00    -0.255 Cl 
ENDBRANCH  28  29
ENDBRANCH  27  28
ENDBRANCH  26  27
ENDBRANCH  25  26
ENDBRANCH  24  25
ENDBRANCH  23  24
ENDBRANCH  22  23
ENDBRANCH  21  22
ENDBRANCH  20  21
ENDBRANCH  19  20
ENDBRANCH  18  19
ENDBRANCH  16  18
ENDBRANCH  15  16
ENDBRANCH  12  15
ENDBRANCH  10  12
ENDBRANCH   2   4
TORSDOF 16
ENDMDL
MODEL       21
REMARK 921   NORMALIZED FREE ENERGY PREDICTED BY IDOCK:   -5.98 KCAL/MOL
REMARK 922        TOTAL FREE ENERGY PREDICTED BY IDOCK:  -13.65 KCAL/MOL
REMARK 923 INTER-LIGAND FREE ENERGY PREDICTED BY IDOCK:  -11.09 KCAL/MOL
REMARK 924 INTRA-LIGAND FREE ENERGY PREDICTED BY IDOCK:   -2.55 KCAL/MOL
REMARK 927      BINDING AFFINITY PREDICTED BY RF-SCORE:    0.00 PKD
ROOT
HETATM    1  O   UNL     1      -8.397   6.953  73.655  1.00  0.00    -0.116 OA 
HETATM    2  C   UNL     1      -8.524   7.860  72.559  1.00  0.00    -0.145 C  
HETATM    3  H   UNL     1      -7.649   7.175  74.196  1.00  0.00     0.000 HD 
ENDROOT
BRANCH   2   4
HETATM    4  C   UNL     1      -9.711   7.508  71.701  1.00  0.00    -0.184 A  
HETATM    5  C   UNL     1     -11.006   7.348  72.207  1.00  0.00    -0.254 A  
HETATM    6  O   UNL     1     -11.300   7.575  73.522  1.00  0.00    -0.620 OA 
HETATM    7  C   UNL     1     -12.061   6.952  71.390  1.00  0.00    -0.408 A  
HETATM    8  C   UNL     1     -11.840   6.714  70.036  1.00  0.00    -0.301 A  
HETATM    9  H   UNL     1     -12.179   7.467  73.866  1.00  0.00     0.000 HD 
HETATM   10  C   UNL     1     -10.558   6.864  69.488  1.00  0.00    -0.261 A  
HETATM   11  C   UNL     1      -9.503   7.248  70.335  1.00  0.00    -0.165 A  
BRANCH  10  12
HETATM   12  C   UNL     1     -10.323   6.535  68.029  1.00  0.00    -0.187 C  
HETATM   13  O   UNL     1     -11.562   6.573  67.307  1.00  0.00    -0.737 OA 
HETATM   14  H   UNL     1     -11.415   6.367  66.392  1.00  0.00     0.000 HD 
BRANCH  12  15
HETATM   15  C   UNL     1      -9.330   7.537  67.406  1.00  0.00    -0.140 C  
BRANCH  15  16
HETATM   16  N   UNL     1      -9.353   7.470  65.935  1.00  0.00    -0.400 NA 
HETATM   17  H   UNL     1     -10.300   7.355  65.573  1.00  0.00     0.000 HD 
BRANCH  16  18
HETATM   18  C   UNL     1      -8.692   8.641  65.368  1.00  0.00    -0.174 C  
BRANCH  18  19
HETATM   19  C   UNL     1      -8.875   9.845  66.289  1.00  0.00    -0.160 C  
BRANCH  19  20
HETATM   20  C   UNL     1      -9.234  11.084  65.470  1.00  0.00    -0.235 C  
BRANCH  20  21
HETATM   21  C   UNL     1     -10.652  10.988  64.919  1.00  0.00    -0.328 C  
BRANCH  21  22
HETATM   22  C   UNL     1     -10.794  11.774  63.620  1.00  0.00    -0.508 C  
BRANCH  22  23
HETATM   23  C   UNL     1     -12.031  12.657  63.660  1.00  0.00    -0.535 C  
BRANCH  23  24
HETATM   24  O   UNL     1     -12.526  12.691  64.995  1.00  0.00    -0.494 OA 
BRANCH  24  25
HETATM   25  C   UNL     1     -12.785  14.033  65.402  1.00  0.00    -0.471 C  
BRANCH  25  26
HETATM   26  C   UNL     1     -12.029  14.335  66.685  1.00  0.00    -0.430 C  
BRANCH  26  27
HETATM   27  O   UNL     1     -11.875  13.123  67.424  1.00  0.00    -0.355 OA 
BRANCH  27  28
HETATM   28  C   UNL     1     -11.119  13.332  68.608  1.00  0.00    -0.268 C  
BRANCH  28  29
HETATM   29  C   UNL     1     -11.893  12.786  69.777  1.00  0.00    -0.380 A  
HETATM   30  C   UNL     1     -11.942  11.406  70.042  1.00  0.00    -0.363 A  
HETATM   31 CL   UNL     1     -11.178  10.242  69.015  1.00  0.00    -0.268 Cl 
HETATM   32  C   UNL     1     -12.622  10.909  71.162  1.00  0.00    -0.532 A  
HETATM   33  C   UNL     1     -13.285  11.776  72.023  1.00  0.00    -0.460 A  
HETATM   34  C   UNL     1     -13.295  13.140  71.749  1.00  0.00    -0.477 A  
HETATM   35  C   UNL     1     -12.616  13.640  70.631  1.00  0.00    -0.296 A  
HETATM   36 CL   UNL     1     -12.714  15.347  70.359  1.00  0.00    -0.434 Cl 
ENDBRANCH  28  29
ENDBRANCH  27  28
ENDBRANCH  26  27
ENDBRANCH  25  26
ENDBRANCH  24  25
ENDBRANCH  23  24
ENDBRANCH  22  23
ENDBRANCH  21  22
ENDBRANCH  20  21
ENDBRANCH  19  20
ENDBRANCH  18  19
ENDBRANCH  16  18
ENDBRANCH  15  16
ENDBRANCH  12  15
ENDBRANCH  10  12
ENDBRANCH   2   4
TORSDOF 16
ENDMDL
MODEL       22
REMARK 921   NORMALIZED FREE ENERGY PREDICTED BY IDOCK:   -5.97 KCAL/MOL
REMARK 922        TOTAL FREE ENERGY PREDICTED BY IDOCK:  -13.62 KCAL/MOL
REMARK 923 INTER-LIGAND FREE ENERGY PREDICTED BY IDOCK:  -10.78 KCAL/MOL
REMARK 924 INTRA-LIGAND FREE ENERGY PREDICTED BY IDOCK:   -2.85 KCAL/MOL
REMARK 927      BINDING AFFINITY PREDICTED BY RF-SCORE:    0.00 PKD
ROOT
HETATM    1  O   UNL     1      -8.059   8.678  72.980  1.00  0.00    -0.394 OA 
HETATM    2  C   UNL     1      -8.888   7.670  73.560  1.00  0.00    -0.230 C  
HETATM    3  H   UNL     1      -7.322   8.880  73.545  1.00  0.00     0.000 HD 
ENDROOT
BRANCH   2   4
HETATM    4  C   UNL     1     -10.056   7.349  72.664  1.00  0.00    -0.255 A  
HETATM    5  C   UNL     1     -10.048   6.303  71.734  1.00  0.00    -0.186 A  
HETATM    6  O   UNL     1      -8.992   5.443  71.625  1.00  0.00    -0.134 OA 
HETATM    7  C   UNL     1     -11.122   6.087  70.875  1.00  0.00    -0.352 A  
HETATM    8  C   UNL     1     -12.239   6.916  70.937  1.00  0.00    -0.404 A  
HETATM    9  H   UNL     1      -8.986   4.733  70.995  1.00  0.00     0.000 HD 
HETATM   10  C   UNL     1     -12.288   7.975  71.855  1.00  0.00    -0.360 A  
HETATM   11  C   UNL     1     -11.185   8.187  72.701  1.00  0.00    -0.447 A  
BRANCH  10  12
HETATM   12  C   UNL     1     -13.481   8.907  71.859  1.00  0.00    -0.414 C  
HETATM   13  O   UNL     1     -14.114   8.894  73.146  1.00  0.00    -1.125 OA 
HETATM   14  H   UNL     1     -14.862   9.480  73.150  1.00  0.00     0.000 HD 
BRANCH  12  15
HETATM   15  C   UNL     1     -13.039  10.345  71.514  1.00  0.00    -0.431 C  
BRANCH  15  16
HETATM   16  N   UNL     1     -12.663  10.463  70.095  1.00  0.00    -0.541 NA 
HETATM   17  H   UNL     1     -13.480  10.545  69.489  1.00  0.00     0.000 HD 
BRANCH  16  18
HETATM   18  C   UNL     1     -11.736  11.574  69.912  1.00  0.00    -0.343 C  
BRANCH  18  19
HETATM   19  C   UNL     1     -11.872  12.146  68.503  1.00  0.00    -0.365 C  
BRANCH  19  20
HETATM   20  C   UNL     1     -11.612  13.652  68.520  1.00  0.00    -0.371 C  
BRANCH  20  21
HETATM   21  C   UNL     1     -11.370  14.184  67.112  1.00  0.00    -0.348 C  
BRANCH  21  22
HETATM   22  C   UNL     1     -12.602  13.994  66.232  1.00  0.00    -0.352 C  
BRANCH  22  23
HETATM   23  C   UNL     1     -12.199  13.834  64.774  1.00  0.00    -0.406 C  
BRANCH  23  24
HETATM   24  O   UNL     1     -12.891  12.717  64.227  1.00  0.00    -0.689 OA 
BRANCH  24  25
HETATM   25  C   UNL     1     -11.987  11.847  63.550  1.00  0.00    -0.466 C  
BRANCH  25  26
HETATM   26  C   UNL     1     -10.693  11.736  64.340  1.00  0.00    -0.327 C  
BRANCH  26  27
HETATM   27  O   UNL     1     -10.804  10.647  65.256  1.00  0.00    -0.104 OA 
BRANCH  27  28
HETATM   28  C   UNL     1      -9.557   9.992  65.435  1.00  0.00    -0.279 C  
BRANCH  28  29
HETATM   29  C   UNL     1      -9.277   9.881  66.909  1.00  0.00    -0.171 A  
HETATM   30  C   UNL     1      -9.721   8.776  67.656  1.00  0.00    -0.169 A  
HETATM   31 CL   UNL     1     -10.669   7.509  66.957  1.00  0.00    -0.422 Cl 
HETATM   32  C   UNL     1      -9.413   8.654  69.018  1.00  0.00    -0.153 A  
HETATM   33  C   UNL     1      -8.678   9.643  69.663  1.00  0.00    -0.206 A  
HETATM   34  C   UNL     1      -8.275  10.771  68.954  1.00  0.00    -0.149 A  
HETATM   35  C   UNL     1      -8.582  10.895  67.593  1.00  0.00    -0.124 A  
HETATM   36 CL   UNL     1      -8.065  12.349  66.809  1.00  0.00    -0.058 Cl 
ENDBRANCH  28  29
ENDBRANCH  27  28
ENDBRANCH  26  27
ENDBRANCH  25  26
ENDBRANCH  24  25
ENDBRANCH  23  24
ENDBRANCH  22  23
ENDBRANCH  21  22
ENDBRANCH  20  21
ENDBRANCH  19  20
ENDBRANCH  18  19
ENDBRANCH  16  18
ENDBRANCH  15  16
ENDBRANCH  12  15
ENDBRANCH  10  12
ENDBRANCH   2   4
TORSDOF 16
ENDMDL
MODEL       23
REMARK 921   NORMALIZED FREE ENERGY PREDICTED BY IDOCK:   -5.94 KCAL/MOL
REMARK 922        TOTAL FREE ENERGY PREDICTED BY IDOCK:  -13.57 KCAL/MOL
REMARK 923 INTER-LIGAND FREE ENERGY PREDICTED BY IDOCK:  -10.90 KCAL/MOL
REMARK 924 INTRA-LIGAND FREE ENERGY PREDICTED BY IDOCK:   -2.67 KCAL/MOL
REMARK 927      BINDING AFFINITY PREDICTED BY RF-SCORE:    0.00 PKD
ROOT
HETATM    1  O   UNL     1     -10.600  14.394  69.914  1.00  0.00    -0.447 OA 
HETATM    2  C   UNL     1     -11.680  14.727  69.041  1.00  0.00    -0.312 C  
HETATM    3  H   UNL     1     -10.874  14.426  70.823  1.00  0.00     0.000 HD 
ENDROOT
BRANCH   2   4
HETATM    4  C   UNL     1     -11.245  14.676  67.600  1.00  0.00    -0.332 A  
HETATM    5  C   UNL     1     -10.104  15.328  67.117  1.00  0.00    -0.240 A  
HETATM    6  O   UNL     1      -9.253  16.004  67.947  1.00  0.00    -0.195 OA 
HETATM    7  C   UNL     1      -9.777  15.315  65.764  1.00  0.00    -0.385 A  
HETATM    8  C   UNL     1     -10.591  14.636  64.860  1.00  0.00    -0.446 A  
HETATM    9  H   UNL     1      -8.479  16.445  67.620  1.00  0.00     0.000 HD 
HETATM   10  C   UNL     1     -11.742  13.969  65.302  1.00  0.00    -0.349 A  
HETATM   11  C   UNL     1     -12.063  14.010  66.671  1.00  0.00    -0.487 A  
BRANCH  10  12
HETATM   12  C   UNL     1     -12.650  13.295  64.295  1.00  0.00    -0.182 C  
HETATM   13  O   UNL     1     -12.461  13.870  62.995  1.00  0.00    -1.099 OA 
HETATM   14  H   UNL     1     -13.030  13.447  62.363  1.00  0.00     0.000 HD 
BRANCH  12  15
HETATM   15  C   UNL     1     -12.358  11.781  64.239  1.00  0.00    -0.097 C  
BRANCH  15  16
HETATM   16  N   UNL     1     -11.449  11.451  63.128  1.00  0.00    -0.873 NA 
HETATM   17  H   UNL     1     -11.459  12.167  62.401  1.00  0.00     0.000 HD 
BRANCH  16  18
HETATM   18  C   UNL     1     -10.103  11.209  63.635  1.00  0.00    -0.379 C  
BRANCH  18  19
HETATM   19  C   UNL     1     -10.170  10.618  65.041  1.00  0.00    -0.380 C  
BRANCH  19  20
HETATM   20  C   UNL     1      -9.225  11.373  65.975  1.00  0.00    -0.229 C  
BRANCH  20  21
HETATM   21  C   UNL     1      -9.668  11.244  67.428  1.00  0.00    -0.190 C  
BRANCH  21  22
HETATM   22  C   UNL     1     -11.080  10.674  67.525  1.00  0.00    -0.367 C  
BRANCH  22  23
HETATM   23  C   UNL     1     -11.584  10.732  68.958  1.00  0.00    -0.299 C  
BRANCH  23  24
HETATM   24  O   UNL     1     -10.531  10.335  69.830  1.00  0.00    -0.257 OA 
BRANCH  24  25
HETATM   25  C   UNL     1     -11.046   9.599  70.938  1.00  0.00    -0.352 C  
BRANCH  25  26
HETATM   26  C   UNL     1      -9.909   8.890  71.654  1.00  0.00    -0.317 C  
BRANCH  26  27
HETATM   27  O   UNL     1     -10.457   7.887  72.510  1.00  0.00    -0.249 OA 
BRANCH  27  28
HETATM   28  C   UNL     1     -11.447   7.119  71.840  1.00  0.00    -0.270 C  
BRANCH  28  29
HETATM   29  C   UNL     1     -10.810   5.857  71.324  1.00  0.00    -0.333 A  
HETATM   30  C   UNL     1     -10.511   5.694  69.960  1.00  0.00    -0.297 A  
HETATM   31 CL   UNL     1     -10.909   6.893  68.778  1.00  0.00    -0.244 Cl 
HETATM   32  C   UNL     1      -9.871   4.538  69.494  1.00  0.00    -0.277 A  
HETATM   33  C   UNL     1      -9.541   3.514  70.376  1.00  0.00    -0.241 A  
HETATM   34  C   UNL     1      -9.877   3.632  71.721  1.00  0.00    -0.235 A  
HETATM   35  C   UNL     1     -10.516   4.787  72.189  1.00  0.00    -0.175 A  
HETATM   36 CL   UNL     1     -10.921   4.824  73.872  1.00  0.00    -0.363 Cl 
ENDBRANCH  28  29
ENDBRANCH  27  28
ENDBRANCH  26  27
ENDBRANCH  25  26
ENDBRANCH  24  25
ENDBRANCH  23  24
ENDBRANCH  22  23
ENDBRANCH  21  22
ENDBRANCH  20  21
ENDBRANCH  19  20
ENDBRANCH  18  19
ENDBRANCH  16  18
ENDBRANCH  15  16
ENDBRANCH  12  15
ENDBRANCH  10  12
ENDBRANCH   2   4
TORSDOF 16
ENDMDL
MODEL       24
REMARK 921   NORMALIZED FREE ENERGY PREDICTED BY IDOCK:   -5.93 KCAL/MOL
REMARK 922        TOTAL FREE ENERGY PREDICTED BY IDOCK:  -13.56 KCAL/MOL
REMARK 923 INTER-LIGAND FREE ENERGY PREDICTED BY IDOCK:  -10.67 KCAL/MOL
REMARK 924 INTRA-LIGAND FREE ENERGY PREDICTED BY IDOCK:   -2.89 KCAL/MOL
REMARK 927      BINDING AFFINITY PREDICTED BY RF-SCORE:    0.00 PKD
ROOT
HETATM    1  O   UNL     1     -12.877  16.081  69.518  1.00  0.00    -0.462 OA 
HETATM    2  C   UNL     1     -12.072  14.966  69.133  1.00  0.00    -0.231 C  
HETATM    3  H   UNL     1     -13.233  15.959  70.390  1.00  0.00     0.000 HD 
ENDROOT
BRANCH   2   4
HETATM    4  C   UNL     1     -11.507  15.159  67.750  1.00  0.00    -0.329 A  
HETATM    5  C   UNL     1     -10.695  16.243  67.395  1.00  0.00    -0.287 A  
HETATM    6  O   UNL     1     -10.294  17.175  68.312  1.00  0.00    -0.313 OA 
HETATM    7  C   UNL     1     -10.253  16.422  66.088  1.00  0.00    -0.363 A  
HETATM    8  C   UNL     1     -10.611  15.506  65.101  1.00  0.00    -0.455 A  
HETATM    9  H   UNL     1      -9.743  17.910  68.071  1.00  0.00     0.000 HD 
HETATM   10  C   UNL     1     -11.421  14.406  65.415  1.00  0.00    -0.344 A  
HETATM   11  C   UNL     1     -11.872  14.253  66.738  1.00  0.00    -0.449 A  
BRANCH  10  12
HETATM   12  C   UNL     1     -11.857  13.459  64.316  1.00  0.00    -0.423 C  
HETATM   13  O   UNL     1     -12.315  14.200  63.177  1.00  0.00    -1.125 OA 
HETATM   14  H   UNL     1     -12.588  13.606  62.487  1.00  0.00     0.000 HD 
BRANCH  12  15
HETATM   15  C   UNL     1     -10.686  12.543  63.902  1.00  0.00    -0.437 C  
BRANCH  15  16
HETATM   16  N   UNL     1     -10.664  11.307  64.703  1.00  0.00    -0.321 NA 
HETATM   17  H   UNL     1     -10.902  10.487  64.146  1.00  0.00     0.000 HD 
BRANCH  16  18
HETATM   18  C   UNL     1      -9.371  11.161  65.364  1.00  0.00    -0.219 C  
BRANCH  18  19
HETATM   19  C   UNL     1      -9.541  11.256  66.877  1.00  0.00    -0.210 C  
BRANCH  19  20
HETATM   20  C   UNL     1     -10.767  10.457  67.320  1.00  0.00    -0.331 C  
BRANCH  20  21
HETATM   21  C   UNL     1     -11.609  11.249  68.314  1.00  0.00    -0.370 C  
BRANCH  21  22
HETATM   22  C   UNL     1     -11.238  10.902  69.752  1.00  0.00    -0.351 C  
BRANCH  22  23
HETATM   23  C   UNL     1     -12.383  11.232  70.696  1.00  0.00    -0.383 C  
BRANCH  23  24
HETATM   24  O   UNL     1     -12.460  10.220  71.694  1.00  0.00    -0.389 OA 
BRANCH  24  25
HETATM   25  C   UNL     1     -13.639   9.435  71.525  1.00  0.00    -0.336 C  
BRANCH  25  26
HETATM   26  C   UNL     1     -13.347   7.988  71.887  1.00  0.00    -0.306 C  
BRANCH  26  27
HETATM   27  O   UNL     1     -12.802   7.329  70.744  1.00  0.00    -0.191 OA 
BRANCH  27  28
HETATM   28  C   UNL     1     -11.658   6.560  71.087  1.00  0.00    -0.335 C  
BRANCH  28  29
HETATM   29  C   UNL     1     -10.432   7.261  70.567  1.00  0.00    -0.229 A  
HETATM   30  C   UNL     1     -10.047   7.157  69.220  1.00  0.00    -0.176 A  
HETATM   31 CL   UNL     1     -10.906   6.171  68.086  1.00  0.00    -0.364 Cl 
HETATM   32  C   UNL     1      -8.933   7.854  68.730  1.00  0.00    -0.141 A  
HETATM   33  C   UNL     1      -8.172   8.647  69.582  1.00  0.00    -0.114 A  
HETATM   34  C   UNL     1      -8.505   8.721  70.931  1.00  0.00    -0.209 A  
HETATM   35  C   UNL     1      -9.617   8.025  71.422  1.00  0.00    -0.154 A  
HETATM   36 CL   UNL     1      -9.928   8.156  73.120  1.00  0.00    -0.318 Cl 
ENDBRANCH  28  29
ENDBRANCH  27  28
ENDBRANCH  26  27
ENDBRANCH  25  26
ENDBRANCH  24  25
ENDBRANCH  23  24
ENDBRANCH  22  23
ENDBRANCH  21  22
ENDBRANCH  20  21
ENDBRANCH  19  20
ENDBRANCH  18  19
ENDBRANCH  16  18
ENDBRANCH  15  16
ENDBRANCH  12  15
ENDBRANCH  10  12
ENDBRANCH   2   4
TORSDOF 16
ENDMDL
MODEL       25
REMARK 921   NORMALIZED FREE ENERGY PREDICTED BY IDOCK:   -5.93 KCAL/MOL
REMARK 922        TOTAL FREE ENERGY PREDICTED BY IDOCK:  -13.55 KCAL/MOL
REMARK 923 INTER-LIGAND FREE ENERGY PREDICTED BY IDOCK:  -11.87 KCAL/MOL
REMARK 924 INTRA-LIGAND FREE ENERGY PREDICTED BY IDOCK:   -1.68 KCAL/MOL
REMARK 927      BINDING AFFINITY PREDICTED BY RF-SCORE:    0.00 PKD
ROOT
HETATM    1  O   UNL     1      -8.446  20.228  66.279  1.00  0.00    -0.509 OA 
HETATM    2  C   UNL     1      -9.419  19.498  67.028  1.00  0.00    -0.337 C  
HETATM    3  H   UNL     1      -8.478  21.154  66.488  1.00  0.00     0.000 HD 
ENDROOT
BRANCH   2   4
HETATM    4  C   UNL     1      -9.367  18.030  66.696  1.00  0.00    -0.297 A  
HETATM    5  C   UNL     1      -8.267  17.213  66.985  1.00  0.00    -0.207 A  
HETATM    6  O   UNL     1      -7.179  17.684  67.665  1.00  0.00    -0.174 OA 
HETATM    7  C   UNL     1      -8.232  15.878  66.596  1.00  0.00    -0.317 A  
HETATM    8  C   UNL     1      -9.311  15.325  65.910  1.00  0.00    -0.308 A  
HETATM    9  H   UNL     1      -6.433  17.130  67.862  1.00  0.00     0.000 HD 
HETATM   10  C   UNL     1     -10.432  16.108  65.602  1.00  0.00    -0.402 A  
HETATM   11  C   UNL     1     -10.440  17.460  65.988  1.00  0.00    -0.278 A  
BRANCH  10  12
HETATM   12  C   UNL     1     -11.565  15.508  64.795  1.00  0.00    -0.256 C  
HETATM   13  O   UNL     1     -11.799  16.288  63.614  1.00  0.00    -1.404 OA 
HETATM   14  H   UNL     1     -12.509  15.911  63.108  1.00  0.00     0.000 HD 
BRANCH  12  15
HETATM   15  C   UNL     1     -11.231  14.055  64.399  1.00  0.00    -0.306 C  
BRANCH  15  16
HETATM   16  N   UNL     1     -12.168  13.548  63.382  1.00  0.00    -0.942 NA 
HETATM   17  H   UNL     1     -11.934  13.881  62.447  1.00  0.00     0.000 HD 
BRANCH  16  18
HETATM   18  C   UNL     1     -12.233  12.091  63.441  1.00  0.00    -0.519 C  
BRANCH  18  19
HETATM   19  C   UNL     1     -11.407  11.575  64.616  1.00  0.00    -0.226 C  
BRANCH  19  20
HETATM   20  C   UNL     1     -10.182  10.817  64.106  1.00  0.00    -0.412 C  
BRANCH  20  21
HETATM   21  C   UNL     1      -9.261  10.425  65.255  1.00  0.00    -0.240 C  
BRANCH  21  22
HETATM   22  C   UNL     1      -9.023   8.919  65.282  1.00  0.00    -0.213 C  
BRANCH  22  23
HETATM   23  C   UNL     1      -9.359   8.348  66.651  1.00  0.00    -0.191 C  
BRANCH  23  24
HETATM   24  O   UNL     1      -9.521   9.423  67.569  1.00  0.00    -0.126 OA 
BRANCH  24  25
HETATM   25  C   UNL     1      -9.185   9.012  68.892  1.00  0.00    -0.140 C  
BRANCH  25  26
HETATM   26  C   UNL     1     -10.000   9.806  69.899  1.00  0.00    -0.245 C  
BRANCH  26  27
HETATM   27  O   UNL     1     -10.337  11.069  69.325  1.00  0.00    -0.214 OA 
BRANCH  27  28
HETATM   28  C   UNL     1     -11.742  11.208  69.167  1.00  0.00    -0.338 C  
BRANCH  28  29
HETATM   29  C   UNL     1     -12.240  12.229  70.154  1.00  0.00    -0.302 A  
HETATM   30  C   UNL     1     -12.103  13.607  69.911  1.00  0.00    -0.341 A  
HETATM   31 CL   UNL     1     -11.301  14.222  68.507  1.00  0.00    -0.290 Cl 
HETATM   32  C   UNL     1     -12.615  14.553  70.810  1.00  0.00    -0.418 A  
HETATM   33  C   UNL     1     -13.249  14.141  71.977  1.00  0.00    -0.488 A  
HETATM   34  C   UNL     1     -13.347  12.783  72.262  1.00  0.00    -0.563 A  
HETATM   35  C   UNL     1     -12.837  11.835  71.365  1.00  0.00    -0.335 A  
HETATM   36 CL   UNL     1     -12.979  10.173  71.826  1.00  0.00    -0.535 Cl 
ENDBRANCH  28  29
ENDBRANCH  27  28
ENDBRANCH  26  27
ENDBRANCH  25  26
ENDBRANCH  24  25
ENDBRANCH  23  24
ENDBRANCH  22  23
ENDBRANCH  21  22
ENDBRANCH  20  21
ENDBRANCH  19  20
ENDBRANCH  18  19
ENDBRANCH  16  18
ENDBRANCH  15  16
ENDBRANCH  12  15
ENDBRANCH  10  12
ENDBRANCH   2   4
TORSDOF 16
ENDMDL
MODEL       26
REMARK 921   NORMALIZED FREE ENERGY PREDICTED BY IDOCK:   -5.93 KCAL/MOL
REMARK 922        TOTAL FREE ENERGY PREDICTED BY IDOCK:  -13.55 KCAL/MOL
REMARK 923 INTER-LIGAND FREE ENERGY PREDICTED BY IDOCK:  -11.73 KCAL/MOL
REMARK 924 INTRA-LIGAND FREE ENERGY PREDICTED BY IDOCK:   -1.82 KCAL/MOL
REMARK 927      BINDING AFFINITY PREDICTED BY RF-SCORE:    0.00 PKD
ROOT
HETATM    1  O   UNL     1     -11.414  16.428  63.954  1.00  0.00    -1.569 OA 
HETATM    2  C   UNL     1     -11.002  15.622  65.058  1.00  0.00    -0.431 C  
HETATM    3  H   UNL     1     -11.442  17.347  64.194  1.00  0.00     0.000 HD 
ENDROOT
BRANCH   2   4
HETATM    4  C   UNL     1     -10.957  14.165  64.676  1.00  0.00    -0.393 A  
HETATM    5  C   UNL     1     -11.840  13.582  63.761  1.00  0.00    -0.381 A  
HETATM    6  O   UNL     1     -12.771  14.321  63.085  1.00  0.00    -0.873 OA 
HETATM    7  C   UNL     1     -11.810  12.217  63.491  1.00  0.00    -0.597 A  
HETATM    8  C   UNL     1     -10.880  11.402  64.133  1.00  0.00    -0.431 A  
HETATM    9  H   UNL     1     -13.370  13.926  62.464  1.00  0.00     0.000 HD 
HETATM   10  C   UNL     1      -9.976  11.947  65.055  1.00  0.00    -0.276 A  
HETATM   11  C   UNL     1     -10.035  13.325  65.327  1.00  0.00    -0.192 A  
BRANCH  10  12
HETATM   12  C   UNL     1      -9.019  11.035  65.794  1.00  0.00    -0.195 C  
HETATM   13  O   UNL     1      -9.666  10.459  66.937  1.00  0.00    -0.171 OA 
HETATM   14  H   UNL     1      -9.066   9.886  67.400  1.00  0.00     0.000 HD 
BRANCH  12  15
HETATM   15  C   UNL     1      -8.520   9.912  64.860  1.00  0.00    -0.161 C  
BRANCH  15  16
HETATM   16  N   UNL     1      -9.173   8.629  65.170  1.00  0.00    -0.431 NA 
HETATM   17  H   UNL     1      -9.980   8.456  64.570  1.00  0.00     0.000 HD 
BRANCH  16  18
HETATM   18  C   UNL     1      -8.202   7.542  65.103  1.00  0.00    -0.120 C  
BRANCH  18  19
HETATM   19  C   UNL     1      -8.373   6.609  66.299  1.00  0.00    -0.125 C  
BRANCH  19  20
HETATM   20  C   UNL     1      -9.419   5.539  65.987  1.00  0.00    -0.147 C  
BRANCH  20  21
HETATM   21  C   UNL     1     -10.433   5.414  67.118  1.00  0.00    -0.298 C  
BRANCH  21  22
HETATM   22  C   UNL     1      -9.857   5.927  68.434  1.00  0.00    -0.163 C  
BRANCH  22  23
HETATM   23  C   UNL     1     -10.909   5.885  69.531  1.00  0.00    -0.372 C  
BRANCH  23  24
HETATM   24  O   UNL     1     -10.578   6.854  70.520  1.00  0.00    -0.212 OA 
BRANCH  24  25
HETATM   25  C   UNL     1     -11.082   8.138  70.156  1.00  0.00    -0.187 C  
BRANCH  25  26
HETATM   26  C   UNL     1     -10.137   9.219  70.653  1.00  0.00    -0.276 C  
BRANCH  26  27
HETATM   27  O   UNL     1     -10.338  10.400  69.876  1.00  0.00    -0.244 OA 
BRANCH  27  28
HETATM   28  C   UNL     1     -11.709  10.579  69.552  1.00  0.00    -0.241 C  
BRANCH  28  29
HETATM   29  C   UNL     1     -12.259  11.703  70.387  1.00  0.00    -0.434 A  
HETATM   30  C   UNL     1     -13.026  11.452  71.538  1.00  0.00    -0.399 A  
HETATM   31 CL   UNL     1     -13.447   9.848  72.035  1.00  0.00    -0.497 Cl 
HETATM   32  C   UNL     1     -13.492  12.502  72.341  1.00  0.00    -0.372 A  
HETATM   33  C   UNL     1     -13.221  13.822  71.996  1.00  0.00    -0.520 A  
HETATM   34  C   UNL     1     -12.509  14.094  70.832  1.00  0.00    -0.436 A  
HETATM   35  C   UNL     1     -12.042  13.046  70.028  1.00  0.00    -0.297 A  
HETATM   36 CL   UNL     1     -11.196  13.490  68.585  1.00  0.00    -0.291 Cl 
ENDBRANCH  28  29
ENDBRANCH  27  28
ENDBRANCH  26  27
ENDBRANCH  25  26
ENDBRANCH  24  25
ENDBRANCH  23  24
ENDBRANCH  22  23
ENDBRANCH  21  22
ENDBRANCH  20  21
ENDBRANCH  19  20
ENDBRANCH  18  19
ENDBRANCH  16  18
ENDBRANCH  15  16
ENDBRANCH  12  15
ENDBRANCH  10  12
ENDBRANCH   2   4
TORSDOF 16
ENDMDL
MODEL       27
REMARK 921   NORMALIZED FREE ENERGY PREDICTED BY IDOCK:   -5.92 KCAL/MOL
REMARK 922        TOTAL FREE ENERGY PREDICTED BY IDOCK:  -13.54 KCAL/MOL
REMARK 923 INTER-LIGAND FREE ENERGY PREDICTED BY IDOCK:  -12.19 KCAL/MOL
REMARK 924 INTRA-LIGAND FREE ENERGY PREDICTED BY IDOCK:   -1.35 KCAL/MOL
REMARK 927      BINDING AFFINITY PREDICTED BY RF-SCORE:    0.00 PKD
ROOT
HETATM    1  O   UNL     1     -11.905   6.691  72.955  1.00  0.00    -0.482 OA 
HETATM    2  C   UNL     1     -12.343   7.041  71.641  1.00  0.00    -0.368 C  
HETATM    3  H   UNL     1     -11.899   5.749  73.073  1.00  0.00     0.000 HD 
ENDROOT
BRANCH   2   4
HETATM    4  C   UNL     1     -12.352   8.537  71.455  1.00  0.00    -0.354 A  
HETATM    5  C   UNL     1     -13.220   9.392  72.144  1.00  0.00    -0.460 A  
HETATM    6  O   UNL     1     -14.081   8.930  73.100  1.00  0.00    -1.125 OA 
HETATM    7  C   UNL     1     -13.244  10.760  71.889  1.00  0.00    -0.524 A  
HETATM    8  C   UNL     1     -12.386  11.305  70.936  1.00  0.00    -0.490 A  
HETATM    9  H   UNL     1     -14.669   9.511  73.567  1.00  0.00     0.000 HD 
HETATM   10  C   UNL     1     -11.501  10.483  70.226  1.00  0.00    -0.416 A  
HETATM   11  C   UNL     1     -11.505   9.101  70.486  1.00  0.00    -0.271 A  
BRANCH  10  12
HETATM   12  C   UNL     1     -10.625  11.083  69.146  1.00  0.00    -0.219 C  
HETATM   13  O   UNL     1      -9.241  10.951  69.500  1.00  0.00    -0.402 OA 
HETATM   14  H   UNL     1      -8.692  11.327  68.823  1.00  0.00     0.000 HD 
BRANCH  12  15
HETATM   15  C   UNL     1     -10.883  10.383  67.795  1.00  0.00    -0.297 C  
BRANCH  15  16
HETATM   16  N   UNL     1      -9.800  10.656  66.835  1.00  0.00    -0.182 NA 
HETATM   17  H   UNL     1      -8.941  10.164  67.077  1.00  0.00     0.000 HD 
BRANCH  16  18
HETATM   18  C   UNL     1     -10.242  10.346  65.479  1.00  0.00    -0.246 C  
BRANCH  18  19
HETATM   19  C   UNL     1      -9.452  11.172  64.467  1.00  0.00    -0.254 C  
BRANCH  19  20
HETATM   20  C   UNL     1     -10.320  11.480  63.247  1.00  0.00    -0.435 C  
BRANCH  20  21
HETATM   21  C   UNL     1     -11.746  11.825  63.659  1.00  0.00    -0.517 C  
BRANCH  21  22
HETATM   22  C   UNL     1     -11.897  13.320  63.922  1.00  0.00    -0.522 C  
BRANCH  22  23
HETATM   23  C   UNL     1     -12.538  13.564  65.279  1.00  0.00    -0.468 C  
BRANCH  23  24
HETATM   24  O   UNL     1     -11.811  14.586  65.952  1.00  0.00    -0.369 OA 
BRANCH  24  25
HETATM   25  C   UNL     1     -11.532  14.204  67.297  1.00  0.00    -0.350 C  
BRANCH  25  26
HETATM   26  C   UNL     1     -11.649  15.414  68.209  1.00  0.00    -0.348 C  
BRANCH  26  27
HETATM   27  O   UNL     1     -10.832  16.463  67.689  1.00  0.00    -0.327 OA 
BRANCH  27  28
HETATM   28  C   UNL     1     -10.364  17.317  68.723  1.00  0.00    -0.358 C  
BRANCH  28  29
HETATM   29  C   UNL     1      -9.110  18.002  68.252  1.00  0.00    -0.284 A  
HETATM   30  C   UNL     1      -9.163  19.196  67.513  1.00  0.00    -0.296 A  
HETATM   31 CL   UNL     1     -10.661  19.922  67.037  1.00  0.00    -0.566 Cl 
HETATM   32  C   UNL     1      -7.991  19.857  67.122  1.00  0.00    -0.337 A  
HETATM   33  C   UNL     1      -6.746  19.326  67.441  1.00  0.00    -0.213 A  
HETATM   34  C   UNL     1      -6.671  18.117  68.125  1.00  0.00    -0.206 A  
HETATM   35  C   UNL     1      -7.842  17.454  68.517  1.00  0.00    -0.268 A  
HETATM   36 CL   UNL     1      -7.643  15.942  69.335  1.00  0.00    -0.230 Cl 
ENDBRANCH  28  29
ENDBRANCH  27  28
ENDBRANCH  26  27
ENDBRANCH  25  26
ENDBRANCH  24  25
ENDBRANCH  23  24
ENDBRANCH  22  23
ENDBRANCH  21  22
ENDBRANCH  20  21
ENDBRANCH  19  20
ENDBRANCH  18  19
ENDBRANCH  16  18
ENDBRANCH  15  16
ENDBRANCH  12  15
ENDBRANCH  10  12
ENDBRANCH   2   4
TORSDOF 16
ENDMDL
MODEL       28
REMARK 921   NORMALIZED FREE ENERGY PREDICTED BY IDOCK:   -5.87 KCAL/MOL
REMARK 922        TOTAL FREE ENERGY PREDICTED BY IDOCK:  -13.44 KCAL/MOL
REMARK 923 INTER-LIGAND FREE ENERGY PREDICTED BY IDOCK:  -10.53 KCAL/MOL
REMARK 924 INTRA-LIGAND FREE ENERGY PREDICTED BY IDOCK:   -2.90 KCAL/MOL
REMARK 927      BINDING AFFINITY PREDICTED BY RF-SCORE:    0.00 PKD
ROOT
HETATM    1  O   UNL     1     -11.415  13.917  70.856  1.00  0.00    -0.485 OA 
HETATM    2  C   UNL     1     -11.938  14.832  69.893  1.00  0.00    -0.328 C  
HETATM    3  H   UNL     1     -11.819  14.048  71.706  1.00  0.00     0.000 HD 
ENDROOT
BRANCH   2   4
HETATM    4  C   UNL     1     -11.298  14.623  68.545  1.00  0.00    -0.305 A  
HETATM    5  C   UNL     1      -9.919  14.716  68.326  1.00  0.00    -0.222 A  
HETATM    6  O   UNL     1      -9.039  14.934  69.350  1.00  0.00    -0.377 OA 
HETATM    7  C   UNL     1      -9.375  14.587  67.052  1.00  0.00    -0.249 A  
HETATM    8  C   UNL     1     -10.210  14.352  65.961  1.00  0.00    -0.328 A  
HETATM    9  H   UNL     1      -8.103  14.997  69.202  1.00  0.00     0.000 HD 
HETATM   10  C   UNL     1     -11.597  14.251  66.137  1.00  0.00    -0.374 A  
HETATM   11  C   UNL     1     -12.127  14.402  67.431  1.00  0.00    -0.348 A  
BRANCH  10  12
HETATM   12  C   UNL     1     -12.493  14.064  64.931  1.00  0.00    -0.396 C  
HETATM   13  O   UNL     1     -12.134  14.993  63.899  1.00  0.00    -0.905 OA 
HETATM   14  H   UNL     1     -12.697  14.875  63.142  1.00  0.00     0.000 HD 
BRANCH  12  15
HETATM   15  C   UNL     1     -12.375  12.622  64.394  1.00  0.00    -0.446 C  
BRANCH  15  16
HETATM   16  N   UNL     1     -11.573  12.574  63.160  1.00  0.00    -0.744 NA 
HETATM   17  H   UNL     1     -11.393  13.506  62.785  1.00  0.00     0.000 HD 
BRANCH  16  18
HETATM   18  C   UNL     1     -10.339  11.831  63.391  1.00  0.00    -0.439 C  
BRANCH  18  19
HETATM   19  C   UNL     1     -10.488  10.933  64.616  1.00  0.00    -0.384 C  
BRANCH  19  20
HETATM   20  C   UNL     1      -9.177  10.893  65.401  1.00  0.00    -0.231 C  
BRANCH  20  21
HETATM   21  C   UNL     1      -8.267   9.780  64.895  1.00  0.00    -0.142 C  
BRANCH  21  22
HETATM   22  C   UNL     1      -7.899   8.815  66.017  1.00  0.00    -0.105 C  
BRANCH  22  23
HETATM   23  C   UNL     1      -6.533   9.156  66.590  1.00  0.00    -0.067 C  
BRANCH  23  24
HETATM   24  O   UNL     1      -6.711   9.959  67.752  1.00  0.00    -0.070 OA 
BRANCH  24  25
HETATM   25  C   UNL     1      -7.347   9.213  68.788  1.00  0.00    -0.075 C  
BRANCH  25  26
HETATM   26  C   UNL     1      -7.423  10.054  70.051  1.00  0.00    -0.173 C  
BRANCH  26  27
HETATM   27  O   UNL     1      -8.325   9.431  70.966  1.00  0.00    -0.294 OA 
BRANCH  27  28
HETATM   28  C   UNL     1      -9.354   8.730  70.282  1.00  0.00    -0.174 C  
BRANCH  28  29
HETATM   29  C   UNL     1     -10.685   9.280  70.718  1.00  0.00    -0.350 A  
HETATM   30  C   UNL     1     -11.326  10.302  69.996  1.00  0.00    -0.301 A  
HETATM   31 CL   UNL     1     -10.607  11.041  68.606  1.00  0.00    -0.203 Cl 
HETATM   32  C   UNL     1     -12.589  10.775  70.378  1.00  0.00    -0.395 A  
HETATM   33  C   UNL     1     -13.223  10.253  71.501  1.00  0.00    -0.484 A  
HETATM   34  C   UNL     1     -12.582   9.279  72.260  1.00  0.00    -0.402 A  
HETATM   35  C   UNL     1     -11.320   8.805  71.880  1.00  0.00    -0.361 A  
HETATM   36 CL   UNL     1     -10.593   7.617  72.908  1.00  0.00    -0.375 Cl 
ENDBRANCH  28  29
ENDBRANCH  27  28
ENDBRANCH  26  27
ENDBRANCH  25  26
ENDBRANCH  24  25
ENDBRANCH  23  24
ENDBRANCH  22  23
ENDBRANCH  21  22
ENDBRANCH  20  21
ENDBRANCH  19  20
ENDBRANCH  18  19
ENDBRANCH  16  18
ENDBRANCH  15  16
ENDBRANCH  12  15
ENDBRANCH  10  12
ENDBRANCH   2   4
TORSDOF 16
ENDMDL
MODEL       29
REMARK 921   NORMALIZED FREE ENERGY PREDICTED BY IDOCK:   -5.86 KCAL/MOL
REMARK 922        TOTAL FREE ENERGY PREDICTED BY IDOCK:  -13.42 KCAL/MOL
REMARK 923 INTER-LIGAND FREE ENERGY PREDICTED BY IDOCK:  -11.80 KCAL/MOL
REMARK 924 INTRA-LIGAND FREE ENERGY PREDICTED BY IDOCK:   -1.62 KCAL/MOL
REMARK 927      BINDING AFFINITY PREDICTED BY RF-SCORE:    0.00 PKD
ROOT
HETATM    1  O   UNL     1     -11.335   5.120  65.582  1.00  0.00    -0.818 OA 
HETATM    2  C   UNL     1     -10.439   4.999  66.688  1.00  0.00    -0.250 C  
HETATM    3  H   UNL     1     -11.257   4.377  64.996  1.00  0.00     0.000 HD 
ENDROOT
BRANCH   2   4
HETATM    4  C   UNL     1     -10.563   6.179  67.616  1.00  0.00    -0.340 A  
HETATM    5  C   UNL     1     -10.264   7.492  67.236  1.00  0.00    -0.267 A  
HETATM    6  O   UNL     1      -9.903   7.808  65.956  1.00  0.00    -0.451 OA 
HETATM    7  C   UNL     1     -10.324   8.544  68.146  1.00  0.00    -0.258 A  
HETATM    8  C   UNL     1     -10.696   8.300  69.466  1.00  0.00    -0.179 A  
HETATM    9  H   UNL     1      -9.700   8.699  65.697  1.00  0.00     0.000 HD 
HETATM   10  C   UNL     1     -11.006   6.999  69.887  1.00  0.00    -0.296 A  
HETATM   11  C   UNL     1     -10.922   5.948  68.956  1.00  0.00    -0.359 A  
BRANCH  10  12
HETATM   12  C   UNL     1     -11.341   6.743  71.342  1.00  0.00    -0.279 C  
HETATM   13  O   UNL     1     -10.216   6.162  72.015  1.00  0.00    -0.191 OA 
HETATM   14  H   UNL     1     -10.426   6.002  72.927  1.00  0.00     0.000 HD 
BRANCH  12  15
HETATM   15  C   UNL     1     -11.739   8.060  72.040  1.00  0.00    -0.323 C  
BRANCH  15  16
HETATM   16  N   UNL     1     -13.195   8.137  72.249  1.00  0.00    -0.528 NA 
HETATM   17  H   UNL     1     -13.480   7.692  73.121  1.00  0.00     0.000 HD 
BRANCH  16  18
HETATM   18  C   UNL     1     -13.640   9.525  72.174  1.00  0.00    -0.424 C  
BRANCH  18  19
HETATM   19  C   UNL     1     -13.027  10.209  70.955  1.00  0.00    -0.473 C  
BRANCH  19  20
HETATM   20  C   UNL     1     -12.650  11.651  71.295  1.00  0.00    -0.425 C  
BRANCH  20  21
HETATM   21  C   UNL     1     -13.628  12.254  72.296  1.00  0.00    -0.299 C  
BRANCH  21  22
HETATM   22  C   UNL     1     -13.319  13.726  72.551  1.00  0.00    -0.656 C  
BRANCH  22  23
HETATM   23  C   UNL     1     -13.466  14.533  71.271  1.00  0.00    -0.362 C  
BRANCH  23  24
HETATM   24  O   UNL     1     -12.604  15.665  71.342  1.00  0.00    -0.401 OA 
BRANCH  24  25
HETATM   25  C   UNL     1     -11.323  15.357  70.796  1.00  0.00    -0.345 C  
BRANCH  25  26
HETATM   26  C   UNL     1     -10.882  16.475  69.865  1.00  0.00    -0.283 C  
BRANCH  26  27
HETATM   27  O   UNL     1     -11.213  16.114  68.524  1.00  0.00    -0.337 OA 
BRANCH  27  28
HETATM   28  C   UNL     1     -10.572  14.907  68.139  1.00  0.00    -0.244 C  
BRANCH  28  29
HETATM   29  C   UNL     1     -11.094  14.492  66.790  1.00  0.00    -0.325 A  
HETATM   30  C   UNL     1     -11.730  13.253  66.602  1.00  0.00    -0.377 A  
HETATM   31 CL   UNL     1     -11.896  12.097  67.879  1.00  0.00    -0.388 Cl 
HETATM   32  C   UNL     1     -12.259  12.894  65.355  1.00  0.00    -0.528 A  
HETATM   33  C   UNL     1     -12.143  13.755  64.269  1.00  0.00    -0.481 A  
HETATM   34  C   UNL     1     -11.470  14.963  64.421  1.00  0.00    -0.255 A  
HETATM   35  C   UNL     1     -10.939  15.324  65.666  1.00  0.00    -0.344 A  
HETATM   36 CL   UNL     1     -10.093  16.832  65.744  1.00  0.00    -0.311 Cl 
ENDBRANCH  28  29
ENDBRANCH  27  28
ENDBRANCH  26  27
ENDBRANCH  25  26
ENDBRANCH  24  25
ENDBRANCH  23  24
ENDBRANCH  22  23
ENDBRANCH  21  22
ENDBRANCH  20  21
ENDBRANCH  19  20
ENDBRANCH  18  19
ENDBRANCH  16  18
ENDBRANCH  15  16
ENDBRANCH  12  15
ENDBRANCH  10  12
ENDBRANCH   2   4
TORSDOF 16
ENDMDL
MODEL       30
REMARK 921   NORMALIZED FREE ENERGY PREDICTED BY IDOCK:   -5.86 KCAL/MOL
REMARK 922        TOTAL FREE ENERGY PREDICTED BY IDOCK:  -13.42 KCAL/MOL
REMARK 923 INTER-LIGAND FREE ENERGY PREDICTED BY IDOCK:  -10.77 KCAL/MOL
REMARK 924 INTRA-LIGAND FREE ENERGY PREDICTED BY IDOCK:   -2.65 KCAL/MOL
REMARK 927      BINDING AFFINITY PREDICTED BY RF-SCORE:    0.00 PKD
ROOT
HETATM    1  O   UNL     1     -13.047  14.431  69.756  1.00  0.00    -0.401 OA 
HETATM    2  C   UNL     1     -11.775  13.914  69.366  1.00  0.00    -0.315 C  
HETATM    3  H   UNL     1     -13.111  14.505  70.701  1.00  0.00     0.000 HD 
ENDROOT
BRANCH   2   4
HETATM    4  C   UNL     1     -11.675  13.797  67.868  1.00  0.00    -0.395 A  
HETATM    5  C   UNL     1     -11.869  12.596  67.175  1.00  0.00    -0.330 A  
HETATM    6  O   UNL     1     -12.239  11.446  67.815  1.00  0.00    -0.537 OA 
HETATM    7  C   UNL     1     -11.696  12.517  65.796  1.00  0.00    -0.478 A  
HETATM    8  C   UNL     1     -11.330  13.651  65.076  1.00  0.00    -0.339 A  
HETATM    9  H   UNL     1     -12.371  10.631  67.345  1.00  0.00     0.000 HD 
HETATM   10  C   UNL     1     -11.128  14.874  65.731  1.00  0.00    -0.342 A  
HETATM   11  C   UNL     1     -11.290  14.928  67.127  1.00  0.00    -0.348 A  
BRANCH  10  12
HETATM   12  C   UNL     1     -10.664  16.079  64.940  1.00  0.00    -0.316 C  
HETATM   13  O   UNL     1     -11.631  16.413  63.934  1.00  0.00    -1.564 OA 
HETATM   14  H   UNL     1     -11.340  17.169  63.438  1.00  0.00     0.000 HD 
BRANCH  12  15
HETATM   15  C   UNL     1     -10.454  17.287  65.877  1.00  0.00    -0.262 C  
BRANCH  15  16
HETATM   16  N   UNL     1      -9.088  17.825  65.760  1.00  0.00    -0.408 NA 
HETATM   17  H   UNL     1      -9.057  18.829  65.936  1.00  0.00     0.000 HD 
BRANCH  16  18
HETATM   18  C   UNL     1      -8.182  17.089  66.635  1.00  0.00    -0.260 C  
BRANCH  18  19
HETATM   19  C   UNL     1      -8.714  17.093  68.066  1.00  0.00    -0.221 C  
BRANCH  19  20
HETATM   20  C   UNL     1      -8.425  15.752  68.739  1.00  0.00    -0.198 C  
BRANCH  20  21
HETATM   21  C   UNL     1      -7.698  14.806  67.790  1.00  0.00    -0.170 C  
BRANCH  21  22
HETATM   22  C   UNL     1      -8.090  13.355  68.050  1.00  0.00    -0.160 C  
BRANCH  22  23
HETATM   23  C   UNL     1      -6.935  12.593  68.678  1.00  0.00    -0.091 C  
BRANCH  23  24
HETATM   24  O   UNL     1      -7.318  11.231  68.840  1.00  0.00    -0.101 OA 
BRANCH  24  25
HETATM   25  C   UNL     1      -8.736  11.115  68.935  1.00  0.00    -0.080 C  
BRANCH  25  26
HETATM   26  C   UNL     1      -9.184   9.793  68.333  1.00  0.00    -0.130 C  
BRANCH  26  27
HETATM   27  O   UNL     1     -10.451   9.440  68.887  1.00  0.00    -0.208 OA 
BRANCH  27  28
HETATM   28  C   UNL     1     -10.428   9.488  70.306  1.00  0.00    -0.268 C  
BRANCH  28  29
HETATM   29  C   UNL     1     -11.690   8.859  70.831  1.00  0.00    -0.312 A  
HETATM   30  C   UNL     1     -12.726   9.641  71.372  1.00  0.00    -0.374 A  
HETATM   31 CL   UNL     1     -12.597  11.359  71.535  1.00  0.00    -0.433 Cl 
HETATM   32  C   UNL     1     -13.920   9.054  71.812  1.00  0.00    -0.415 A  
HETATM   33  C   UNL     1     -14.092   7.676  71.742  1.00  0.00    -0.510 A  
HETATM   34  C   UNL     1     -13.059   6.879  71.259  1.00  0.00    -0.273 A  
HETATM   35  C   UNL     1     -11.864   7.463  70.819  1.00  0.00    -0.258 A  
HETATM   36 CL   UNL     1     -10.628   6.385  70.266  1.00  0.00    -0.270 Cl 
ENDBRANCH  28  29
ENDBRANCH  27  28
ENDBRANCH  26  27
ENDBRANCH  25  26
ENDBRANCH  24  25
ENDBRANCH  23  24
ENDBRANCH  22  23
ENDBRANCH  21  22
ENDBRANCH  20  21
ENDBRANCH  19  20
ENDBRANCH  18  19
ENDBRANCH  16  18
ENDBRANCH  15  16
ENDBRANCH  12  15
ENDBRANCH  10  12
ENDBRANCH   2   4
TORSDOF 16
ENDMDL
MODEL       31
REMARK 921   NORMALIZED FREE ENERGY PREDICTED BY IDOCK:   -5.86 KCAL/MOL
REMARK 922        TOTAL FREE ENERGY PREDICTED BY IDOCK:  -13.42 KCAL/MOL
REMARK 923 INTER-LIGAND FREE ENERGY PREDICTED BY IDOCK:  -11.69 KCAL/MOL
REMARK 924 INTRA-LIGAND FREE ENERGY PREDICTED BY IDOCK:   -1.73 KCAL/MOL
REMARK 927      BINDING AFFINITY PREDICTED BY RF-SCORE:    0.00 PKD
ROOT
HETATM    1  O   UNL     1     -11.560   4.624  65.244  1.00  0.00    -1.093 OA 
HETATM    2  C   UNL     1     -10.376   4.640  66.043  1.00  0.00    -0.284 C  
HETATM    3  H   UNL     1     -11.569   3.873  64.662  1.00  0.00     0.000 HD 
ENDROOT
BRANCH   2   4
HETATM    4  C   UNL     1     -10.364   5.830  66.966  1.00  0.00    -0.303 A  
HETATM    5  C   UNL     1      -9.673   7.015  66.686  1.00  0.00    -0.166 A  
HETATM    6  O   UNL     1      -9.012   7.202  65.504  1.00  0.00    -0.366 OA 
HETATM    7  C   UNL     1      -9.628   8.064  67.600  1.00  0.00    -0.185 A  
HETATM    8  C   UNL     1     -10.289   7.949  68.821  1.00  0.00    -0.220 A  
HETATM    9  H   UNL     1      -8.543   8.005  65.313  1.00  0.00     0.000 HD 
HETATM   10  C   UNL     1     -10.994   6.781  69.140  1.00  0.00    -0.290 A  
HETATM   11  C   UNL     1     -11.011   5.726  68.210  1.00  0.00    -0.152 A  
BRANCH  10  12
HETATM   12  C   UNL     1     -11.647   6.648  70.500  1.00  0.00    -0.390 C  
HETATM   13  O   UNL     1     -10.945   5.684  71.295  1.00  0.00    -0.246 OA 
HETATM   14  H   UNL     1     -11.354   5.601  72.148  1.00  0.00     0.000 HD 
BRANCH  12  15
HETATM   15  C   UNL     1     -11.656   8.010  71.226  1.00  0.00    -0.276 C  
BRANCH  15  16
HETATM   16  N   UNL     1     -12.707   8.061  72.256  1.00  0.00    -0.512 NA 
HETATM   17  H   UNL     1     -12.348   7.818  73.180  1.00  0.00     0.000 HD 
BRANCH  16  18
HETATM   18  C   UNL     1     -13.353   9.370  72.250  1.00  0.00    -0.461 C  
BRANCH  18  19
HETATM   19  C   UNL     1     -13.057  10.096  70.941  1.00  0.00    -0.412 C  
BRANCH  19  20
HETATM   20  C   UNL     1     -12.597  11.526  71.225  1.00  0.00    -0.452 C  
BRANCH  20  21
HETATM   21  C   UNL     1     -13.573  12.243  72.150  1.00  0.00    -0.348 C  
BRANCH  21  22
HETATM   22  C   UNL     1     -13.260  13.734  72.232  1.00  0.00    -0.563 C  
BRANCH  22  23
HETATM   23  C   UNL     1     -12.847  14.270  70.871  1.00  0.00    -0.347 C  
BRANCH  23  24
HETATM   24  O   UNL     1     -11.869  15.288  71.057  1.00  0.00    -0.288 OA 
BRANCH  24  25
HETATM   25  C   UNL     1     -10.897  15.250  70.014  1.00  0.00    -0.286 C  
BRANCH  25  26
HETATM   26  C   UNL     1     -11.563  15.551  68.682  1.00  0.00    -0.368 C  
BRANCH  26  27
HETATM   27  O   UNL     1     -11.135  14.583  67.724  1.00  0.00    -0.267 OA 
BRANCH  27  28
HETATM   28  C   UNL     1     -12.242  13.952  67.095  1.00  0.00    -0.318 C  
BRANCH  28  29
HETATM   29  C   UNL     1     -11.730  13.074  65.986  1.00  0.00    -0.442 A  
HETATM   30  C   UNL     1     -11.729  13.510  64.650  1.00  0.00    -0.381 A  
HETATM   31 CL   UNL     1     -12.371  15.048  64.180  1.00  0.00    -0.362 Cl 
HETATM   32  C   UNL     1     -11.204  12.708  63.627  1.00  0.00    -0.525 A  
HETATM   33  C   UNL     1     -10.693  11.448  63.917  1.00  0.00    -0.462 A  
HETATM   34  C   UNL     1     -10.734  10.975  65.225  1.00  0.00    -0.234 A  
HETATM   35  C   UNL     1     -11.259  11.774  66.248  1.00  0.00    -0.312 A  
HETATM   36 CL   UNL     1     -11.295  11.083  67.835  1.00  0.00    -0.375 Cl 
ENDBRANCH  28  29
ENDBRANCH  27  28
ENDBRANCH  26  27
ENDBRANCH  25  26
ENDBRANCH  24  25
ENDBRANCH  23  24
ENDBRANCH  22  23
ENDBRANCH  21  22
ENDBRANCH  20  21
ENDBRANCH  19  20
ENDBRANCH  18  19
ENDBRANCH  16  18
ENDBRANCH  15  16
ENDBRANCH  12  15
ENDBRANCH  10  12
ENDBRANCH   2   4
TORSDOF 16
ENDMDL
MODEL       32
REMARK 921   NORMALIZED FREE ENERGY PREDICTED BY IDOCK:   -5.86 KCAL/MOL
REMARK 922        TOTAL FREE ENERGY PREDICTED BY IDOCK:  -13.41 KCAL/MOL
REMARK 923 INTER-LIGAND FREE ENERGY PREDICTED BY IDOCK:  -11.89 KCAL/MOL
REMARK 924 INTRA-LIGAND FREE ENERGY PREDICTED BY IDOCK:   -1.52 KCAL/MOL
REMARK 927      BINDING AFFINITY PREDICTED BY RF-SCORE:    0.00 PKD
ROOT
HETATM    1  O   UNL     1     -13.948   8.651  73.318  1.00  0.00    -1.011 OA 
HETATM    2  C   UNL     1     -13.846   9.060  71.954  1.00  0.00    -0.423 C  
HETATM    3  H   UNL     1     -14.744   8.983  73.716  1.00  0.00     0.000 HD 
ENDROOT
BRANCH   2   4
HETATM    4  C   UNL     1     -12.584   8.532  71.324  1.00  0.00    -0.248 A  
HETATM    5  C   UNL     1     -12.085   7.246  71.561  1.00  0.00    -0.331 A  
HETATM    6  O   UNL     1     -12.758   6.342  72.334  1.00  0.00    -0.547 OA 
HETATM    7  C   UNL     1     -10.876   6.824  71.015  1.00  0.00    -0.280 A  
HETATM    8  C   UNL     1     -10.140   7.686  70.206  1.00  0.00    -0.198 A  
HETATM    9  H   UNL     1     -12.420   5.470  72.495  1.00  0.00     0.000 HD 
HETATM   10  C   UNL     1     -10.605   8.982  69.942  1.00  0.00    -0.240 A  
HETATM   11  C   UNL     1     -11.820   9.395  70.518  1.00  0.00    -0.207 A  
BRANCH  10  12
HETATM   12  C   UNL     1      -9.758   9.928  69.118  1.00  0.00    -0.198 C  
HETATM   13  O   UNL     1      -8.723  10.502  69.929  1.00  0.00    -0.373 OA 
HETATM   14  H   UNL     1      -8.192  11.095  69.412  1.00  0.00     0.000 HD 
BRANCH  12  15
HETATM   15  C   UNL     1      -9.125   9.181  67.925  1.00  0.00    -0.127 C  
BRANCH  15  16
HETATM   16  N   UNL     1      -8.893  10.086  66.787  1.00  0.00    -0.132 NA 
HETATM   17  H   UNL     1      -7.901  10.277  66.647  1.00  0.00     0.000 HD 
BRANCH  16  18
HETATM   18  C   UNL     1      -9.521   9.552  65.584  1.00  0.00    -0.261 C  
BRANCH  18  19
HETATM   19  C   UNL     1      -8.705   9.933  64.351  1.00  0.00    -0.223 C  
BRANCH  19  20
HETATM   20  C   UNL     1      -9.608  10.575  63.299  1.00  0.00    -0.373 C  
BRANCH  20  21
HETATM   21  C   UNL     1     -10.876  11.135  63.932  1.00  0.00    -0.346 C  
BRANCH  21  22
HETATM   22  C   UNL     1     -10.859  12.661  63.943  1.00  0.00    -0.468 C  
BRANCH  22  23
HETATM   23  C   UNL     1     -12.275  13.213  63.924  1.00  0.00    -0.433 C  
BRANCH  23  24
HETATM   24  O   UNL     1     -12.866  13.004  65.203  1.00  0.00    -0.656 OA 
BRANCH  24  25
HETATM   25  C   UNL     1     -12.229  13.812  66.190  1.00  0.00    -0.459 C  
BRANCH  25  26
HETATM   26  C   UNL     1     -12.026  13.003  67.460  1.00  0.00    -0.306 C  
BRANCH  26  27
HETATM   27  O   UNL     1     -12.354  13.820  68.584  1.00  0.00    -0.271 OA 
BRANCH  27  28
HETATM   28  C   UNL     1     -11.746  13.335  69.773  1.00  0.00    -0.284 C  
BRANCH  28  29
HETATM   29  C   UNL     1     -12.069  14.279  70.899  1.00  0.00    -0.417 A  
HETATM   30  C   UNL     1     -11.508  15.567  70.956  1.00  0.00    -0.383 A  
HETATM   31 CL   UNL     1     -10.366  16.130  69.784  1.00  0.00    -0.265 Cl 
HETATM   32  C   UNL     1     -11.852  16.460  71.980  1.00  0.00    -0.464 A  
HETATM   33  C   UNL     1     -12.741  16.076  72.977  1.00  0.00    -0.593 A  
HETATM   34  C   UNL     1     -13.266  14.788  72.969  1.00  0.00    -0.592 A  
HETATM   35  C   UNL     1     -12.924  13.893  71.947  1.00  0.00    -0.354 A  
HETATM   36 CL   UNL     1     -13.604  12.304  72.044  1.00  0.00    -0.425 Cl 
ENDBRANCH  28  29
ENDBRANCH  27  28
ENDBRANCH  26  27
ENDBRANCH  25  26
ENDBRANCH  24  25
ENDBRANCH  23  24
ENDBRANCH  22  23
ENDBRANCH  21  22
ENDBRANCH  20  21
ENDBRANCH  19  20
ENDBRANCH  18  19
ENDBRANCH  16  18
ENDBRANCH  15  16
ENDBRANCH  12  15
ENDBRANCH  10  12
ENDBRANCH   2   4
TORSDOF 16
ENDMDL
MODEL       33
REMARK 921   NORMALIZED FREE ENERGY PREDICTED BY IDOCK:   -5.85 KCAL/MOL
REMARK 922        TOTAL FREE ENERGY PREDICTED BY IDOCK:  -13.40 KCAL/MOL
REMARK 923 INTER-LIGAND FREE ENERGY PREDICTED BY IDOCK:  -10.76 KCAL/MOL
REMARK 924 INTRA-LIGAND FREE ENERGY PREDICTED BY IDOCK:   -2.64 KCAL/MOL
REMARK 927      BINDING AFFINITY PREDICTED BY RF-SCORE:    0.00 PKD
ROOT
HETATM    1  O   UNL     1     -12.245  15.996  63.737  1.00  0.00    -1.269 OA 
HETATM    2  C   UNL     1     -11.090  15.936  64.575  1.00  0.00    -0.269 C  
HETATM    3  H   UNL     1     -12.088  16.547  62.979  1.00  0.00     0.000 HD 
ENDROOT
BRANCH   2   4
HETATM    4  C   UNL     1     -11.338  15.061  65.776  1.00  0.00    -0.279 A  
HETATM    5  C   UNL     1     -12.128  13.907  65.737  1.00  0.00    -0.425 A  
HETATM    6  O   UNL     1     -12.678  13.447  64.573  1.00  0.00    -0.633 OA 
HETATM    7  C   UNL     1     -12.391  13.168  66.887  1.00  0.00    -0.149 A  
HETATM    8  C   UNL     1     -11.855  13.569  68.108  1.00  0.00    -0.400 A  
HETATM    9  H   UNL     1     -13.214  12.664  64.546  1.00  0.00     0.000 HD 
HETATM   10  C   UNL     1     -11.057  14.718  68.191  1.00  0.00    -0.288 A  
HETATM   11  C   UNL     1     -10.819  15.461  67.020  1.00  0.00    -0.320 A  
BRANCH  10  12
HETATM   12  C   UNL     1     -10.540  15.176  69.538  1.00  0.00    -0.270 C  
HETATM   13  O   UNL     1      -9.110  15.072  69.582  1.00  0.00    -0.432 OA 
HETATM   14  H   UNL     1      -8.786  15.360  70.427  1.00  0.00     0.000 HD 
BRANCH  12  15
HETATM   15  C   UNL     1     -10.961  16.637  69.806  1.00  0.00    -0.205 C  
BRANCH  15  16
HETATM   16  N   UNL     1     -11.544  16.789  71.150  1.00  0.00    -0.388 NA 
HETATM   17  H   UNL     1     -12.325  17.445  71.156  1.00  0.00     0.000 HD 
BRANCH  16  18
HETATM   18  C   UNL     1     -11.923  15.485  71.683  1.00  0.00    -0.408 C  
BRANCH  18  19
HETATM   19  C   UNL     1     -13.440  15.397  71.829  1.00  0.00    -0.581 C  
BRANCH  19  20
HETATM   20  C   UNL     1     -13.858  13.958  72.129  1.00  0.00    -0.636 C  
BRANCH  20  21
HETATM   21  C   UNL     1     -12.964  12.963  71.398  1.00  0.00    -0.362 C  
BRANCH  21  22
HETATM   22  C   UNL     1     -13.241  11.534  71.856  1.00  0.00    -0.479 C  
BRANCH  22  23
HETATM   23  C   UNL     1     -12.783  10.536  70.804  1.00  0.00    -0.381 C  
BRANCH  23  24
HETATM   24  O   UNL     1     -11.363  10.576  70.722  1.00  0.00    -0.327 OA 
BRANCH  24  25
HETATM   25  C   UNL     1     -10.828   9.261  70.590  1.00  0.00    -0.278 C  
BRANCH  25  26
HETATM   26  C   UNL     1      -9.324   9.337  70.391  1.00  0.00    -0.250 C  
BRANCH  26  27
HETATM   27  O   UNL     1      -8.936   8.360  69.425  1.00  0.00    -0.150 OA 
BRANCH  27  28
HETATM   28  C   UNL     1      -7.847   8.816  68.635  1.00  0.00    -0.103 C  
BRANCH  28  29
HETATM   29  C   UNL     1      -8.382   9.688  67.533  1.00  0.00    -0.118 A  
HETATM   30  C   UNL     1      -9.011   9.135  66.403  1.00  0.00    -0.149 A  
HETATM   31 CL   UNL     1      -9.155   7.426  66.170  1.00  0.00    -0.190 Cl 
HETATM   32  C   UNL     1      -9.554   9.955  65.404  1.00  0.00    -0.350 A  
HETATM   33  C   UNL     1      -9.456  11.339  65.502  1.00  0.00    -0.255 A  
HETATM   34  C   UNL     1      -8.790  11.904  66.584  1.00  0.00    -0.191 A  
HETATM   35  C   UNL     1      -8.247  11.088  67.585  1.00  0.00    -0.117 A  
HETATM   36 CL   UNL     1      -7.410  11.886  68.872  1.00  0.00    -0.105 Cl 
ENDBRANCH  28  29
ENDBRANCH  27  28
ENDBRANCH  26  27
ENDBRANCH  25  26
ENDBRANCH  24  25
ENDBRANCH  23  24
ENDBRANCH  22  23
ENDBRANCH  21  22
ENDBRANCH  20  21
ENDBRANCH  19  20
ENDBRANCH  18  19
ENDBRANCH  16  18
ENDBRANCH  15  16
ENDBRANCH  12  15
ENDBRANCH  10  12
ENDBRANCH   2   4
TORSDOF 16
ENDMDL
MODEL       34
REMARK 921   NORMALIZED FREE ENERGY PREDICTED BY IDOCK:   -5.85 KCAL/MOL
REMARK 922        TOTAL FREE ENERGY PREDICTED BY IDOCK:  -13.40 KCAL/MOL
REMARK 923 INTER-LIGAND FREE ENERGY PREDICTED BY IDOCK:  -11.28 KCAL/MOL
REMARK 924 INTRA-LIGAND FREE ENERGY PREDICTED BY IDOCK:   -2.11 KCAL/MOL
REMARK 927      BINDING AFFINITY PREDICTED BY RF-SCORE:    0.00 PKD
ROOT
HETATM    1  O   UNL     1     -13.014  15.817  72.525  1.00  0.00    -0.419 OA 
HETATM    2  C   UNL     1     -13.960  14.812  72.159  1.00  0.00    -0.490 C  
HETATM    3  H   UNL     1     -13.442  16.548  72.956  1.00  0.00     0.000 HD 
ENDROOT
BRANCH   2   4
HETATM    4  C   UNL     1     -13.281  13.654  71.476  1.00  0.00    -0.409 A  
HETATM    5  C   UNL     1     -12.531  13.785  70.302  1.00  0.00    -0.289 A  
HETATM    6  O   UNL     1     -12.300  15.003  69.726  1.00  0.00    -0.451 OA 
HETATM    7  C   UNL     1     -11.981  12.677  69.664  1.00  0.00    -0.352 A  
HETATM    8  C   UNL     1     -12.165  11.405  70.199  1.00  0.00    -0.401 A  
HETATM    9  H   UNL     1     -11.791  15.093  68.930  1.00  0.00     0.000 HD 
HETATM   10  C   UNL     1     -12.908  11.229  71.375  1.00  0.00    -0.515 A  
HETATM   11  C   UNL     1     -13.471  12.360  71.994  1.00  0.00    -0.460 A  
BRANCH  10  12
HETATM   12  C   UNL     1     -13.155   9.832  71.903  1.00  0.00    -0.446 C  
HETATM   13  O   UNL     1     -14.090   9.143  71.062  1.00  0.00    -0.533 OA 
HETATM   14  H   UNL     1     -14.245   8.266  71.393  1.00  0.00     0.000 HD 
BRANCH  12  15
HETATM   15  C   UNL     1     -11.832   9.040  71.964  1.00  0.00    -0.356 C  
BRANCH  15  16
HETATM   16  N   UNL     1     -11.974   7.824  72.783  1.00  0.00    -0.608 NA 
HETATM   17  H   UNL     1     -12.890   7.766  73.227  1.00  0.00     0.000 HD 
BRANCH  16  18
HETATM   18  C   UNL     1     -11.681   6.641  71.981  1.00  0.00    -0.313 C  
BRANCH  18  19
HETATM   19  C   UNL     1     -10.971   7.043  70.691  1.00  0.00    -0.292 C  
BRANCH  19  20
HETATM   20  C   UNL     1     -11.501   6.218  69.519  1.00  0.00    -0.387 C  
BRANCH  20  21
HETATM   21  C   UNL     1     -10.905   6.692  68.199  1.00  0.00    -0.334 C  
BRANCH  21  22
HETATM   22  C   UNL     1     -10.123   7.989  68.381  1.00  0.00    -0.221 C  
BRANCH  22  23
HETATM   23  C   UNL     1      -8.804   7.930  67.628  1.00  0.00    -0.128 C  
BRANCH  23  24
HETATM   24  O   UNL     1      -8.656   9.124  66.867  1.00  0.00    -0.121 OA 
BRANCH  24  25
HETATM   25  C   UNL     1      -9.415   9.051  65.663  1.00  0.00    -0.203 C  
BRANCH  25  26
HETATM   26  C   UNL     1      -9.246  10.338  64.872  1.00  0.00    -0.227 C  
BRANCH  26  27
HETATM   27  O   UNL     1     -10.528  10.940  64.692  1.00  0.00    -0.337 OA 
BRANCH  27  28
HETATM   28  C   UNL     1     -10.975  11.574  65.882  1.00  0.00    -0.243 C  
BRANCH  28  29
HETATM   29  C   UNL     1     -10.496  13.000  65.877  1.00  0.00    -0.293 A  
HETATM   30  C   UNL     1     -10.978  13.930  64.940  1.00  0.00    -0.386 A  
HETATM   31 CL   UNL     1     -12.096  13.490  63.693  1.00  0.00    -0.513 Cl 
HETATM   32  C   UNL     1     -10.567  15.270  64.972  1.00  0.00    -0.444 A  
HETATM   33  C   UNL     1      -9.650  15.699  65.925  1.00  0.00    -0.385 A  
HETATM   34  C   UNL     1      -9.120  14.784  66.828  1.00  0.00    -0.291 A  
HETATM   35  C   UNL     1      -9.529  13.444  66.798  1.00  0.00    -0.261 A  
HETATM   36 CL   UNL     1      -8.787  12.377  67.941  1.00  0.00    -0.172 Cl 
ENDBRANCH  28  29
ENDBRANCH  27  28
ENDBRANCH  26  27
ENDBRANCH  25  26
ENDBRANCH  24  25
ENDBRANCH  23  24
ENDBRANCH  22  23
ENDBRANCH  21  22
ENDBRANCH  20  21
ENDBRANCH  19  20
ENDBRANCH  18  19
ENDBRANCH  16  18
ENDBRANCH  15  16
ENDBRANCH  12  15
ENDBRANCH  10  12
ENDBRANCH   2   4
TORSDOF 16
ENDMDL
MODEL       35
REMARK 921   NORMALIZED FREE ENERGY PREDICTED BY IDOCK:   -5.85 KCAL/MOL
REMARK 922        TOTAL FREE ENERGY PREDICTED BY IDOCK:  -13.39 KCAL/MOL
REMARK 923 INTER-LIGAND FREE ENERGY PREDICTED BY IDOCK:  -10.60 KCAL/MOL
REMARK 924 INTRA-LIGAND FREE ENERGY PREDICTED BY IDOCK:   -2.79 KCAL/MOL
REMARK 927      BINDING AFFINITY PREDICTED BY RF-SCORE:    0.00 PKD
ROOT
HETATM    1  O   UNL     1     -11.034  14.218  70.242  1.00  0.00    -0.470 OA 
HETATM    2  C   UNL     1     -11.776  14.967  69.278  1.00  0.00    -0.323 C  
HETATM    3  H   UNL     1     -11.368  14.364  71.119  1.00  0.00     0.000 HD 
ENDROOT
BRANCH   2   4
HETATM    4  C   UNL     1     -11.245  14.736  67.888  1.00  0.00    -0.318 A  
HETATM    5  C   UNL     1      -9.960  15.115  67.482  1.00  0.00    -0.225 A  
HETATM    6  O   UNL     1      -9.061  15.663  68.352  1.00  0.00    -0.183 OA 
HETATM    7  C   UNL     1      -9.535  14.947  66.167  1.00  0.00    -0.328 A  
HETATM    8  C   UNL     1     -10.393  14.383  65.226  1.00  0.00    -0.427 A  
HETATM    9  H   UNL     1      -8.189  15.921  68.077  1.00  0.00     0.000 HD 
HETATM   10  C   UNL     1     -11.688  13.989  65.592  1.00  0.00    -0.356 A  
HETATM   11  C   UNL     1     -12.104  14.183  66.921  1.00  0.00    -0.466 A  
BRANCH  10  12
HETATM   12  C   UNL     1     -12.629  13.441  64.539  1.00  0.00    -0.226 C  
HETATM   13  O   UNL     1     -12.492  14.182  63.319  1.00  0.00    -1.146 OA 
HETATM   14  H   UNL     1     -13.083  13.839  62.659  1.00  0.00     0.000 HD 
BRANCH  12  15
HETATM   15  C   UNL     1     -12.331  11.950  64.276  1.00  0.00    -0.211 C  
BRANCH  15  16
HETATM   16  N   UNL     1     -11.593  11.766  63.015  1.00  0.00    -0.786 NA 
HETATM   17  H   UNL     1     -11.611  12.606  62.436  1.00  0.00     0.000 HD 
BRANCH  16  18
HETATM   18  C   UNL     1     -10.231  11.322  63.290  1.00  0.00    -0.368 C  
BRANCH  18  19
HETATM   19  C   UNL     1     -10.174  10.604  64.636  1.00  0.00    -0.404 C  
BRANCH  19  20
HETATM   20  C   UNL     1      -8.864  10.930  65.352  1.00  0.00    -0.192 C  
BRANCH  20  21
HETATM   21  C   UNL     1      -8.258   9.682  65.984  1.00  0.00    -0.119 C  
BRANCH  21  22
HETATM   22  C   UNL     1      -9.330   8.636  66.277  1.00  0.00    -0.282 C  
BRANCH  22  23
HETATM   23  C   UNL     1      -8.754   7.234  66.165  1.00  0.00    -0.155 C  
BRANCH  23  24
HETATM   24  O   UNL     1      -8.770   6.628  67.453  1.00  0.00    -0.118 OA 
BRANCH  24  25
HETATM   25  C   UNL     1      -7.540   6.863  68.136  1.00  0.00    -0.108 C  
BRANCH  25  26
HETATM   26  C   UNL     1      -7.820   7.241  69.581  1.00  0.00    -0.118 C  
BRANCH  26  27
HETATM   27  O   UNL     1      -9.123   7.820  69.661  1.00  0.00    -0.146 OA 
BRANCH  27  28
HETATM   28  C   UNL     1      -9.106   9.033  70.400  1.00  0.00    -0.210 C  
BRANCH  28  29
HETATM   29  C   UNL     1     -10.524   9.429  70.710  1.00  0.00    -0.372 A  
HETATM   30  C   UNL     1     -11.237   8.827  71.761  1.00  0.00    -0.340 A  
HETATM   31 CL   UNL     1     -10.567   7.553  72.722  1.00  0.00    -0.329 Cl 
HETATM   32  C   UNL     1     -12.540   9.236  72.078  1.00  0.00    -0.465 A  
HETATM   33  C   UNL     1     -13.161  10.235  71.337  1.00  0.00    -0.512 A  
HETATM   34  C   UNL     1     -12.493  10.806  70.259  1.00  0.00    -0.395 A  
HETATM   35  C   UNL     1     -11.190  10.399  69.940  1.00  0.00    -0.306 A  
HETATM   36 CL   UNL     1     -10.457  11.146  68.562  1.00  0.00    -0.196 Cl 
ENDBRANCH  28  29
ENDBRANCH  27  28
ENDBRANCH  26  27
ENDBRANCH  25  26
ENDBRANCH  24  25
ENDBRANCH  23  24
ENDBRANCH  22  23
ENDBRANCH  21  22
ENDBRANCH  20  21
ENDBRANCH  19  20
ENDBRANCH  18  19
ENDBRANCH  16  18
ENDBRANCH  15  16
ENDBRANCH  12  15
ENDBRANCH  10  12
ENDBRANCH   2   4
TORSDOF 16
ENDMDL
MODEL       36
REMARK 921   NORMALIZED FREE ENERGY PREDICTED BY IDOCK:   -5.85 KCAL/MOL
REMARK 922        TOTAL FREE ENERGY PREDICTED BY IDOCK:  -13.39 KCAL/MOL
REMARK 923 INTER-LIGAND FREE ENERGY PREDICTED BY IDOCK:  -10.38 KCAL/MOL
REMARK 924 INTRA-LIGAND FREE ENERGY PREDICTED BY IDOCK:   -3.01 KCAL/MOL
REMARK 927      BINDING AFFINITY PREDICTED BY RF-SCORE:    0.00 PKD
ROOT
HETATM    1  O   UNL     1     -10.510  15.174  70.498  1.00  0.00    -0.504 OA 
HETATM    2  C   UNL     1     -11.604  15.399  69.607  1.00  0.00    -0.331 C  
HETATM    3  H   UNL     1     -10.432  15.880  71.128  1.00  0.00     0.000 HD 
ENDROOT
BRANCH   2   4
HETATM    4  C   UNL     1     -11.726  14.279  68.608  1.00  0.00    -0.380 A  
HETATM    5  C   UNL     1     -11.721  12.926  68.964  1.00  0.00    -0.327 A  
HETATM    6  O   UNL     1     -11.677  12.524  70.270  1.00  0.00    -0.523 OA 
HETATM    7  C   UNL     1     -11.765  11.921  68.002  1.00  0.00    -0.382 A  
HETATM    8  C   UNL     1     -11.823  12.255  66.651  1.00  0.00    -0.362 A  
HETATM    9  H   UNL     1     -11.674  11.606  70.513  1.00  0.00     0.000 HD 
HETATM   10  C   UNL     1     -11.832  13.598  66.251  1.00  0.00    -0.426 A  
HETATM   11  C   UNL     1     -11.769  14.598  67.239  1.00  0.00    -0.406 A  
BRANCH  10  12
HETATM   12  C   UNL     1     -11.826  13.941  64.776  1.00  0.00    -0.397 C  
HETATM   13  O   UNL     1     -10.555  14.488  64.400  1.00  0.00    -0.583 OA 
HETATM   14  H   UNL     1     -10.551  14.702  63.475  1.00  0.00     0.000 HD 
BRANCH  12  15
HETATM   15  C   UNL     1     -12.119  12.682  63.932  1.00  0.00    -0.487 C  
BRANCH  15  16
HETATM   16  N   UNL     1     -10.970  12.329  63.082  1.00  0.00    -0.654 NA 
HETATM   17  H   UNL     1     -10.213  13.009  63.160  1.00  0.00     0.000 HD 
BRANCH  16  18
HETATM   18  C   UNL     1     -10.518  10.975  63.385  1.00  0.00    -0.254 C  
BRANCH  18  19
HETATM   19  C   UNL     1      -9.538  10.997  64.554  1.00  0.00    -0.299 C  
BRANCH  19  20
HETATM   20  C   UNL     1      -9.397   9.596  65.150  1.00  0.00    -0.322 C  
BRANCH  20  21
HETATM   21  C   UNL     1      -8.597   9.628  66.447  1.00  0.00    -0.136 C  
BRANCH  21  22
HETATM   22  C   UNL     1      -8.156  11.048  66.788  1.00  0.00    -0.151 C  
BRANCH  22  23
HETATM   23  C   UNL     1      -8.139  11.255  68.294  1.00  0.00    -0.137 C  
BRANCH  23  24
HETATM   24  O   UNL     1      -8.212  12.651  68.565  1.00  0.00    -0.145 OA 
BRANCH  24  25
HETATM   25  C   UNL     1      -8.202  13.401  67.353  1.00  0.00    -0.183 C  
BRANCH  25  26
HETATM   26  C   UNL     1      -7.123  14.469  67.420  1.00  0.00    -0.110 C  
BRANCH  26  27
HETATM   27  O   UNL     1      -7.634  15.677  66.856  1.00  0.00    -0.216 OA 
BRANCH  27  28
HETATM   28  C   UNL     1      -8.585  16.288  67.715  1.00  0.00    -0.171 C  
BRANCH  28  29
HETATM   29  C   UNL     1      -8.521  17.779  67.522  1.00  0.00    -0.227 A  
HETATM   30  C   UNL     1      -9.409  18.443  66.658  1.00  0.00    -0.305 A  
HETATM   31 CL   UNL     1     -10.584  17.595  65.712  1.00  0.00    -0.280 Cl 
HETATM   32  C   UNL     1      -9.378  19.838  66.522  1.00  0.00    -0.486 A  
HETATM   33  C   UNL     1      -8.445  20.591  67.227  1.00  0.00    -0.365 A  
HETATM   34  C   UNL     1      -7.523  19.949  68.046  1.00  0.00    -0.332 A  
HETATM   35  C   UNL     1      -7.551  18.555  68.184  1.00  0.00    -0.274 A  
HETATM   36 CL   UNL     1      -6.342  17.848  69.201  1.00  0.00    -0.227 Cl 
ENDBRANCH  28  29
ENDBRANCH  27  28
ENDBRANCH  26  27
ENDBRANCH  25  26
ENDBRANCH  24  25
ENDBRANCH  23  24
ENDBRANCH  22  23
ENDBRANCH  21  22
ENDBRANCH  20  21
ENDBRANCH  19  20
ENDBRANCH  18  19
ENDBRANCH  16  18
ENDBRANCH  15  16
ENDBRANCH  12  15
ENDBRANCH  10  12
ENDBRANCH   2   4
TORSDOF 16
ENDMDL
MODEL       37
REMARK 921   NORMALIZED FREE ENERGY PREDICTED BY IDOCK:   -5.83 KCAL/MOL
REMARK 922        TOTAL FREE ENERGY PREDICTED BY IDOCK:  -13.36 KCAL/MOL
REMARK 923 INTER-LIGAND FREE ENERGY PREDICTED BY IDOCK:  -10.73 KCAL/MOL
REMARK 924 INTRA-LIGAND FREE ENERGY PREDICTED BY IDOCK:   -2.63 KCAL/MOL
REMARK 927      BINDING AFFINITY PREDICTED BY RF-SCORE:    0.00 PKD
ROOT
HETATM    1  O   UNL     1     -12.343  10.817  68.396  1.00  0.00    -0.813 OA 
HETATM    2  C   UNL     1     -11.739  10.820  69.690  1.00  0.00    -0.323 C  
HETATM    3  H   UNL     1     -12.008  10.104  67.864  1.00  0.00     0.000 HD 
ENDROOT
BRANCH   2   4
HETATM    4  C   UNL     1     -12.271  11.950  70.532  1.00  0.00    -0.426 A  
HETATM    5  C   UNL     1     -13.031  11.754  71.691  1.00  0.00    -0.362 A  
HETATM    6  O   UNL     1     -13.284  10.504  72.185  1.00  0.00    -0.543 OA 
HETATM    7  C   UNL     1     -13.564  12.826  72.400  1.00  0.00    -0.507 A  
HETATM    8  C   UNL     1     -13.337  14.129  71.963  1.00  0.00    -0.502 A  
HETATM    9  H   UNL     1     -13.799  10.371  72.972  1.00  0.00     0.000 HD 
HETATM   10  C   UNL     1     -12.580  14.369  70.808  1.00  0.00    -0.426 A  
HETATM   11  C   UNL     1     -12.066  13.271  70.096  1.00  0.00    -0.403 A  
BRANCH  10  12
HETATM   12  C   UNL     1     -12.403  15.788  70.310  1.00  0.00    -0.310 C  
HETATM   13  O   UNL     1     -11.575  16.531  71.216  1.00  0.00    -0.615 OA 
HETATM   14  H   UNL     1     -11.464  17.421  70.904  1.00  0.00     0.000 HD 
BRANCH  12  15
HETATM   15  C   UNL     1     -11.764  15.788  68.906  1.00  0.00    -0.394 C  
BRANCH  15  16
HETATM   16  N   UNL     1     -10.540  16.607  68.875  1.00  0.00    -0.315 NA 
HETATM   17  H   UNL     1      -9.825  16.250  69.509  1.00  0.00     0.000 HD 
BRANCH  16  18
HETATM   18  C   UNL     1     -10.046  16.720  67.507  1.00  0.00    -0.276 C  
BRANCH  18  19
HETATM   19  C   UNL     1      -9.264  15.465  67.125  1.00  0.00    -0.226 C  
BRANCH  19  20
HETATM   20  C   UNL     1      -9.587  15.062  65.686  1.00  0.00    -0.279 C  
BRANCH  20  21
HETATM   21  C   UNL     1     -10.937  15.619  65.249  1.00  0.00    -0.375 C  
BRANCH  21  22
HETATM   22  C   UNL     1     -11.837  14.516  64.700  1.00  0.00    -0.462 C  
BRANCH  22  23
HETATM   23  C   UNL     1     -12.478  13.733  65.834  1.00  0.00    -0.468 C  
BRANCH  23  24
HETATM   24  O   UNL     1     -12.074  12.372  65.738  1.00  0.00    -0.561 OA 
BRANCH  24  25
HETATM   25  C   UNL     1     -11.376  12.138  64.517  1.00  0.00    -0.334 C  
BRANCH  25  26
HETATM   26  C   UNL     1     -10.731  10.763  64.550  1.00  0.00    -0.077 C  
BRANCH  26  27
HETATM   27  O   UNL     1     -10.495  10.397  65.910  1.00  0.00    -0.212 OA 
BRANCH  27  28
HETATM   28  C   UNL     1      -9.249   9.733  66.058  1.00  0.00    -0.179 C  
BRANCH  28  29
HETATM   29  C   UNL     1      -9.039   9.421  67.515  1.00  0.00    -0.136 A  
HETATM   30  C   UNL     1      -9.489   8.213  68.077  1.00  0.00    -0.143 A  
HETATM   31 CL   UNL     1     -10.367   7.039  67.158  1.00  0.00    -0.318 Cl 
HETATM   32  C   UNL     1      -9.245   7.906  69.422  1.00  0.00    -0.145 A  
HETATM   33  C   UNL     1      -8.570   8.809  70.236  1.00  0.00    -0.158 A  
HETATM   34  C   UNL     1      -8.164  10.033  69.715  1.00  0.00    -0.191 A  
HETATM   35  C   UNL     1      -8.406  10.342  68.370  1.00  0.00    -0.119 A  
HETATM   36 CL   UNL     1      -7.890  11.902  67.825  1.00  0.00    -0.129 Cl 
ENDBRANCH  28  29
ENDBRANCH  27  28
ENDBRANCH  26  27
ENDBRANCH  25  26
ENDBRANCH  24  25
ENDBRANCH  23  24
ENDBRANCH  22  23
ENDBRANCH  21  22
ENDBRANCH  20  21
ENDBRANCH  19  20
ENDBRANCH  18  19
ENDBRANCH  16  18
ENDBRANCH  15  16
ENDBRANCH  12  15
ENDBRANCH  10  12
ENDBRANCH   2   4
TORSDOF 16
ENDMDL
MODEL       38
REMARK 921   NORMALIZED FREE ENERGY PREDICTED BY IDOCK:   -5.83 KCAL/MOL
REMARK 922        TOTAL FREE ENERGY PREDICTED BY IDOCK:  -13.35 KCAL/MOL
REMARK 923 INTER-LIGAND FREE ENERGY PREDICTED BY IDOCK:  -11.50 KCAL/MOL
REMARK 924 INTRA-LIGAND FREE ENERGY PREDICTED BY IDOCK:   -1.85 KCAL/MOL
REMARK 927      BINDING AFFINITY PREDICTED BY RF-SCORE:    0.00 PKD
ROOT
HETATM    1  O   UNL     1     -13.306  12.243  64.319  1.00  0.00    -0.777 OA 
HETATM    2  C   UNL     1     -12.224  12.685  65.141  1.00  0.00    -0.481 C  
HETATM    3  H   UNL     1     -13.944  12.935  64.193  1.00  0.00     0.000 HD 
ENDROOT
BRANCH   2   4
HETATM    4  C   UNL     1     -11.213  11.587  65.341  1.00  0.00    -0.207 A  
HETATM    5  C   UNL     1     -10.517  10.981  64.288  1.00  0.00    -0.359 A  
HETATM    6  O   UNL     1     -10.656  11.401  62.995  1.00  0.00    -0.623 OA 
HETATM    7  C   UNL     1      -9.644   9.920  64.510  1.00  0.00    -0.290 A  
HETATM    8  C   UNL     1      -9.442   9.446  65.805  1.00  0.00    -0.325 A  
HETATM    9  H   UNL     1     -10.184  10.990  62.281  1.00  0.00     0.000 HD 
HETATM   10  C   UNL     1     -10.118  10.026  66.887  1.00  0.00    -0.287 A  
HETATM   11  C   UNL     1     -11.009  11.085  66.638  1.00  0.00    -0.253 A  
BRANCH  10  12
HETATM   12  C   UNL     1      -9.938   9.452  68.277  1.00  0.00    -0.174 C  
HETATM   13  O   UNL     1      -8.683   8.764  68.369  1.00  0.00    -0.133 OA 
HETATM   14  H   UNL     1      -8.570   8.404  69.241  1.00  0.00     0.000 HD 
BRANCH  12  15
HETATM   15  C   UNL     1      -9.991  10.577  69.332  1.00  0.00    -0.196 C  
BRANCH  15  16
HETATM   16  N   UNL     1     -10.451  10.067  70.635  1.00  0.00    -0.385 NA 
HETATM   17  H   UNL     1      -9.986  10.534  71.414  1.00  0.00     0.000 HD 
BRANCH  16  18
HETATM   18  C   UNL     1     -11.904  10.166  70.729  1.00  0.00    -0.351 C  
BRANCH  18  19
HETATM   19  C   UNL     1     -12.331  11.631  70.739  1.00  0.00    -0.454 C  
BRANCH  19  20
HETATM   20  C   UNL     1     -13.303  11.887  71.891  1.00  0.00    -0.405 C  
BRANCH  20  21
HETATM   21  C   UNL     1     -13.143  13.300  72.440  1.00  0.00    -0.443 C  
BRANCH  21  22
HETATM   22  C   UNL     1     -14.224  14.229  71.896  1.00  0.00    -0.597 C  
BRANCH  22  23
HETATM   23  C   UNL     1     -13.600  15.447  71.235  1.00  0.00    -0.505 C  
BRANCH  23  24
HETATM   24  O   UNL     1     -12.212  15.201  71.037  1.00  0.00    -0.284 OA 
BRANCH  24  25
HETATM   25  C   UNL     1     -11.826  15.531  69.705  1.00  0.00    -0.366 C  
BRANCH  25  26
HETATM   26  C   UNL     1     -10.408  15.049  69.448  1.00  0.00    -0.235 C  
BRANCH  26  27
HETATM   27  O   UNL     1      -9.526  16.171  69.490  1.00  0.00    -0.231 OA 
BRANCH  27  28
HETATM   28  C   UNL     1      -8.798  16.303  68.278  1.00  0.00    -0.188 C  
BRANCH  28  29
HETATM   29  C   UNL     1      -9.235  17.567  67.589  1.00  0.00    -0.243 A  
HETATM   30  C   UNL     1     -10.199  17.546  66.566  1.00  0.00    -0.342 A  
HETATM   31 CL   UNL     1     -10.897  16.072  65.985  1.00  0.00    -0.245 Cl 
HETATM   32  C   UNL     1     -10.640  18.732  65.963  1.00  0.00    -0.442 A  
HETATM   33  C   UNL     1     -10.108  19.956  66.353  1.00  0.00    -0.615 A  
HETATM   34  C   UNL     1      -9.114  19.995  67.325  1.00  0.00    -0.459 A  
HETATM   35  C   UNL     1      -8.672  18.811  67.929  1.00  0.00    -0.296 A  
HETATM   36 CL   UNL     1      -7.410  18.961  69.104  1.00  0.00    -0.308 Cl 
ENDBRANCH  28  29
ENDBRANCH  27  28
ENDBRANCH  26  27
ENDBRANCH  25  26
ENDBRANCH  24  25
ENDBRANCH  23  24
ENDBRANCH  22  23
ENDBRANCH  21  22
ENDBRANCH  20  21
ENDBRANCH  19  20
ENDBRANCH  18  19
ENDBRANCH  16  18
ENDBRANCH  15  16
ENDBRANCH  12  15
ENDBRANCH  10  12
ENDBRANCH   2   4
TORSDOF 16
ENDMDL
MODEL       39
REMARK 921   NORMALIZED FREE ENERGY PREDICTED BY IDOCK:   -5.82 KCAL/MOL
REMARK 922        TOTAL FREE ENERGY PREDICTED BY IDOCK:  -13.34 KCAL/MOL
REMARK 923 INTER-LIGAND FREE ENERGY PREDICTED BY IDOCK:  -12.24 KCAL/MOL
REMARK 924 INTRA-LIGAND FREE ENERGY PREDICTED BY IDOCK:   -1.10 KCAL/MOL
REMARK 927      BINDING AFFINITY PREDICTED BY RF-SCORE:    0.00 PKD
ROOT
HETATM    1  O   UNL     1      -6.816  17.725  69.178  1.00  0.00    -0.251 OA 
HETATM    2  C   UNL     1      -6.803  17.513  67.765  1.00  0.00    -0.174 C  
HETATM    3  H   UNL     1      -6.006  17.426  69.575  1.00  0.00     0.000 HD 
ENDROOT
BRANCH   2   4
HETATM    4  C   UNL     1      -8.088  17.987  67.136  1.00  0.00    -0.225 A  
HETATM    5  C   UNL     1      -8.534  19.312  67.201  1.00  0.00    -0.285 A  
HETATM    6  O   UNL     1      -7.787  20.296  67.786  1.00  0.00    -0.291 OA 
HETATM    7  C   UNL     1      -9.762  19.692  66.668  1.00  0.00    -0.494 A  
HETATM    8  C   UNL     1     -10.572  18.745  66.046  1.00  0.00    -0.442 A  
HETATM    9  H   UNL     1      -8.089  21.196  67.830  1.00  0.00     0.000 HD 
HETATM   10  C   UNL     1     -10.162  17.407  65.958  1.00  0.00    -0.308 A  
HETATM   11  C   UNL     1      -8.925  17.041  66.519  1.00  0.00    -0.298 A  
BRANCH  10  12
HETATM   12  C   UNL     1     -11.086  16.379  65.340  1.00  0.00    -0.052 C  
HETATM   13  O   UNL     1     -11.476  16.793  64.023  1.00  0.00    -1.481 OA 
HETATM   14  H   UNL     1     -12.056  16.148  63.634  1.00  0.00     0.000 HD 
BRANCH  12  15
HETATM   15  C   UNL     1     -10.388  15.005  65.265  1.00  0.00    -0.395 C  
BRANCH  15  16
HETATM   16  N   UNL     1     -10.894  14.208  64.135  1.00  0.00    -0.516 NA 
HETATM   17  H   UNL     1     -10.155  13.661  63.693  1.00  0.00     0.000 HD 
BRANCH  16  18
HETATM   18  C   UNL     1     -12.006  13.370  64.570  1.00  0.00    -0.407 C  
BRANCH  18  19
HETATM   19  C   UNL     1     -11.851  11.958  64.010  1.00  0.00    -0.458 C  
BRANCH  19  20
HETATM   20  C   UNL     1     -10.433  11.757  63.478  1.00  0.00    -0.500 C  
BRANCH  20  21
HETATM   21  C   UNL     1      -9.747  10.584  64.169  1.00  0.00    -0.388 C  
BRANCH  21  22
HETATM   22  C   UNL     1     -10.129  10.514  65.644  1.00  0.00    -0.333 C  
BRANCH  22  23
HETATM   23  C   UNL     1      -9.794   9.147  66.220  1.00  0.00    -0.289 C  
BRANCH  23  24
HETATM   24  O   UNL     1      -9.542   9.286  67.614  1.00  0.00    -0.138 OA 
BRANCH  24  25
HETATM   25  C   UNL     1     -10.566  10.057  68.237  1.00  0.00    -0.226 C  
BRANCH  25  26
HETATM   26  C   UNL     1     -10.738   9.609  69.680  1.00  0.00    -0.240 C  
BRANCH  26  27
HETATM   27  O   UNL     1     -11.214  10.713  70.451  1.00  0.00    -0.304 OA 
BRANCH  27  28
HETATM   28  C   UNL     1     -11.753  11.731  69.620  1.00  0.00    -0.344 C  
BRANCH  28  29
HETATM   29  C   UNL     1     -12.387  12.780  70.492  1.00  0.00    -0.355 A  
HETATM   30  C   UNL     1     -13.103  12.431  71.651  1.00  0.00    -0.307 A  
HETATM   31 CL   UNL     1     -13.362  10.785  72.116  1.00  0.00    -0.462 Cl 
HETATM   32  C   UNL     1     -13.648  13.415  72.487  1.00  0.00    -0.659 A  
HETATM   33  C   UNL     1     -13.509  14.762  72.169  1.00  0.00    -0.491 A  
HETATM   34  C   UNL     1     -12.851  15.126  70.999  1.00  0.00    -0.477 A  
HETATM   35  C   UNL     1     -12.305  14.145  70.162  1.00  0.00    -0.351 A  
HETATM   36 CL   UNL     1     -11.534  14.698  68.714  1.00  0.00    -0.303 Cl 
ENDBRANCH  28  29
ENDBRANCH  27  28
ENDBRANCH  26  27
ENDBRANCH  25  26
ENDBRANCH  24  25
ENDBRANCH  23  24
ENDBRANCH  22  23
ENDBRANCH  21  22
ENDBRANCH  20  21
ENDBRANCH  19  20
ENDBRANCH  18  19
ENDBRANCH  16  18
ENDBRANCH  15  16
ENDBRANCH  12  15
ENDBRANCH  10  12
ENDBRANCH   2   4
TORSDOF 16
ENDMDL
MODEL       40
REMARK 921   NORMALIZED FREE ENERGY PREDICTED BY IDOCK:   -5.82 KCAL/MOL
REMARK 922        TOTAL FREE ENERGY PREDICTED BY IDOCK:  -13.34 KCAL/MOL
REMARK 923 INTER-LIGAND FREE ENERGY PREDICTED BY IDOCK:  -10.64 KCAL/MOL
REMARK 924 INTRA-LIGAND FREE ENERGY PREDICTED BY IDOCK:   -2.70 KCAL/MOL
REMARK 927      BINDING AFFINITY PREDICTED BY RF-SCORE:    0.00 PKD
ROOT
HETATM    1  O   UNL     1      -8.454  20.713  67.016  1.00  0.00    -0.514 OA 
HETATM    2  C   UNL     1      -9.508  19.880  67.500  1.00  0.00    -0.359 C  
HETATM    3  H   UNL     1      -8.578  21.614  67.289  1.00  0.00     0.000 HD 
ENDROOT
BRANCH   2   4
HETATM    4  C   UNL     1      -9.311  18.451  67.067  1.00  0.00    -0.281 A  
HETATM    5  C   UNL     1      -8.134  17.731  67.301  1.00  0.00    -0.211 A  
HETATM    6  O   UNL     1      -7.095  18.260  68.015  1.00  0.00    -0.218 OA 
HETATM    7  C   UNL     1      -7.967  16.436  66.820  1.00  0.00    -0.295 A  
HETATM    8  C   UNL     1      -8.988  15.827  66.095  1.00  0.00    -0.372 A  
HETATM    9  H   UNL     1      -6.296  17.772  68.174  1.00  0.00     0.000 HD 
HETATM   10  C   UNL     1     -10.184  16.513  65.839  1.00  0.00    -0.368 A  
HETATM   11  C   UNL     1     -10.325  17.827  66.319  1.00  0.00    -0.358 A  
BRANCH  10  12
HETATM   12  C   UNL     1     -11.255  15.860  64.991  1.00  0.00    -0.290 C  
HETATM   13  O   UNL     1     -11.413  16.574  63.757  1.00  0.00    -1.615 OA 
HETATM   14  H   UNL     1     -12.084  16.164  63.224  1.00  0.00     0.000 HD 
BRANCH  12  15
HETATM   15  C   UNL     1     -10.884  14.391  64.695  1.00  0.00    -0.346 C  
BRANCH  15  16
HETATM   16  N   UNL     1     -11.820  13.786  63.732  1.00  0.00    -0.685 NA 
HETATM   17  H   UNL     1     -11.754  14.220  62.812  1.00  0.00     0.000 HD 
BRANCH  16  18
HETATM   18  C   UNL     1     -11.613  12.343  63.671  1.00  0.00    -0.499 C  
BRANCH  18  19
HETATM   19  C   UNL     1     -10.395  11.950  64.502  1.00  0.00    -0.334 C  
BRANCH  19  20
HETATM   20  C   UNL     1     -10.030  10.489  64.244  1.00  0.00    -0.398 C  
BRANCH  20  21
HETATM   21  C   UNL     1      -9.870   9.723  65.553  1.00  0.00    -0.378 C  
BRANCH  21  22
HETATM   22  C   UNL     1      -8.516   9.023  65.619  1.00  0.00    -0.163 C  
BRANCH  22  23
HETATM   23  C   UNL     1      -8.549   7.887  66.628  1.00  0.00    -0.135 C  
BRANCH  23  24
HETATM   24  O   UNL     1      -9.865   7.345  66.665  1.00  0.00    -0.209 OA 
BRANCH  24  25
HETATM   25  C   UNL     1     -10.050   6.547  67.832  1.00  0.00    -0.147 C  
BRANCH  25  26
HETATM   26  C   UNL     1      -9.549   7.301  69.052  1.00  0.00    -0.147 C  
BRANCH  26  27
HETATM   27  O   UNL     1     -10.493   8.319  69.384  1.00  0.00    -0.220 OA 
BRANCH  27  28
HETATM   28  C   UNL     1      -9.895   9.347  70.161  1.00  0.00    -0.232 C  
BRANCH  28  29
HETATM   29  C   UNL     1     -10.084  10.660  69.451  1.00  0.00    -0.199 A  
HETATM   30  C   UNL     1      -9.028  11.273  68.755  1.00  0.00    -0.111 A  
HETATM   31 CL   UNL     1      -7.432  10.604  68.722  1.00  0.00    -0.096 Cl 
HETATM   32  C   UNL     1      -9.223  12.470  68.053  1.00  0.00    -0.204 A  
HETATM   33  C   UNL     1     -10.469  13.088  68.052  1.00  0.00    -0.234 A  
HETATM   34  C   UNL     1     -11.514  12.526  68.779  1.00  0.00    -0.353 A  
HETATM   35  C   UNL     1     -11.321  11.329  69.481  1.00  0.00    -0.294 A  
HETATM   36 CL   UNL     1     -12.673  10.728  70.380  1.00  0.00    -0.380 Cl 
ENDBRANCH  28  29
ENDBRANCH  27  28
ENDBRANCH  26  27
ENDBRANCH  25  26
ENDBRANCH  24  25
ENDBRANCH  23  24
ENDBRANCH  22  23
ENDBRANCH  21  22
ENDBRANCH  20  21
ENDBRANCH  19  20
ENDBRANCH  18  19
ENDBRANCH  16  18
ENDBRANCH  15  16
ENDBRANCH  12  15
ENDBRANCH  10  12
ENDBRANCH   2   4
TORSDOF 16
ENDMDL
MODEL       41
REMARK 921   NORMALIZED FREE ENERGY PREDICTED BY IDOCK:   -5.81 KCAL/MOL
REMARK 922        TOTAL FREE ENERGY PREDICTED BY IDOCK:  -13.32 KCAL/MOL
REMARK 923 INTER-LIGAND FREE ENERGY PREDICTED BY IDOCK:  -11.62 KCAL/MOL
REMARK 924 INTRA-LIGAND FREE ENERGY PREDICTED BY IDOCK:   -1.70 KCAL/MOL
REMARK 927      BINDING AFFINITY PREDICTED BY RF-SCORE:    0.00 PKD
ROOT
HETATM    1  O   UNL     1     -11.313   5.486  66.078  1.00  0.00    -0.753 OA 
HETATM    2  C   UNL     1     -10.908   6.512  66.986  1.00  0.00    -0.395 C  
HETATM    3  H   UNL     1     -11.539   5.850  65.231  1.00  0.00     0.000 HD 
ENDROOT
BRANCH   2   4
HETATM    4  C   UNL     1     -10.548   5.934  68.330  1.00  0.00    -0.310 A  
HETATM    5  C   UNL     1      -9.625   4.896  68.499  1.00  0.00    -0.152 A  
HETATM    6  O   UNL     1      -8.921   4.377  67.447  1.00  0.00    -0.108 OA 
HETATM    7  C   UNL     1      -9.376   4.342  69.751  1.00  0.00    -0.224 A  
HETATM    8  C   UNL     1     -10.046   4.828  70.871  1.00  0.00    -0.275 A  
HETATM    9  H   UNL     1      -8.295   3.673  67.562  1.00  0.00     0.000 HD 
HETATM   10  C   UNL     1     -10.978   5.868  70.746  1.00  0.00    -0.343 A  
HETATM   11  C   UNL     1     -11.228   6.400  69.468  1.00  0.00    -0.477 A  
BRANCH  10  12
HETATM   12  C   UNL     1     -11.747   6.335  71.963  1.00  0.00    -0.322 C  
HETATM   13  O   UNL     1     -10.852   6.917  72.921  1.00  0.00    -0.250 OA 
HETATM   14  H   UNL     1     -11.335   7.211  73.685  1.00  0.00     0.000 HD 
BRANCH  12  15
HETATM   15  C   UNL     1     -12.817   7.371  71.557  1.00  0.00    -0.375 C  
BRANCH  15  16
HETATM   16  N   UNL     1     -12.884   8.479  72.525  1.00  0.00    -0.579 NA 
HETATM   17  H   UNL     1     -11.956   8.797  72.806  1.00  0.00     0.000 HD 
BRANCH  16  18
HETATM   18  C   UNL     1     -13.694   9.567  71.988  1.00  0.00    -0.359 C  
BRANCH  18  19
HETATM   19  C   UNL     1     -12.794  10.669  71.435  1.00  0.00    -0.556 C  
BRANCH  19  20
HETATM   20  C   UNL     1     -13.272  12.035  71.928  1.00  0.00    -0.469 C  
BRANCH  20  21
HETATM   21  C   UNL     1     -12.585  13.164  71.168  1.00  0.00    -0.403 C  
BRANCH  21  22
HETATM   22  C   UNL     1     -13.287  14.497  71.410  1.00  0.00    -0.427 C  
BRANCH  22  23
HETATM   23  C   UNL     1     -12.526  15.631  70.742  1.00  0.00    -0.435 C  
BRANCH  23  24
HETATM   24  O   UNL     1     -11.131  15.353  70.815  1.00  0.00    -0.314 OA 
BRANCH  24  25
HETATM   25  C   UNL     1     -10.446  15.918  69.699  1.00  0.00    -0.295 C  
BRANCH  25  26
HETATM   26  C   UNL     1     -11.326  15.837  68.463  1.00  0.00    -0.374 C  
BRANCH  26  27
HETATM   27  O   UNL     1     -10.843  14.790  67.621  1.00  0.00    -0.272 OA 
BRANCH  27  28
HETATM   28  C   UNL     1     -11.865  13.850  67.325  1.00  0.00    -0.407 C  
BRANCH  28  29
HETATM   29  C   UNL     1     -11.290  12.772  66.447  1.00  0.00    -0.369 A  
HETATM   30  C   UNL     1     -10.581  11.686  66.992  1.00  0.00    -0.237 A  
HETATM   31 CL   UNL     1     -10.265  11.548  68.688  1.00  0.00    -0.213 Cl 
HETATM   32  C   UNL     1     -10.092  10.659  66.174  1.00  0.00    -0.306 A  
HETATM   33  C   UNL     1     -10.280  10.709  64.797  1.00  0.00    -0.401 A  
HETATM   34  C   UNL     1     -10.931  11.800  64.232  1.00  0.00    -0.419 A  
HETATM   35  C   UNL     1     -11.421  12.829  65.047  1.00  0.00    -0.321 A  
HETATM   36 CL   UNL     1     -12.188  14.158  64.247  1.00  0.00    -0.480 Cl 
ENDBRANCH  28  29
ENDBRANCH  27  28
ENDBRANCH  26  27
ENDBRANCH  25  26
ENDBRANCH  24  25
ENDBRANCH  23  24
ENDBRANCH  22  23
ENDBRANCH  21  22
ENDBRANCH  20  21
ENDBRANCH  19  20
ENDBRANCH  18  19
ENDBRANCH  16  18
ENDBRANCH  15  16
ENDBRANCH  12  15
ENDBRANCH  10  12
ENDBRANCH   2   4
TORSDOF 16
ENDMDL
MODEL       42
REMARK 921   NORMALIZED FREE ENERGY PREDICTED BY IDOCK:   -5.80 KCAL/MOL
REMARK 922        TOTAL FREE ENERGY PREDICTED BY IDOCK:  -13.30 KCAL/MOL
REMARK 923 INTER-LIGAND FREE ENERGY PREDICTED BY IDOCK:  -11.39 KCAL/MOL
REMARK 924 INTRA-LIGAND FREE ENERGY PREDICTED BY IDOCK:   -1.91 KCAL/MOL
REMARK 927      BINDING AFFINITY PREDICTED BY RF-SCORE:    0.00 PKD
ROOT
HETATM    1  O   UNL     1     -13.499   8.550  72.542  1.00  0.00    -0.570 OA 
HETATM    2  C   UNL     1     -13.536   7.413  71.679  1.00  0.00    -0.366 C  
HETATM    3  H   UNL     1     -14.373   8.794  72.823  1.00  0.00     0.000 HD 
ENDROOT
BRANCH   2   4
HETATM    4  C   UNL     1     -12.149   7.027  71.234  1.00  0.00    -0.403 A  
HETATM    5  C   UNL     1     -11.071   6.882  72.114  1.00  0.00    -0.243 A  
HETATM    6  O   UNL     1     -11.221   7.011  73.467  1.00  0.00    -0.537 OA 
HETATM    7  C   UNL     1      -9.790   6.594  71.652  1.00  0.00    -0.177 A  
HETATM    8  C   UNL     1      -9.563   6.436  70.287  1.00  0.00    -0.177 A  
HETATM    9  H   UNL     1     -10.490   6.913  74.064  1.00  0.00     0.000 HD 
HETATM   10  C   UNL     1     -10.616   6.571  69.372  1.00  0.00    -0.291 A  
HETATM   11  C   UNL     1     -11.899   6.880  69.858  1.00  0.00    -0.137 A  
BRANCH  10  12
HETATM   12  C   UNL     1     -10.336   6.464  67.887  1.00  0.00    -0.190 C  
HETATM   13  O   UNL     1     -11.561   6.549  67.145  1.00  0.00    -0.743 OA 
HETATM   14  H   UNL     1     -11.386   6.482  66.214  1.00  0.00     0.000 HD 
BRANCH  12  15
HETATM   15  C   UNL     1      -9.380   7.590  67.439  1.00  0.00    -0.140 C  
BRANCH  15  16
HETATM   16  N   UNL     1      -9.581   7.929  66.020  1.00  0.00    -0.436 NA 
HETATM   17  H   UNL     1     -10.442   8.456  65.872  1.00  0.00     0.000 HD 
BRANCH  16  18
HETATM   18  C   UNL     1      -8.414   8.636  65.503  1.00  0.00    -0.165 C  
BRANCH  18  19
HETATM   19  C   UNL     1      -8.815  10.025  65.014  1.00  0.00    -0.213 C  
BRANCH  19  20
HETATM   20  C   UNL     1      -8.990  10.018  63.495  1.00  0.00    -0.279 C  
BRANCH  20  21
HETATM   21  C   UNL     1      -9.775  11.238  63.027  1.00  0.00    -0.389 C  
BRANCH  21  22
HETATM   22  C   UNL     1     -10.655  11.789  64.144  1.00  0.00    -0.403 C  
BRANCH  22  23
HETATM   23  C   UNL     1     -11.975  12.296  63.586  1.00  0.00    -0.543 C  
BRANCH  23  24
HETATM   24  O   UNL     1     -12.598  13.125  64.561  1.00  0.00    -0.594 OA 
BRANCH  24  25
HETATM   25  C   UNL     1     -11.728  14.185  64.951  1.00  0.00    -0.392 C  
BRANCH  25  26
HETATM   26  C   UNL     1     -12.014  14.580  66.391  1.00  0.00    -0.334 C  
BRANCH  26  27
HETATM   27  O   UNL     1     -11.940  13.414  67.212  1.00  0.00    -0.362 OA 
BRANCH  27  28
HETATM   28  C   UNL     1     -11.049  13.603  68.301  1.00  0.00    -0.256 C  
BRANCH  28  29
HETATM   29  C   UNL     1     -11.704  13.091  69.555  1.00  0.00    -0.381 A  
HETATM   30  C   UNL     1     -11.782  11.715  69.829  1.00  0.00    -0.352 A  
HETATM   31 CL   UNL     1     -11.196  10.519  68.724  1.00  0.00    -0.305 Cl 
HETATM   32  C   UNL     1     -12.348  11.246  71.023  1.00  0.00    -0.472 A  
HETATM   33  C   UNL     1     -12.867  12.141  71.952  1.00  0.00    -0.327 A  
HETATM   34  C   UNL     1     -12.849  13.505  71.676  1.00  0.00    -0.419 A  
HETATM   35  C   UNL     1     -12.284  13.976  70.483  1.00  0.00    -0.365 A  
HETATM   36 CL   UNL     1     -12.338  15.685  70.218  1.00  0.00    -0.424 Cl 
ENDBRANCH  28  29
ENDBRANCH  27  28
ENDBRANCH  26  27
ENDBRANCH  25  26
ENDBRANCH  24  25
ENDBRANCH  23  24
ENDBRANCH  22  23
ENDBRANCH  21  22
ENDBRANCH  20  21
ENDBRANCH  19  20
ENDBRANCH  18  19
ENDBRANCH  16  18
ENDBRANCH  15  16
ENDBRANCH  12  15
ENDBRANCH  10  12
ENDBRANCH   2   4
TORSDOF 16
ENDMDL
MODEL       43
REMARK 921   NORMALIZED FREE ENERGY PREDICTED BY IDOCK:   -5.80 KCAL/MOL
REMARK 922        TOTAL FREE ENERGY PREDICTED BY IDOCK:  -13.30 KCAL/MOL
REMARK 923 INTER-LIGAND FREE ENERGY PREDICTED BY IDOCK:  -11.16 KCAL/MOL
REMARK 924 INTRA-LIGAND FREE ENERGY PREDICTED BY IDOCK:   -2.13 KCAL/MOL
REMARK 927      BINDING AFFINITY PREDICTED BY RF-SCORE:    0.00 PKD
ROOT
HETATM    1  O   UNL     1     -12.668  15.382  69.490  1.00  0.00    -0.604 OA 
HETATM    2  C   UNL     1     -12.115  14.192  68.928  1.00  0.00    -0.304 C  
HETATM    3  H   UNL     1     -13.012  15.221  70.361  1.00  0.00     0.000 HD 
ENDROOT
BRANCH   2   4
HETATM    4  C   UNL     1     -11.569  14.449  67.547  1.00  0.00    -0.398 A  
HETATM    5  C   UNL     1     -10.736  15.530  67.239  1.00  0.00    -0.308 A  
HETATM    6  O   UNL     1     -10.296  16.399  68.198  1.00  0.00    -0.261 OA 
HETATM    7  C   UNL     1     -10.313  15.771  65.935  1.00  0.00    -0.372 A  
HETATM    8  C   UNL     1     -10.711  14.921  64.906  1.00  0.00    -0.426 A  
HETATM    9  H   UNL     1      -9.731  17.132  67.989  1.00  0.00     0.000 HD 
HETATM   10  C   UNL     1     -11.544  13.825  65.173  1.00  0.00    -0.341 A  
HETATM   11  C   UNL     1     -11.976  13.610  66.494  1.00  0.00    -0.465 A  
BRANCH  10  12
HETATM   12  C   UNL     1     -12.023  12.953  64.032  1.00  0.00    -0.451 C  
HETATM   13  O   UNL     1     -12.379  13.765  62.904  1.00  0.00    -1.008 OA 
HETATM   14  H   UNL     1     -12.679  13.217  62.188  1.00  0.00     0.000 HD 
BRANCH  12  15
HETATM   15  C   UNL     1     -10.921  11.953  63.622  1.00  0.00    -0.440 C  
BRANCH  15  16
HETATM   16  N   UNL     1     -10.686  10.953  64.678  1.00  0.00    -0.264 NA 
HETATM   17  H   UNL     1     -10.974  10.018  64.389  1.00  0.00     0.000 HD 
BRANCH  16  18
HETATM   18  C   UNL     1      -9.290  10.987  65.100  1.00  0.00    -0.220 C  
BRANCH  18  19
HETATM   19  C   UNL     1      -9.151  10.397  66.501  1.00  0.00    -0.175 C  
BRANCH  19  20
HETATM   20  C   UNL     1     -10.527  10.246  67.148  1.00  0.00    -0.311 C  
BRANCH  20  21
HETATM   21  C   UNL     1     -10.537  10.817  68.561  1.00  0.00    -0.223 C  
BRANCH  21  22
HETATM   22  C   UNL     1     -11.881  10.581  69.242  1.00  0.00    -0.242 C  
BRANCH  22  23
HETATM   23  C   UNL     1     -11.700  10.423  70.743  1.00  0.00    -0.368 C  
BRANCH  23  24
HETATM   24  O   UNL     1     -12.979  10.238  71.342  1.00  0.00    -0.373 OA 
BRANCH  24  25
HETATM   25  C   UNL     1     -12.974   9.098  72.198  1.00  0.00    -0.425 C  
BRANCH  25  26
HETATM   26  C   UNL     1     -13.717   7.952  71.529  1.00  0.00    -0.322 C  
BRANCH  26  27
HETATM   27  O   UNL     1     -13.018   6.735  71.791  1.00  0.00    -0.349 OA 
BRANCH  27  28
HETATM   28  C   UNL     1     -11.646   6.975  72.068  1.00  0.00    -0.285 C  
BRANCH  28  29
HETATM   29  C   UNL     1     -10.850   5.773  71.636  1.00  0.00    -0.316 A  
HETATM   30  C   UNL     1     -10.381   4.833  72.571  1.00  0.00    -0.201 A  
HETATM   31 CL   UNL     1     -10.625   5.022  74.274  1.00  0.00    -0.332 Cl 
HETATM   32  C   UNL     1      -9.685   3.689  72.158  1.00  0.00    -0.231 A  
HETATM   33  C   UNL     1      -9.423   3.476  70.809  1.00  0.00    -0.240 A  
HETATM   34  C   UNL     1      -9.831   4.421  69.873  1.00  0.00    -0.290 A  
HETATM   35  C   UNL     1     -10.528   5.565  70.283  1.00  0.00    -0.295 A  
HETATM   36 CL   UNL     1     -10.963   6.696  69.047  1.00  0.00    -0.321 Cl 
ENDBRANCH  28  29
ENDBRANCH  27  28
ENDBRANCH  26  27
ENDBRANCH  25  26
ENDBRANCH  24  25
ENDBRANCH  23  24
ENDBRANCH  22  23
ENDBRANCH  21  22
ENDBRANCH  20  21
ENDBRANCH  19  20
ENDBRANCH  18  19
ENDBRANCH  16  18
ENDBRANCH  15  16
ENDBRANCH  12  15
ENDBRANCH  10  12
ENDBRANCH   2   4
TORSDOF 16
ENDMDL
MODEL       44
REMARK 921   NORMALIZED FREE ENERGY PREDICTED BY IDOCK:   -5.79 KCAL/MOL
REMARK 922        TOTAL FREE ENERGY PREDICTED BY IDOCK:  -13.28 KCAL/MOL
REMARK 923 INTER-LIGAND FREE ENERGY PREDICTED BY IDOCK:  -10.99 KCAL/MOL
REMARK 924 INTRA-LIGAND FREE ENERGY PREDICTED BY IDOCK:   -2.29 KCAL/MOL
REMARK 927      BINDING AFFINITY PREDICTED BY RF-SCORE:    0.00 PKD
ROOT
HETATM    1  O   UNL     1      -9.144  12.117  63.142  1.00  0.00    -0.588 OA 
HETATM    2  C   UNL     1     -10.511  11.727  63.277  1.00  0.00    -0.388 C  
HETATM    3  H   UNL     1      -8.735  11.678  62.405  1.00  0.00     0.000 HD 
ENDROOT
BRANCH   2   4
HETATM    4  C   UNL     1     -11.159  12.423  64.445  1.00  0.00    -0.381 A  
HETATM    5  C   UNL     1     -12.076  13.471  64.304  1.00  0.00    -0.431 A  
HETATM    6  O   UNL     1     -12.508  13.891  63.077  1.00  0.00    -1.099 OA 
HETATM    7  C   UNL     1     -12.597  14.135  65.411  1.00  0.00    -0.485 A  
HETATM    8  C   UNL     1     -12.212  13.753  66.694  1.00  0.00    -0.454 A  
HETATM    9  H   UNL     1     -13.131  14.602  62.981  1.00  0.00     0.000 HD 
HETATM   10  C   UNL     1     -11.297  12.707  66.880  1.00  0.00    -0.373 A  
HETATM   11  C   UNL     1     -10.769  12.062  65.747  1.00  0.00    -0.319 A  
BRANCH  10  12
HETATM   12  C   UNL     1     -10.838  12.353  68.279  1.00  0.00    -0.237 C  
HETATM   13  O   UNL     1     -10.392  13.530  68.967  1.00  0.00    -0.404 OA 
HETATM   14  H   UNL     1     -10.105  13.307  69.844  1.00  0.00     0.000 HD 
BRANCH  12  15
HETATM   15  C   UNL     1     -11.988  11.695  69.070  1.00  0.00    -0.305 C  
BRANCH  15  16
HETATM   16  N   UNL     1     -11.928  10.226  68.980  1.00  0.00    -0.609 NA 
HETATM   17  H   UNL     1     -12.310   9.881  68.100  1.00  0.00     0.000 HD 
BRANCH  16  18
HETATM   18  C   UNL     1     -10.561   9.765  69.199  1.00  0.00    -0.218 C  
BRANCH  18  19
HETATM   19  C   UNL     1     -10.233   8.620  68.244  1.00  0.00    -0.237 C  
BRANCH  19  20
HETATM   20  C   UNL     1      -9.222   9.083  67.195  1.00  0.00    -0.164 C  
BRANCH  20  21
HETATM   21  C   UNL     1      -8.100   9.893  67.833  1.00  0.00    -0.109 C  
BRANCH  21  22
HETATM   22  C   UNL     1      -7.510  10.893  66.842  1.00  0.00    -0.128 C  
BRANCH  22  23
HETATM   23  C   UNL     1      -6.129  11.340  67.292  1.00  0.00    -0.076 C  
BRANCH  23  24
HETATM   24  O   UNL     1      -5.997  12.737  67.048  1.00  0.00    -0.307 OA 
BRANCH  24  25
HETATM   25  C   UNL     1      -7.150  13.439  67.506  1.00  0.00    -0.144 C  
BRANCH  25  26
HETATM   26  C   UNL     1      -6.737  14.790  68.068  1.00  0.00    -0.144 C  
BRANCH  26  27
HETATM   27  O   UNL     1      -7.675  15.775  67.635  1.00  0.00    -0.134 OA 
BRANCH  27  28
HETATM   28  C   UNL     1      -8.155  16.548  68.726  1.00  0.00    -0.244 C  
BRANCH  28  29
HETATM   29  C   UNL     1      -8.778  17.807  68.188  1.00  0.00    -0.266 A  
HETATM   30  C   UNL     1      -7.998  18.935  67.879  1.00  0.00    -0.271 A  
HETATM   31 CL   UNL     1      -6.290  18.980  68.155  1.00  0.00    -0.229 Cl 
HETATM   32  C   UNL     1      -8.577  20.087  67.329  1.00  0.00    -0.399 A  
HETATM   33  C   UNL     1      -9.948  20.142  67.102  1.00  0.00    -0.595 A  
HETATM   34  C   UNL     1     -10.746  19.057  67.451  1.00  0.00    -0.559 A  
HETATM   35  C   UNL     1     -10.169  17.905  68.000  1.00  0.00    -0.376 A  
HETATM   36 CL   UNL     1     -11.250  16.623  68.430  1.00  0.00    -0.316 Cl 
ENDBRANCH  28  29
ENDBRANCH  27  28
ENDBRANCH  26  27
ENDBRANCH  25  26
ENDBRANCH  24  25
ENDBRANCH  23  24
ENDBRANCH  22  23
ENDBRANCH  21  22
ENDBRANCH  20  21
ENDBRANCH  19  20
ENDBRANCH  18  19
ENDBRANCH  16  18
ENDBRANCH  15  16
ENDBRANCH  12  15
ENDBRANCH  10  12
ENDBRANCH   2   4
TORSDOF 16
ENDMDL
MODEL       45
REMARK 921   NORMALIZED FREE ENERGY PREDICTED BY IDOCK:   -5.76 KCAL/MOL
REMARK 922        TOTAL FREE ENERGY PREDICTED BY IDOCK:  -13.21 KCAL/MOL
REMARK 923 INTER-LIGAND FREE ENERGY PREDICTED BY IDOCK:  -11.40 KCAL/MOL
REMARK 924 INTRA-LIGAND FREE ENERGY PREDICTED BY IDOCK:   -1.81 KCAL/MOL
REMARK 927      BINDING AFFINITY PREDICTED BY RF-SCORE:    0.00 PKD
ROOT
HETATM    1  O   UNL     1     -12.201  11.273  62.708  1.00  0.00    -0.812 OA 
HETATM    2  C   UNL     1     -12.781  12.247  63.578  1.00  0.00    -0.393 C  
HETATM    3  H   UNL     1     -12.857  10.896  62.133  1.00  0.00     0.000 HD 
ENDROOT
BRANCH   2   4
HETATM    4  C   UNL     1     -11.741  12.844  64.490  1.00  0.00    -0.416 A  
HETATM    5  C   UNL     1     -11.469  14.216  64.553  1.00  0.00    -0.372 A  
HETATM    6  O   UNL     1     -12.190  15.128  63.834  1.00  0.00    -0.947 OA 
HETATM    7  C   UNL     1     -10.450  14.718  65.357  1.00  0.00    -0.401 A  
HETATM    8  C   UNL     1      -9.681  13.849  66.128  1.00  0.00    -0.289 A  
HETATM    9  H   UNL     1     -12.006  16.058  63.877  1.00  0.00     0.000 HD 
HETATM   10  C   UNL     1      -9.921  12.468  66.095  1.00  0.00    -0.267 A  
HETATM   11  C   UNL     1     -10.944  11.980  65.262  1.00  0.00    -0.356 A  
BRANCH  10  12
HETATM   12  C   UNL     1      -9.031  11.534  66.886  1.00  0.00    -0.179 C  
HETATM   13  O   UNL     1      -7.830  11.254  66.152  1.00  0.00    -0.306 OA 
HETATM   14  H   UNL     1      -7.271  10.668  66.649  1.00  0.00     0.000 HD 
BRANCH  12  15
HETATM   15  C   UNL     1      -8.670  12.162  68.249  1.00  0.00    -0.178 C  
BRANCH  15  16
HETATM   16  N   UNL     1      -8.180  11.146  69.195  1.00  0.00    -0.359 NA 
HETATM   17  H   UNL     1      -7.820  11.564  70.053  1.00  0.00     0.000 HD 
BRANCH  16  18
HETATM   18  C   UNL     1      -9.226  10.165  69.463  1.00  0.00    -0.204 C  
BRANCH  18  19
HETATM   19  C   UNL     1      -8.677   9.035  70.331  1.00  0.00    -0.224 C  
BRANCH  19  20
HETATM   20  C   UNL     1      -9.795   8.435  71.183  1.00  0.00    -0.242 C  
BRANCH  20  21
HETATM   21  C   UNL     1     -10.097   7.001  70.763  1.00  0.00    -0.205 C  
BRANCH  21  22
HETATM   22  C   UNL     1     -11.586   6.806  70.496  1.00  0.00    -0.426 C  
BRANCH  22  23
HETATM   23  C   UNL     1     -12.399   7.119  71.742  1.00  0.00    -0.350 C  
BRANCH  23  24
HETATM   24  O   UNL     1     -13.461   7.998  71.388  1.00  0.00    -0.297 OA 
BRANCH  24  25
HETATM   25  C   UNL     1     -13.294   9.268  72.014  1.00  0.00    -0.450 C  
BRANCH  25  26
HETATM   26  C   UNL     1     -12.861  10.296  70.982  1.00  0.00    -0.397 C  
BRANCH  26  27
HETATM   27  O   UNL     1     -12.416  11.471  71.660  1.00  0.00    -0.219 OA 
BRANCH  27  28
HETATM   28  C   UNL     1     -13.354  12.529  71.532  1.00  0.00    -0.089 C  
BRANCH  28  29
HETATM   29  C   UNL     1     -12.633  13.756  71.044  1.00  0.00    -0.446 A  
HETATM   30  C   UNL     1     -12.119  13.831  69.738  1.00  0.00    -0.340 A  
HETATM   31 CL   UNL     1     -12.217  12.505  68.630  1.00  0.00    -0.105 Cl 
HETATM   32  C   UNL     1     -11.494  14.996  69.272  1.00  0.00    -0.326 A  
HETATM   33  C   UNL     1     -11.350  16.097  70.109  1.00  0.00    -0.347 A  
HETATM   34  C   UNL     1     -11.804  16.025  71.422  1.00  0.00    -0.531 A  
HETATM   35  C   UNL     1     -12.429  14.862  71.890  1.00  0.00    -0.333 A  
HETATM   36 CL   UNL     1     -12.930  14.860  73.547  1.00  0.00    -0.594 Cl 
ENDBRANCH  28  29
ENDBRANCH  27  28
ENDBRANCH  26  27
ENDBRANCH  25  26
ENDBRANCH  24  25
ENDBRANCH  23  24
ENDBRANCH  22  23
ENDBRANCH  21  22
ENDBRANCH  20  21
ENDBRANCH  19  20
ENDBRANCH  18  19
ENDBRANCH  16  18
ENDBRANCH  15  16
ENDBRANCH  12  15
ENDBRANCH  10  12
ENDBRANCH   2   4
TORSDOF 16
ENDMDL
MODEL       46
REMARK 921   NORMALIZED FREE ENERGY PREDICTED BY IDOCK:   -5.75 KCAL/MOL
REMARK 922        TOTAL FREE ENERGY PREDICTED BY IDOCK:  -13.20 KCAL/MOL
REMARK 923 INTER-LIGAND FREE ENERGY PREDICTED BY IDOCK:   -9.76 KCAL/MOL
REMARK 924 INTRA-LIGAND FREE ENERGY PREDICTED BY IDOCK:   -3.44 KCAL/MOL
REMARK 927      BINDING AFFINITY PREDICTED BY RF-SCORE:    0.00 PKD
ROOT
HETATM    1  O   UNL     1     -11.881  10.198  68.366  1.00  0.00    -0.676 OA 
HETATM    2  C   UNL     1     -10.994  10.640  69.394  1.00  0.00    -0.255 C  
HETATM    3  H   UNL     1     -11.897  10.813  67.642  1.00  0.00     0.000 HD 
ENDROOT
BRANCH   2   4
HETATM    4  C   UNL     1     -10.969   9.664  70.542  1.00  0.00    -0.374 A  
HETATM    5  C   UNL     1     -12.125   9.160  71.149  1.00  0.00    -0.299 A  
HETATM    6  O   UNL     1     -13.375   9.467  70.687  1.00  0.00    -0.569 OA 
HETATM    7  C   UNL     1     -12.057   8.316  72.253  1.00  0.00    -0.439 A  
HETATM    8  C   UNL     1     -10.817   7.949  72.772  1.00  0.00    -0.451 A  
HETATM    9  H   UNL     1     -14.159   9.125  71.099  1.00  0.00     0.000 HD 
HETATM   10  C   UNL     1      -9.634   8.431  72.193  1.00  0.00    -0.367 A  
HETATM   11  C   UNL     1      -9.726   9.297  71.088  1.00  0.00    -0.327 A  
BRANCH  10  12
HETATM   12  C   UNL     1      -8.299   8.077  72.812  1.00  0.00    -0.167 C  
HETATM   13  O   UNL     1      -8.496   7.327  74.019  1.00  0.00    -0.148 OA 
HETATM   14  H   UNL     1      -7.658   7.105  74.408  1.00  0.00     0.000 HD 
BRANCH  12  15
HETATM   15  C   UNL     1      -7.450   7.251  71.823  1.00  0.00    -0.084 C  
BRANCH  15  16
HETATM   16  N   UNL     1      -7.470   5.819  72.166  1.00  0.00    -0.094 NA 
HETATM   17  H   UNL     1      -7.943   5.645  73.053  1.00  0.00     0.000 HD 
BRANCH  16  18
HETATM   18  C   UNL     1      -8.059   5.049  71.075  1.00  0.00    -0.101 C  
BRANCH  18  19
HETATM   19  C   UNL     1      -9.362   4.400  71.533  1.00  0.00    -0.203 C  
BRANCH  19  20
HETATM   20  C   UNL     1     -10.517   4.850  70.638  1.00  0.00    -0.163 C  
BRANCH  20  21
HETATM   21  C   UNL     1     -10.067   5.929  69.661  1.00  0.00    -0.260 C  
BRANCH  21  22
HETATM   22  C   UNL     1     -11.222   6.388  68.775  1.00  0.00    -0.358 C  
BRANCH  22  23
HETATM   23  C   UNL     1     -10.814   6.367  67.311  1.00  0.00    -0.385 C  
BRANCH  23  24
HETATM   24  O   UNL     1     -10.743   7.707  66.836  1.00  0.00    -0.351 OA 
BRANCH  24  25
HETATM   25  C   UNL     1      -9.459   7.977  66.278  1.00  0.00    -0.172 C  
BRANCH  25  26
HETATM   26  C   UNL     1      -9.218   9.477  66.250  1.00  0.00    -0.172 C  
BRANCH  26  27
HETATM   27  O   UNL     1     -10.324  10.110  65.606  1.00  0.00    -0.240 OA 
BRANCH  27  28
HETATM   28  C   UNL     1      -9.937  11.332  64.994  1.00  0.00    -0.274 C  
BRANCH  28  29
HETATM   29  C   UNL     1     -10.695  12.457  65.643  1.00  0.00    -0.299 A  
HETATM   30  C   UNL     1     -11.957  12.857  65.172  1.00  0.00    -0.414 A  
HETATM   31 CL   UNL     1     -12.694  12.136  63.782  1.00  0.00    -0.575 Cl 
HETATM   32  C   UNL     1     -12.681  13.872  65.813  1.00  0.00    -0.503 A  
HETATM   33  C   UNL     1     -12.147  14.522  66.920  1.00  0.00    -0.309 A  
HETATM   34  C   UNL     1     -10.876  14.178  67.371  1.00  0.00    -0.291 A  
HETATM   35  C   UNL     1     -10.151  13.164  66.732  1.00  0.00    -0.253 A  
HETATM   36 CL   UNL     1      -8.568  12.834  67.347  1.00  0.00    -0.184 Cl 
ENDBRANCH  28  29
ENDBRANCH  27  28
ENDBRANCH  26  27
ENDBRANCH  25  26
ENDBRANCH  24  25
ENDBRANCH  23  24
ENDBRANCH  22  23
ENDBRANCH  21  22
ENDBRANCH  20  21
ENDBRANCH  19  20
ENDBRANCH  18  19
ENDBRANCH  16  18
ENDBRANCH  15  16
ENDBRANCH  12  15
ENDBRANCH  10  12
ENDBRANCH   2   4
TORSDOF 16
ENDMDL
MODEL       47
REMARK 921   NORMALIZED FREE ENERGY PREDICTED BY IDOCK:   -5.75 KCAL/MOL
REMARK 922        TOTAL FREE ENERGY PREDICTED BY IDOCK:  -13.19 KCAL/MOL
REMARK 923 INTER-LIGAND FREE ENERGY PREDICTED BY IDOCK:   -9.89 KCAL/MOL
REMARK 924 INTRA-LIGAND FREE ENERGY PREDICTED BY IDOCK:   -3.30 KCAL/MOL
REMARK 927      BINDING AFFINITY PREDICTED BY RF-SCORE:    0.00 PKD
ROOT
HETATM    1  O   UNL     1     -12.129  10.407  68.271  1.00  0.00    -0.747 OA 
HETATM    2  C   UNL     1     -11.431  10.931  69.401  1.00  0.00    -0.302 C  
HETATM    3  H   UNL     1     -12.201  11.057  67.583  1.00  0.00     0.000 HD 
ENDROOT
BRANCH   2   4
HETATM    4  C   UNL     1     -11.317   9.900  70.493  1.00  0.00    -0.399 A  
HETATM    5  C   UNL     1     -12.424   9.354  71.154  1.00  0.00    -0.293 A  
HETATM    6  O   UNL     1     -13.705   9.671  70.799  1.00  0.00    -0.567 OA 
HETATM    7  C   UNL     1     -12.271   8.457  72.207  1.00  0.00    -0.449 A  
HETATM    8  C   UNL     1     -10.995   8.077  72.617  1.00  0.00    -0.448 A  
HETATM    9  H   UNL     1     -14.456   9.301  71.247  1.00  0.00     0.000 HD 
HETATM   10  C   UNL     1      -9.860   8.599  71.980  1.00  0.00    -0.396 A  
HETATM   11  C   UNL     1     -10.037   9.518  70.931  1.00  0.00    -0.330 A  
BRANCH  10  12
HETATM   12  C   UNL     1      -8.481   8.228  72.485  1.00  0.00    -0.187 C  
HETATM   13  O   UNL     1      -8.586   7.453  73.687  1.00  0.00    -0.142 OA 
HETATM   14  H   UNL     1      -7.721   7.220  74.004  1.00  0.00     0.000 HD 
BRANCH  12  15
HETATM   15  C   UNL     1      -7.717   7.422  71.414  1.00  0.00    -0.086 C  
BRANCH  15  16
HETATM   16  N   UNL     1      -7.424   6.056  71.880  1.00  0.00    -0.094 NA 
HETATM   17  H   UNL     1      -7.639   5.936  72.870  1.00  0.00     0.000 HD 
BRANCH  16  18
HETATM   18  C   UNL     1      -8.122   5.081  71.049  1.00  0.00    -0.101 C  
BRANCH  18  19
HETATM   19  C   UNL     1      -9.392   4.606  71.750  1.00  0.00    -0.190 C  
BRANCH  19  20
HETATM   20  C   UNL     1     -10.625   5.041  70.958  1.00  0.00    -0.146 C  
BRANCH  20  21
HETATM   21  C   UNL     1     -10.269   5.335  69.505  1.00  0.00    -0.338 C  
BRANCH  21  22
HETATM   22  C   UNL     1     -11.153   6.440  68.934  1.00  0.00    -0.420 C  
BRANCH  22  23
HETATM   23  C   UNL     1     -10.985   6.534  67.426  1.00  0.00    -0.378 C  
BRANCH  23  24
HETATM   24  O   UNL     1     -10.551   7.849  67.095  1.00  0.00    -0.320 OA 
BRANCH  24  25
HETATM   25  C   UNL     1      -9.298   7.811  66.415  1.00  0.00    -0.181 C  
BRANCH  25  26
HETATM   26  C   UNL     1      -8.911   9.213  65.975  1.00  0.00    -0.181 C  
BRANCH  26  27
HETATM   27  O   UNL     1     -10.067  10.049  66.030  1.00  0.00    -0.254 OA 
BRANCH  27  28
HETATM   28  C   UNL     1     -10.000  11.088  65.064  1.00  0.00    -0.285 C  
BRANCH  28  29
HETATM   29  C   UNL     1     -10.791  12.265  65.568  1.00  0.00    -0.319 A  
HETATM   30  C   UNL     1     -10.322  13.061  66.628  1.00  0.00    -0.260 A  
HETATM   31 CL   UNL     1      -8.849  12.709  67.466  1.00  0.00    -0.175 Cl 
HETATM   32  C   UNL     1     -11.037  14.187  67.059  1.00  0.00    -0.314 A  
HETATM   33  C   UNL     1     -12.244  14.523  66.456  1.00  0.00    -0.268 A  
HETATM   34  C   UNL     1     -12.753  13.718  65.442  1.00  0.00    -0.513 A  
HETATM   35  C   UNL     1     -12.040  12.593  65.009  1.00  0.00    -0.444 A  
HETATM   36 CL   UNL     1     -12.772  11.638  63.765  1.00  0.00    -0.363 Cl 
ENDBRANCH  28  29
ENDBRANCH  27  28
ENDBRANCH  26  27
ENDBRANCH  25  26
ENDBRANCH  24  25
ENDBRANCH  23  24
ENDBRANCH  22  23
ENDBRANCH  21  22
ENDBRANCH  20  21
ENDBRANCH  19  20
ENDBRANCH  18  19
ENDBRANCH  16  18
ENDBRANCH  15  16
ENDBRANCH  12  15
ENDBRANCH  10  12
ENDBRANCH   2   4
TORSDOF 16
ENDMDL
MODEL       48
REMARK 921   NORMALIZED FREE ENERGY PREDICTED BY IDOCK:   -5.74 KCAL/MOL
REMARK 922        TOTAL FREE ENERGY PREDICTED BY IDOCK:  -13.17 KCAL/MOL
REMARK 923 INTER-LIGAND FREE ENERGY PREDICTED BY IDOCK:  -11.17 KCAL/MOL
REMARK 924 INTRA-LIGAND FREE ENERGY PREDICTED BY IDOCK:   -2.01 KCAL/MOL
REMARK 927      BINDING AFFINITY PREDICTED BY RF-SCORE:    0.00 PKD
ROOT
HETATM    1  O   UNL     1     -13.290  15.734  73.307  1.00  0.00    -0.546 OA 
HETATM    2  C   UNL     1     -14.143  14.901  72.520  1.00  0.00    -0.381 C  
HETATM    3  H   UNL     1     -13.797  16.286  73.890  1.00  0.00     0.000 HD 
ENDROOT
BRANCH   2   4
HETATM    4  C   UNL     1     -13.338  14.025  71.595  1.00  0.00    -0.442 A  
HETATM    5  C   UNL     1     -12.779  14.481  70.396  1.00  0.00    -0.322 A  
HETATM    6  O   UNL     1     -12.864  15.791  70.012  1.00  0.00    -0.588 OA 
HETATM    7  C   UNL     1     -12.103  13.621  69.536  1.00  0.00    -0.368 A  
HETATM    8  C   UNL     1     -11.966  12.274  69.866  1.00  0.00    -0.377 A  
HETATM    9  H   UNL     1     -12.485  16.100  69.198  1.00  0.00     0.000 HD 
HETATM   10  C   UNL     1     -12.510  11.777  71.059  1.00  0.00    -0.411 A  
HETATM   11  C   UNL     1     -13.204  12.660  71.905  1.00  0.00    -0.504 A  
BRANCH  10  12
HETATM   12  C   UNL     1     -12.410  10.298  71.368  1.00  0.00    -0.401 C  
HETATM   13  O   UNL     1     -13.445   9.579  70.685  1.00  0.00    -0.583 OA 
HETATM   14  H   UNL     1     -13.383   8.651  70.878  1.00  0.00     0.000 HD 
BRANCH  12  15
HETATM   15  C   UNL     1     -11.031   9.753  70.940  1.00  0.00    -0.341 C  
BRANCH  15  16
HETATM   16  N   UNL     1     -11.163   8.489  70.196  1.00  0.00    -0.406 NA 
HETATM   17  H   UNL     1     -12.134   8.183  70.132  1.00  0.00     0.000 HD 
BRANCH  16  18
HETATM   18  C   UNL     1     -10.542   8.613  68.881  1.00  0.00    -0.144 C  
BRANCH  18  19
HETATM   19  C   UNL     1      -9.394   9.617  68.935  1.00  0.00    -0.151 C  
BRANCH  19  20
HETATM   20  C   UNL     1      -9.235  10.308  67.581  1.00  0.00    -0.154 C  
BRANCH  20  21
HETATM   21  C   UNL     1     -10.570  10.841  67.076  1.00  0.00    -0.312 C  
BRANCH  21  22
HETATM   22  C   UNL     1     -10.517  11.132  65.579  1.00  0.00    -0.317 C  
BRANCH  22  23
HETATM   23  C   UNL     1     -11.279  12.407  65.254  1.00  0.00    -0.318 C  
BRANCH  23  24
HETATM   24  O   UNL     1     -10.467  13.227  64.421  1.00  0.00    -0.412 OA 
BRANCH  24  25
HETATM   25  C   UNL     1     -10.517  14.586  64.849  1.00  0.00    -0.409 C  
BRANCH  25  26
HETATM   26  C   UNL     1     -11.258  14.679  66.173  1.00  0.00    -0.341 C  
BRANCH  26  27
HETATM   27  O   UNL     1     -10.546  15.565  67.038  1.00  0.00    -0.300 OA 
BRANCH  27  28
HETATM   28  C   UNL     1      -9.351  16.034  66.430  1.00  0.00    -0.298 C  
BRANCH  28  29
HETATM   29  C   UNL     1      -8.815  17.181  67.242  1.00  0.00    -0.226 A  
HETATM   30  C   UNL     1      -9.345  18.477  67.115  1.00  0.00    -0.277 A  
HETATM   31 CL   UNL     1     -10.594  18.856  65.979  1.00  0.00    -0.507 Cl 
HETATM   32  C   UNL     1      -8.877  19.531  67.911  1.00  0.00    -0.372 A  
HETATM   33  C   UNL     1      -7.855  19.316  68.830  1.00  0.00    -0.388 A  
HETATM   34  C   UNL     1      -7.280  18.054  68.933  1.00  0.00    -0.264 A  
HETATM   35  C   UNL     1      -7.746  16.998  68.139  1.00  0.00    -0.197 A  
HETATM   36 CL   UNL     1      -6.944  15.475  68.319  1.00  0.00    -0.110 Cl 
ENDBRANCH  28  29
ENDBRANCH  27  28
ENDBRANCH  26  27
ENDBRANCH  25  26
ENDBRANCH  24  25
ENDBRANCH  23  24
ENDBRANCH  22  23
ENDBRANCH  21  22
ENDBRANCH  20  21
ENDBRANCH  19  20
ENDBRANCH  18  19
ENDBRANCH  16  18
ENDBRANCH  15  16
ENDBRANCH  12  15
ENDBRANCH  10  12
ENDBRANCH   2   4
TORSDOF 16
ENDMDL
MODEL       49
REMARK 921   NORMALIZED FREE ENERGY PREDICTED BY IDOCK:   -5.73 KCAL/MOL
REMARK 922        TOTAL FREE ENERGY PREDICTED BY IDOCK:  -13.17 KCAL/MOL
REMARK 923 INTER-LIGAND FREE ENERGY PREDICTED BY IDOCK:  -10.96 KCAL/MOL
REMARK 924 INTRA-LIGAND FREE ENERGY PREDICTED BY IDOCK:   -2.20 KCAL/MOL
REMARK 927      BINDING AFFINITY PREDICTED BY RF-SCORE:    0.00 PKD
ROOT
HETATM    1  O   UNL     1     -12.643  13.673  63.182  1.00  0.00    -0.969 OA 
HETATM    2  C   UNL     1     -12.762  13.032  64.453  1.00  0.00    -0.201 C  
HETATM    3  H   UNL     1     -13.337  13.397  62.594  1.00  0.00     0.000 HD 
ENDROOT
BRANCH   2   4
HETATM    4  C   UNL     1     -11.662  13.471  65.384  1.00  0.00    -0.351 A  
HETATM    5  C   UNL     1     -10.315  13.534  65.007  1.00  0.00    -0.362 A  
HETATM    6  O   UNL     1      -9.910  13.269  63.728  1.00  0.00    -0.641 OA 
HETATM    7  C   UNL     1      -9.321  13.875  65.919  1.00  0.00     0.017 A  
HETATM    8  C   UNL     1      -9.660  14.170  67.238  1.00  0.00    -0.234 A  
HETATM    9  H   UNL     1      -8.997  13.312  63.473  1.00  0.00     0.000 HD 
HETATM   10  C   UNL     1     -10.997  14.120  67.656  1.00  0.00    -0.278 A  
HETATM   11  C   UNL     1     -11.984  13.756  66.722  1.00  0.00    -0.465 A  
BRANCH  10  12
HETATM   12  C   UNL     1     -11.338  14.377  69.108  1.00  0.00    -0.277 C  
HETATM   13  O   UNL     1     -10.188  14.149  69.935  1.00  0.00    -0.242 OA 
HETATM   14  H   UNL     1     -10.402  14.310  70.846  1.00  0.00     0.000 HD 
BRANCH  12  15
HETATM   15  C   UNL     1     -11.830  15.828  69.296  1.00  0.00    -0.346 C  
BRANCH  15  16
HETATM   16  N   UNL     1     -13.096  15.872  70.047  1.00  0.00    -0.595 NA 
HETATM   17  H   UNL     1     -13.839  15.358  69.573  1.00  0.00     0.000 HD 
BRANCH  16  18
HETATM   18  C   UNL     1     -12.887  15.397  71.410  1.00  0.00    -0.439 C  
BRANCH  18  19
HETATM   19  C   UNL     1     -14.019  14.457  71.818  1.00  0.00    -0.537 C  
BRANCH  19  20
HETATM   20  C   UNL     1     -13.450  13.208  72.491  1.00  0.00    -0.579 C  
BRANCH  20  21
HETATM   21  C   UNL     1     -12.876  12.242  71.461  1.00  0.00    -0.384 C  
BRANCH  21  22
HETATM   22  C   UNL     1     -13.271  10.803  71.775  1.00  0.00    -0.523 C  
BRANCH  22  23
HETATM   23  C   UNL     1     -12.153   9.845  71.396  1.00  0.00    -0.413 C  
BRANCH  23  24
HETATM   24  O   UNL     1     -12.552   8.520  71.726  1.00  0.00    -0.313 OA 
BRANCH  24  25
HETATM   25  C   UNL     1     -11.649   7.940  72.665  1.00  0.00    -0.377 C  
BRANCH  25  26
HETATM   26  C   UNL     1     -10.752   6.936  71.960  1.00  0.00    -0.216 C  
BRANCH  26  27
HETATM   27  O   UNL     1     -11.054   6.948  70.565  1.00  0.00    -0.257 OA 
BRANCH  27  28
HETATM   28  C   UNL     1      -9.875   6.850  69.779  1.00  0.00    -0.171 C  
BRANCH  28  29
HETATM   29  C   UNL     1      -9.861   7.982  68.788  1.00  0.00    -0.176 A  
HETATM   30  C   UNL     1     -10.485   7.864  67.534  1.00  0.00    -0.262 A  
HETATM   31 CL   UNL     1     -11.248   6.399  67.017  1.00  0.00    -0.402 Cl 
HETATM   32  C   UNL     1     -10.512   8.939  66.635  1.00  0.00    -0.231 A  
HETATM   33  C   UNL     1      -9.898  10.143  66.963  1.00  0.00    -0.238 A  
HETATM   34  C   UNL     1      -9.229  10.264  68.177  1.00  0.00    -0.137 A  
HETATM   35  C   UNL     1      -9.200   9.190  69.077  1.00  0.00    -0.143 A  
HETATM   36 CL   UNL     1      -8.315   9.429  70.545  1.00  0.00    -0.221 Cl 
ENDBRANCH  28  29
ENDBRANCH  27  28
ENDBRANCH  26  27
ENDBRANCH  25  26
ENDBRANCH  24  25
ENDBRANCH  23  24
ENDBRANCH  22  23
ENDBRANCH  21  22
ENDBRANCH  20  21
ENDBRANCH  19  20
ENDBRANCH  18  19
ENDBRANCH  16  18
ENDBRANCH  15  16
ENDBRANCH  12  15
ENDBRANCH  10  12
ENDBRANCH   2   4
TORSDOF 16
ENDMDL
MODEL       50
REMARK 921   NORMALIZED FREE ENERGY PREDICTED BY IDOCK:   -5.71 KCAL/MOL
REMARK 922        TOTAL FREE ENERGY PREDICTED BY IDOCK:  -13.13 KCAL/MOL
REMARK 923 INTER-LIGAND FREE ENERGY PREDICTED BY IDOCK:   -9.97 KCAL/MOL
REMARK 924 INTRA-LIGAND FREE ENERGY PREDICTED BY IDOCK:   -3.16 KCAL/MOL
REMARK 927      BINDING AFFINITY PREDICTED BY RF-SCORE:    0.00 PKD
ROOT
HETATM    1  O   UNL     1     -10.006  10.014  62.346  1.00  0.00    -0.628 OA 
HETATM    2  C   UNL     1      -9.612  11.349  62.667  1.00  0.00    -0.135 C  
HETATM    3  H   UNL     1      -9.476   9.663  61.640  1.00  0.00     0.000 HD 
ENDROOT
BRANCH   2   4
HETATM    4  C   UNL     1     -10.453  11.906  63.786  1.00  0.00    -0.468 A  
HETATM    5  C   UNL     1     -11.853  11.887  63.780  1.00  0.00    -0.458 A  
HETATM    6  O   UNL     1     -12.561  11.288  62.776  1.00  0.00    -0.912 OA 
HETATM    7  C   UNL     1     -12.592  12.477  64.801  1.00  0.00    -0.493 A  
HETATM    8  C   UNL     1     -11.938  13.096  65.863  1.00  0.00    -0.479 A  
HETATM    9  H   UNL     1     -13.511  11.275  62.771  1.00  0.00     0.000 HD 
HETATM   10  C   UNL     1     -10.538  13.135  65.909  1.00  0.00    -0.290 A  
HETATM   11  C   UNL     1      -9.810  12.549  64.858  1.00  0.00    -0.095 A  
BRANCH  10  12
HETATM   12  C   UNL     1      -9.846  13.872  67.037  1.00  0.00    -0.257 C  
HETATM   13  O   UNL     1      -9.190  15.044  66.533  1.00  0.00    -0.256 OA 
HETATM   14  H   UNL     1      -8.756  15.507  67.241  1.00  0.00     0.000 HD 
BRANCH  12  15
HETATM   15  C   UNL     1     -10.868  14.276  68.120  1.00  0.00    -0.244 C  
BRANCH  15  16
HETATM   16  N   UNL     1     -10.293  14.155  69.471  1.00  0.00    -0.424 NA 
HETATM   17  H   UNL     1      -9.419  13.628  69.468  1.00  0.00     0.000 HD 
BRANCH  16  18
HETATM   18  C   UNL     1     -10.130  15.477  70.068  1.00  0.00    -0.228 C  
BRANCH  18  19
HETATM   19  C   UNL     1     -11.496  16.096  70.354  1.00  0.00    -0.344 C  
BRANCH  19  20
HETATM   20  C   UNL     1     -11.853  15.923  71.830  1.00  0.00    -0.579 C  
BRANCH  20  21
HETATM   21  C   UNL     1     -13.223  15.274  71.992  1.00  0.00    -0.499 C  
BRANCH  21  22
HETATM   22  C   UNL     1     -13.110  13.905  72.653  1.00  0.00    -0.525 C  
BRANCH  22  23
HETATM   23  C   UNL     1     -13.358  12.798  71.641  1.00  0.00    -0.254 C  
BRANCH  23  24
HETATM   24  O   UNL     1     -12.162  12.578  70.900  1.00  0.00    -0.347 OA 
BRANCH  24  25
HETATM   25  C   UNL     1     -12.304  11.452  70.037  1.00  0.00    -0.237 C  
BRANCH  25  26
HETATM   26  C   UNL     1     -11.063  10.579  70.125  1.00  0.00    -0.298 C  
BRANCH  26  27
HETATM   27  O   UNL     1     -10.210  10.878  69.020  1.00  0.00    -0.198 OA 
BRANCH  27  28
HETATM   28  C   UNL     1      -9.007  10.126  69.076  1.00  0.00    -0.167 C  
BRANCH  28  29
HETATM   29  C   UNL     1      -8.373  10.127  67.712  1.00  0.00    -0.114 A  
HETATM   30  C   UNL     1      -7.270  10.948  67.418  1.00  0.00    -0.094 A  
HETATM   31 CL   UNL     1      -6.610  12.055  68.573  1.00  0.00    -0.058 Cl 
HETATM   32  C   UNL     1      -6.652  10.906  66.161  1.00  0.00    -0.108 A  
HETATM   33  C   UNL     1      -7.138  10.063  65.168  1.00  0.00    -0.135 A  
HETATM   34  C   UNL     1      -8.261   9.282  65.420  1.00  0.00    -0.129 A  
HETATM   35  C   UNL     1      -8.881   9.322  66.676  1.00  0.00    -0.128 A  
HETATM   36 CL   UNL     1     -10.290   8.337  66.879  1.00  0.00    -0.391 Cl 
ENDBRANCH  28  29
ENDBRANCH  27  28
ENDBRANCH  26  27
ENDBRANCH  25  26
ENDBRANCH  24  25
ENDBRANCH  23  24
ENDBRANCH  22  23
ENDBRANCH  21  22
ENDBRANCH  20  21
ENDBRANCH  19  20
ENDBRANCH  18  19
ENDBRANCH  16  18
ENDBRANCH  15  16
ENDBRANCH  12  15
ENDBRANCH  10  12
ENDBRANCH   2   4
TORSDOF 16
ENDMDL
MODEL       51
REMARK 921   NORMALIZED FREE ENERGY PREDICTED BY IDOCK:   -5.71 KCAL/MOL
REMARK 922        TOTAL FREE ENERGY PREDICTED BY IDOCK:  -13.12 KCAL/MOL
REMARK 923 INTER-LIGAND FREE ENERGY PREDICTED BY IDOCK:   -9.84 KCAL/MOL
REMARK 924 INTRA-LIGAND FREE ENERGY PREDICTED BY IDOCK:   -3.28 KCAL/MOL
REMARK 927      BINDING AFFINITY PREDICTED BY RF-SCORE:    0.00 PKD
ROOT
HETATM    1  O   UNL     1     -12.319  14.115  62.962  1.00  0.00    -1.070 OA 
HETATM    2  C   UNL     1     -11.698  13.047  63.680  1.00  0.00    -0.490 C  
HETATM    3  H   UNL     1     -12.370  13.917  62.034  1.00  0.00     0.000 HD 
ENDROOT
BRANCH   2   4
HETATM    4  C   UNL     1     -11.617  13.361  65.151  1.00  0.00    -0.329 A  
HETATM    5  C   UNL     1     -11.257  14.618  65.651  1.00  0.00    -0.342 A  
HETATM    6  O   UNL     1     -11.022  15.682  64.826  1.00  0.00    -0.520 OA 
HETATM    7  C   UNL     1     -11.125  14.845  67.018  1.00  0.00    -0.338 A  
HETATM    8  C   UNL     1     -11.360  13.810  67.920  1.00  0.00    -0.328 A  
HETATM    9  H   UNL     1     -10.778  16.535  65.165  1.00  0.00     0.000 HD 
HETATM   10  C   UNL     1     -11.725  12.536  67.461  1.00  0.00    -0.439 A  
HETATM   11  C   UNL     1     -11.835  12.324  66.075  1.00  0.00    -0.409 A  
BRANCH  10  12
HETATM   12  C   UNL     1     -11.909  11.407  68.452  1.00  0.00    -0.274 C  
HETATM   13  O   UNL     1     -11.601  10.150  67.834  1.00  0.00    -0.658 OA 
HETATM   14  H   UNL     1     -11.716   9.442  68.457  1.00  0.00     0.000 HD 
BRANCH  12  15
HETATM   15  C   UNL     1     -10.999  11.618  69.681  1.00  0.00    -0.032 C  
BRANCH  15  16
HETATM   16  N   UNL     1     -11.283  10.628  70.733  1.00  0.00    -0.367 NA 
HETATM   17  H   UNL     1     -10.633  10.705  71.516  1.00  0.00     0.000 HD 
BRANCH  16  18
HETATM   18  C   UNL     1     -12.672  10.739  71.166  1.00  0.00    -0.431 C  
BRANCH  18  19
HETATM   19  C   UNL     1     -13.140   9.421  71.776  1.00  0.00    -0.488 C  
BRANCH  19  20
HETATM   20  C   UNL     1     -11.936   8.576  72.192  1.00  0.00    -0.451 C  
BRANCH  20  21
HETATM   21  C   UNL     1     -12.189   7.095  71.938  1.00  0.00    -0.358 C  
BRANCH  21  22
HETATM   22  C   UNL     1     -11.696   6.681  70.555  1.00  0.00    -0.453 C  
BRANCH  22  23
HETATM   23  C   UNL     1     -10.408   5.880  70.663  1.00  0.00    -0.235 C  
BRANCH  23  24
HETATM   24  O   UNL     1      -9.971   5.536  69.353  1.00  0.00    -0.173 OA 
BRANCH  24  25
HETATM   25  C   UNL     1     -10.848   6.082  68.369  1.00  0.00    -0.281 C  
BRANCH  25  26
HETATM   26  C   UNL     1     -10.038   6.811  67.310  1.00  0.00    -0.182 C  
BRANCH  26  27
HETATM   27  O   UNL     1      -9.591   8.056  67.847  1.00  0.00    -0.149 OA 
BRANCH  27  28
HETATM   28  C   UNL     1      -8.263   8.349  67.439  1.00  0.00    -0.120 C  
BRANCH  28  29
HETATM   29  C   UNL     1      -8.044   9.834  67.540  1.00  0.00    -0.114 A  
HETATM   30  C   UNL     1      -8.355  10.693  66.471  1.00  0.00    -0.143 A  
HETATM   31 CL   UNL     1      -8.943  10.104  64.954  1.00  0.00    -0.206 Cl 
HETATM   32  C   UNL     1      -8.198  12.081  66.590  1.00  0.00    -0.056 A  
HETATM   33  C   UNL     1      -7.705  12.633  67.767  1.00  0.00    -0.145 A  
HETATM   34  C   UNL     1      -7.340  11.797  68.817  1.00  0.00    -0.114 A  
HETATM   35  C   UNL     1      -7.497  10.409  68.701  1.00  0.00    -0.088 A  
HETATM   36 CL   UNL     1      -6.984   9.453  70.050  1.00  0.00    -0.061 Cl 
ENDBRANCH  28  29
ENDBRANCH  27  28
ENDBRANCH  26  27
ENDBRANCH  25  26
ENDBRANCH  24  25
ENDBRANCH  23  24
ENDBRANCH  22  23
ENDBRANCH  21  22
ENDBRANCH  20  21
ENDBRANCH  19  20
ENDBRANCH  18  19
ENDBRANCH  16  18
ENDBRANCH  15  16
ENDBRANCH  12  15
ENDBRANCH  10  12
ENDBRANCH   2   4
TORSDOF 16
ENDMDL
MODEL       52
REMARK 921   NORMALIZED FREE ENERGY PREDICTED BY IDOCK:   -5.70 KCAL/MOL
REMARK 922        TOTAL FREE ENERGY PREDICTED BY IDOCK:  -13.10 KCAL/MOL
REMARK 923 INTER-LIGAND FREE ENERGY PREDICTED BY IDOCK:  -10.75 KCAL/MOL
REMARK 924 INTRA-LIGAND FREE ENERGY PREDICTED BY IDOCK:   -2.35 KCAL/MOL
REMARK 927      BINDING AFFINITY PREDICTED BY RF-SCORE:    0.00 PKD
ROOT
HETATM    1  O   UNL     1     -10.724   9.197  70.739  1.00  0.00    -0.223 OA 
HETATM    2  C   UNL     1     -11.357  10.077  69.809  1.00  0.00    -0.228 C  
HETATM    3  H   UNL     1     -10.321   8.461  70.292  1.00  0.00     0.000 HD 
ENDROOT
BRANCH   2   4
HETATM    4  C   UNL     1     -11.996  11.243  70.518  1.00  0.00    -0.467 A  
HETATM    5  C   UNL     1     -12.843  11.102  71.622  1.00  0.00    -0.419 A  
HETATM    6  O   UNL     1     -13.095   9.882  72.187  1.00  0.00    -0.427 OA 
HETATM    7  C   UNL     1     -13.470  12.201  72.203  1.00  0.00    -0.383 A  
HETATM    8  C   UNL     1     -13.251  13.477  71.688  1.00  0.00    -0.449 A  
HETATM    9  H   UNL     1     -13.670   9.786  72.937  1.00  0.00     0.000 HD 
HETATM   10  C   UNL     1     -12.408  13.662  70.584  1.00  0.00    -0.440 A  
HETATM   11  C   UNL     1     -11.799  12.536  70.001  1.00  0.00    -0.363 A  
BRANCH  10  12
HETATM   12  C   UNL     1     -12.237  15.047  69.996  1.00  0.00    -0.328 C  
HETATM   13  O   UNL     1     -13.274  15.918  70.471  1.00  0.00    -0.739 OA 
HETATM   14  H   UNL     1     -13.166  16.787  70.103  1.00  0.00     0.000 HD 
BRANCH  12  15
HETATM   15  C   UNL     1     -10.859  15.626  70.379  1.00  0.00    -0.340 C  
BRANCH  15  16
HETATM   16  N   UNL     1     -10.133  16.110  69.193  1.00  0.00    -0.238 NA 
HETATM   17  H   UNL     1     -10.397  15.601  68.349  1.00  0.00     0.000 HD 
BRANCH  16  18
HETATM   18  C   UNL     1     -10.320  17.549  69.042  1.00  0.00    -0.303 C  
BRANCH  18  19
HETATM   19  C   UNL     1     -10.771  17.875  67.621  1.00  0.00    -0.343 C  
BRANCH  19  20
HETATM   20  C   UNL     1     -10.629  19.373  67.353  1.00  0.00    -0.603 C  
BRANCH  20  21
HETATM   21  C   UNL     1      -9.279  19.891  67.834  1.00  0.00    -0.423 C  
BRANCH  21  22
HETATM   22  C   UNL     1      -8.451  20.435  66.674  1.00  0.00    -0.232 C  
BRANCH  22  23
HETATM   23  C   UNL     1      -7.233  19.560  66.428  1.00  0.00    -0.241 C  
BRANCH  23  24
HETATM   24  O   UNL     1      -7.349  18.380  67.217  1.00  0.00    -0.209 OA 
BRANCH  24  25
HETATM   25  C   UNL     1      -7.131  17.218  66.421  1.00  0.00    -0.277 C  
BRANCH  25  26
HETATM   26  C   UNL     1      -7.065  15.990  67.314  1.00  0.00    -0.203 C  
BRANCH  26  27
HETATM   27  O   UNL     1      -8.292  15.270  67.198  1.00  0.00    -0.183 OA 
BRANCH  27  28
HETATM   28  C   UNL     1      -8.814  15.345  65.880  1.00  0.00     0.110 C  
BRANCH  28  29
HETATM   29  C   UNL     1     -10.038  14.474  65.795  1.00  0.00    -0.365 A  
HETATM   30  C   UNL     1     -10.055  13.181  66.348  1.00  0.00    -0.281 A  
HETATM   31 CL   UNL     1      -8.662  12.479  67.098  1.00  0.00    -0.194 Cl 
HETATM   32  C   UNL     1     -11.214  12.394  66.311  1.00  0.00    -0.361 A  
HETATM   33  C   UNL     1     -12.368  12.874  65.702  1.00  0.00    -0.482 A  
HETATM   34  C   UNL     1     -12.357  14.129  65.102  1.00  0.00    -0.460 A  
HETATM   35  C   UNL     1     -11.200  14.917  65.137  1.00  0.00    -0.386 A  
HETATM   36 CL   UNL     1     -11.277  16.449  64.335  1.00  0.00    -0.269 Cl 
ENDBRANCH  28  29
ENDBRANCH  27  28
ENDBRANCH  26  27
ENDBRANCH  25  26
ENDBRANCH  24  25
ENDBRANCH  23  24
ENDBRANCH  22  23
ENDBRANCH  21  22
ENDBRANCH  20  21
ENDBRANCH  19  20
ENDBRANCH  18  19
ENDBRANCH  16  18
ENDBRANCH  15  16
ENDBRANCH  12  15
ENDBRANCH  10  12
ENDBRANCH   2   4
TORSDOF 16
ENDMDL
MODEL       53
REMARK 921   NORMALIZED FREE ENERGY PREDICTED BY IDOCK:   -5.69 KCAL/MOL
REMARK 922        TOTAL FREE ENERGY PREDICTED BY IDOCK:  -13.09 KCAL/MOL
REMARK 923 INTER-LIGAND FREE ENERGY PREDICTED BY IDOCK:  -10.99 KCAL/MOL
REMARK 924 INTRA-LIGAND FREE ENERGY PREDICTED BY IDOCK:   -2.10 KCAL/MOL
REMARK 927      BINDING AFFINITY PREDICTED BY RF-SCORE:    0.00 PKD
ROOT
HETATM    1  O   UNL     1     -11.546  16.492  63.880  1.00  0.00    -1.598 OA 
HETATM    2  C   UNL     1     -10.926  15.634  64.838  1.00  0.00    -0.431 C  
HETATM    3  H   UNL     1     -11.290  17.396  64.015  1.00  0.00     0.000 HD 
ENDROOT
BRANCH   2   4
HETATM    4  C   UNL     1     -11.334  14.199  64.622  1.00  0.00    -0.374 A  
HETATM    5  C   UNL     1     -12.589  13.694  64.979  1.00  0.00    -0.390 A  
HETATM    6  O   UNL     1     -13.571  14.496  65.489  1.00  0.00    -0.468 OA 
HETATM    7  C   UNL     1     -12.899  12.345  64.828  1.00  0.00    -0.185 A  
HETATM    8  C   UNL     1     -11.952  11.469  64.304  1.00  0.00    -0.047 A  
HETATM    9  H   UNL     1     -14.423  14.154  65.732  1.00  0.00     0.000 HD 
HETATM   10  C   UNL     1     -10.683  11.935  63.932  1.00  0.00    -0.450 A  
HETATM   11  C   UNL     1     -10.384  13.298  64.109  1.00  0.00    -0.204 A  
BRANCH  10  12
HETATM   12  C   UNL     1      -9.644  10.956  63.428  1.00  0.00    -0.332 C  
HETATM   13  O   UNL     1      -8.481  11.660  62.969  1.00  0.00    -0.425 OA 
HETATM   14  H   UNL     1      -7.829  11.046  62.653  1.00  0.00     0.000 HD 
BRANCH  12  15
HETATM   15  C   UNL     1      -9.245   9.973  64.548  1.00  0.00    -0.262 C  
BRANCH  15  16
HETATM   16  N   UNL     1      -8.477   8.835  64.015  1.00  0.00    -0.332 NA 
HETATM   17  H   UNL     1      -7.617   9.136  63.556  1.00  0.00     0.000 HD 
BRANCH  16  18
HETATM   18  C   UNL     1      -8.220   7.863  65.072  1.00  0.00    -0.131 C  
BRANCH  18  19
HETATM   19  C   UNL     1      -9.318   7.933  66.130  1.00  0.00    -0.188 C  
BRANCH  19  20
HETATM   20  C   UNL     1      -9.071   6.887  67.216  1.00  0.00    -0.127 C  
BRANCH  20  21
HETATM   21  C   UNL     1      -9.392   7.442  68.598  1.00  0.00    -0.139 C  
BRANCH  21  22
HETATM   22  C   UNL     1      -9.677   6.320  69.591  1.00  0.00    -0.175 C  
BRANCH  22  23
HETATM   23  C   UNL     1     -11.129   6.356  70.039  1.00  0.00    -0.379 C  
BRANCH  23  24
HETATM   24  O   UNL     1     -11.447   7.679  70.459  1.00  0.00    -0.274 OA 
BRANCH  24  25
HETATM   25  C   UNL     1     -11.839   7.693  71.829  1.00  0.00    -0.290 C  
BRANCH  25  26
HETATM   26  C   UNL     1     -12.291   9.090  72.219  1.00  0.00    -0.332 C  
BRANCH  26  27
HETATM   27  O   UNL     1     -11.832  10.015  71.233  1.00  0.00    -0.354 OA 
BRANCH  27  28
HETATM   28  C   UNL     1     -12.866  10.906  70.837  1.00  0.00    -0.326 C  
BRANCH  28  29
HETATM   29  C   UNL     1     -12.242  12.103  70.173  1.00  0.00    -0.308 A  
HETATM   30  C   UNL     1     -12.322  13.383  70.750  1.00  0.00    -0.354 A  
HETATM   31 CL   UNL     1     -13.193  13.682  72.216  1.00  0.00    -0.541 Cl 
HETATM   32  C   UNL     1     -11.696  14.486  70.154  1.00  0.00    -0.357 A  
HETATM   33  C   UNL     1     -10.999  14.335  68.959  1.00  0.00    -0.282 A  
HETATM   34  C   UNL     1     -10.953  13.088  68.344  1.00  0.00    -0.288 A  
HETATM   35  C   UNL     1     -11.578  11.985  68.939  1.00  0.00    -0.321 A  
HETATM   36 CL   UNL     1     -11.491  10.485  68.079  1.00  0.00    -0.321 Cl 
ENDBRANCH  28  29
ENDBRANCH  27  28
ENDBRANCH  26  27
ENDBRANCH  25  26
ENDBRANCH  24  25
ENDBRANCH  23  24
ENDBRANCH  22  23
ENDBRANCH  21  22
ENDBRANCH  20  21
ENDBRANCH  19  20
ENDBRANCH  18  19
ENDBRANCH  16  18
ENDBRANCH  15  16
ENDBRANCH  12  15
ENDBRANCH  10  12
ENDBRANCH   2   4
TORSDOF 16
ENDMDL
MODEL       54
REMARK 921   NORMALIZED FREE ENERGY PREDICTED BY IDOCK:   -5.69 KCAL/MOL
REMARK 922        TOTAL FREE ENERGY PREDICTED BY IDOCK:  -13.08 KCAL/MOL
REMARK 923 INTER-LIGAND FREE ENERGY PREDICTED BY IDOCK:  -10.41 KCAL/MOL
REMARK 924 INTRA-LIGAND FREE ENERGY PREDICTED BY IDOCK:   -2.67 KCAL/MOL
REMARK 927      BINDING AFFINITY PREDICTED BY RF-SCORE:    0.00 PKD
ROOT
HETATM    1  O   UNL     1     -10.480  16.920  65.224  1.00  0.00    -0.638 OA 
HETATM    2  C   UNL     1      -9.855  16.647  66.479  1.00  0.00    -0.281 C  
HETATM    3  H   UNL     1     -10.001  17.583  64.741  1.00  0.00     0.000 HD 
ENDROOT
BRANCH   2   4
HETATM    4  C   UNL     1     -10.615  15.596  67.245  1.00  0.00    -0.305 A  
HETATM    5  C   UNL     1     -11.052  14.394  66.675  1.00  0.00    -0.326 A  
HETATM    6  O   UNL     1     -10.750  14.056  65.385  1.00  0.00    -0.306 OA 
HETATM    7  C   UNL     1     -11.814  13.482  67.399  1.00  0.00    -0.423 A  
HETATM    8  C   UNL     1     -12.150  13.753  68.723  1.00  0.00    -0.344 A  
HETATM    9  H   UNL     1     -11.046  13.241  64.998  1.00  0.00     0.000 HD 
HETATM   10  C   UNL     1     -11.731  14.944  69.332  1.00  0.00    -0.349 A  
HETATM   11  C   UNL     1     -10.978  15.861  68.577  1.00  0.00    -0.324 A  
BRANCH  10  12
HETATM   12  C   UNL     1     -12.164  15.253  70.750  1.00  0.00    -0.360 C  
HETATM   13  O   UNL     1     -11.589  16.492  71.185  1.00  0.00    -0.612 OA 
HETATM   14  H   UNL     1     -11.861  16.686  72.074  1.00  0.00     0.000 HD 
BRANCH  12  15
HETATM   15  C   UNL     1     -13.703  15.338  70.834  1.00  0.00    -0.293 C  
BRANCH  15  16
HETATM   16  N   UNL     1     -14.227  14.498  71.924  1.00  0.00    -0.496 NA 
HETATM   17  H   UNL     1     -15.096  14.032  71.663  1.00  0.00     0.000 HD 
BRANCH  16  18
HETATM   18  C   UNL     1     -13.209  13.548  72.360  1.00  0.00    -0.477 C  
BRANCH  18  19
HETATM   19  C   UNL     1     -13.669  12.120  72.083  1.00  0.00    -0.145 C  
BRANCH  19  20
HETATM   20  C   UNL     1     -12.603  11.368  71.287  1.00  0.00    -0.480 C  
BRANCH  20  21
HETATM   21  C   UNL     1     -13.123  10.017  70.810  1.00  0.00    -0.316 C  
BRANCH  21  22
HETATM   22  C   UNL     1     -13.376   9.077  71.984  1.00  0.00    -0.494 C  
BRANCH  22  23
HETATM   23  C   UNL     1     -14.134   7.841  71.528  1.00  0.00    -0.404 C  
BRANCH  23  24
HETATM   24  O   UNL     1     -13.473   6.686  72.033  1.00  0.00    -0.168 OA 
BRANCH  24  25
HETATM   25  C   UNL     1     -12.095   6.960  72.279  1.00  0.00    -0.176 C  
BRANCH  25  26
HETATM   26  C   UNL     1     -11.235   5.901  71.609  1.00  0.00    -0.237 C  
BRANCH  26  27
HETATM   27  O   UNL     1     -11.229   6.136  70.201  1.00  0.00    -0.351 OA 
BRANCH  27  28
HETATM   28  C   UNL     1      -9.923   6.443  69.733  1.00  0.00    -0.166 C  
BRANCH  28  29
HETATM   29  C   UNL     1      -9.983   7.719  68.939  1.00  0.00    -0.185 A  
HETATM   30  C   UNL     1     -10.273   7.712  67.563  1.00  0.00    -0.227 A  
HETATM   31 CL   UNL     1     -10.512   6.244  66.678  1.00  0.00    -0.274 Cl 
HETATM   32  C   UNL     1     -10.378   8.908  66.840  1.00  0.00    -0.332 A  
HETATM   33  C   UNL     1     -10.172  10.130  67.472  1.00  0.00    -0.257 A  
HETATM   34  C   UNL     1      -9.832  10.157  68.820  1.00  0.00    -0.180 A  
HETATM   35  C   UNL     1      -9.726   8.963  69.545  1.00  0.00    -0.173 A  
HETATM   36 CL   UNL     1      -9.267   9.100  71.208  1.00  0.00    -0.306 Cl 
ENDBRANCH  28  29
ENDBRANCH  27  28
ENDBRANCH  26  27
ENDBRANCH  25  26
ENDBRANCH  24  25
ENDBRANCH  23  24
ENDBRANCH  22  23
ENDBRANCH  21  22
ENDBRANCH  20  21
ENDBRANCH  19  20
ENDBRANCH  18  19
ENDBRANCH  16  18
ENDBRANCH  15  16
ENDBRANCH  12  15
ENDBRANCH  10  12
ENDBRANCH   2   4
TORSDOF 16
ENDMDL
MODEL       55
REMARK 921   NORMALIZED FREE ENERGY PREDICTED BY IDOCK:   -5.68 KCAL/MOL
REMARK 922        TOTAL FREE ENERGY PREDICTED BY IDOCK:  -13.07 KCAL/MOL
REMARK 923 INTER-LIGAND FREE ENERGY PREDICTED BY IDOCK:  -10.76 KCAL/MOL
REMARK 924 INTRA-LIGAND FREE ENERGY PREDICTED BY IDOCK:   -2.31 KCAL/MOL
REMARK 927      BINDING AFFINITY PREDICTED BY RF-SCORE:    0.00 PKD
ROOT
HETATM    1  O   UNL     1      -8.116  13.855  68.686  1.00  0.00    -0.158 OA 
HETATM    2  C   UNL     1      -8.660  15.110  69.096  1.00  0.00    -0.218 C  
HETATM    3  H   UNL     1      -8.795  13.195  68.617  1.00  0.00     0.000 HD 
ENDROOT
BRANCH   2   4
HETATM    4  C   UNL     1      -7.582  16.157  69.205  1.00  0.00    -0.218 A  
HETATM    5  C   UNL     1      -6.367  15.944  69.866  1.00  0.00    -0.138 A  
HETATM    6  O   UNL     1      -6.040  14.730  70.404  1.00  0.00    -0.155 OA 
HETATM    7  C   UNL     1      -5.428  16.962  70.006  1.00  0.00    -0.209 A  
HETATM    8  C   UNL     1      -5.686  18.223  69.473  1.00  0.00    -0.235 A  
HETATM    9  H   UNL     1      -5.216  14.585  70.852  1.00  0.00     0.000 HD 
HETATM   10  C   UNL     1      -6.890  18.477  68.802  1.00  0.00    -0.287 A  
HETATM   11  C   UNL     1      -7.833  17.440  68.688  1.00  0.00    -0.274 A  
BRANCH  10  12
HETATM   12  C   UNL     1      -7.182  19.873  68.291  1.00  0.00    -0.299 C  
HETATM   13  O   UNL     1      -6.149  20.778  68.704  1.00  0.00    -0.333 OA 
HETATM   14  H   UNL     1      -6.331  21.653  68.383  1.00  0.00     0.000 HD 
BRANCH  12  15
HETATM   15  C   UNL     1      -7.282  19.869  66.751  1.00  0.00    -0.233 C  
BRANCH  15  16
HETATM   16  N   UNL     1      -8.459  20.624  66.289  1.00  0.00    -0.444 NA 
HETATM   17  H   UNL     1      -8.531  20.634  65.271  1.00  0.00     0.000 HD 
BRANCH  16  18
HETATM   18  C   UNL     1      -9.668  20.102  66.916  1.00  0.00    -0.445 C  
BRANCH  18  19
HETATM   19  C   UNL     1     -10.392  19.159  65.959  1.00  0.00    -0.538 C  
BRANCH  19  20
HETATM   20  C   UNL     1     -10.576  17.789  66.610  1.00  0.00    -0.224 C  
BRANCH  20  21
HETATM   21  C   UNL     1      -9.974  16.685  65.747  1.00  0.00    -0.271 C  
BRANCH  21  22
HETATM   22  C   UNL     1     -11.040  16.017  64.885  1.00  0.00    -0.381 C  
BRANCH  22  23
HETATM   23  C   UNL     1     -10.860  14.507  64.885  1.00  0.00    -0.421 C  
BRANCH  23  24
HETATM   24  O   UNL     1     -10.143  14.131  66.056  1.00  0.00    -0.294 OA 
BRANCH  24  25
HETATM   25  C   UNL     1     -10.585  12.862  66.533  1.00  0.00    -0.259 C  
BRANCH  25  26
HETATM   26  C   UNL     1     -12.008  12.978  67.053  1.00  0.00    -0.347 C  
BRANCH  26  27
HETATM   27  O   UNL     1     -12.126  12.206  68.249  1.00  0.00    -0.407 OA 
BRANCH  27  28
HETATM   28  C   UNL     1     -11.333  12.748  69.295  1.00  0.00    -0.247 C  
BRANCH  28  29
HETATM   29  C   UNL     1     -12.241  13.421  70.288  1.00  0.00    -0.405 A  
HETATM   30  C   UNL     1     -12.866  12.695  71.317  1.00  0.00    -0.250 A  
HETATM   31 CL   UNL     1     -12.693  10.980  71.474  1.00  0.00    -0.526 Cl 
HETATM   32  C   UNL     1     -13.670  13.336  72.270  1.00  0.00    -0.686 A  
HETATM   33  C   UNL     1     -13.883  14.709  72.198  1.00  0.00    -0.569 A  
HETATM   34  C   UNL     1     -13.317  15.437  71.157  1.00  0.00    -0.580 A  
HETATM   35  C   UNL     1     -12.513  14.799  70.204  1.00  0.00    -0.309 A  
HETATM   36 CL   UNL     1     -11.883  15.787  68.930  1.00  0.00    -0.398 Cl 
ENDBRANCH  28  29
ENDBRANCH  27  28
ENDBRANCH  26  27
ENDBRANCH  25  26
ENDBRANCH  24  25
ENDBRANCH  23  24
ENDBRANCH  22  23
ENDBRANCH  21  22
ENDBRANCH  20  21
ENDBRANCH  19  20
ENDBRANCH  18  19
ENDBRANCH  16  18
ENDBRANCH  15  16
ENDBRANCH  12  15
ENDBRANCH  10  12
ENDBRANCH   2   4
TORSDOF 16
ENDMDL
MODEL       56
REMARK 921   NORMALIZED FREE ENERGY PREDICTED BY IDOCK:   -5.68 KCAL/MOL
REMARK 922        TOTAL FREE ENERGY PREDICTED BY IDOCK:  -13.06 KCAL/MOL
REMARK 923 INTER-LIGAND FREE ENERGY PREDICTED BY IDOCK:  -10.19 KCAL/MOL
REMARK 924 INTRA-LIGAND FREE ENERGY PREDICTED BY IDOCK:   -2.86 KCAL/MOL
REMARK 927      BINDING AFFINITY PREDICTED BY RF-SCORE:    0.00 PKD
ROOT
HETATM    1  O   UNL     1     -13.674   6.497  72.029  1.00  0.00    -0.415 OA 
HETATM    2  C   UNL     1     -12.376   7.050  71.804  1.00  0.00    -0.354 C  
HETATM    3  H   UNL     1     -13.624   5.561  72.182  1.00  0.00     0.000 HD 
ENDROOT
BRANCH   2   4
HETATM    4  C   UNL     1     -12.456   8.535  71.562  1.00  0.00    -0.353 A  
HETATM    5  C   UNL     1     -13.252   9.397  72.324  1.00  0.00    -0.446 A  
HETATM    6  O   UNL     1     -13.965   8.955  73.403  1.00  0.00    -1.236 OA 
HETATM    7  C   UNL     1     -13.353  10.752  72.021  1.00  0.00    -0.403 A  
HETATM    8  C   UNL     1     -12.644  11.276  70.942  1.00  0.00    -0.467 A  
HETATM    9  H   UNL     1     -14.505   9.540  73.921  1.00  0.00     0.000 HD 
HETATM   10  C   UNL     1     -11.834  10.447  70.154  1.00  0.00    -0.379 A  
HETATM   11  C   UNL     1     -11.761   9.078  70.466  1.00  0.00    -0.160 A  
BRANCH  10  12
HETATM   12  C   UNL     1     -11.127  11.022  68.944  1.00  0.00    -0.239 C  
HETATM   13  O   UNL     1     -11.618  10.407  67.745  1.00  0.00    -0.654 OA 
HETATM   14  H   UNL     1     -11.174  10.767  66.986  1.00  0.00     0.000 HD 
BRANCH  12  15
HETATM   15  C   UNL     1     -11.345  12.547  68.870  1.00  0.00    -0.297 C  
BRANCH  15  16
HETATM   16  N   UNL     1     -12.132  12.919  67.683  1.00  0.00    -0.307 NA 
HETATM   17  H   UNL     1     -13.125  12.721  67.805  1.00  0.00     0.000 HD 
BRANCH  16  18
HETATM   18  C   UNL     1     -11.894  14.317  67.339  1.00  0.00    -0.409 C  
BRANCH  18  19
HETATM   19  C   UNL     1     -11.568  14.444  65.853  1.00  0.00    -0.361 C  
BRANCH  19  20
HETATM   20  C   UNL     1     -12.563  13.633  65.024  1.00  0.00    -0.434 C  
BRANCH  20  21
HETATM   21  C   UNL     1     -11.874  12.954  63.847  1.00  0.00    -0.541 C  
BRANCH  21  22
HETATM   22  C   UNL     1     -11.075  11.737  64.302  1.00  0.00    -0.420 C  
BRANCH  22  23
HETATM   23  C   UNL     1     -10.083  11.316  63.229  1.00  0.00    -0.386 C  
BRANCH  23  24
HETATM   24  O   UNL     1      -9.317  10.220  63.718  1.00  0.00    -0.255 OA 
BRANCH  24  25
HETATM   25  C   UNL     1      -9.439  10.112  65.134  1.00  0.00    -0.260 C  
BRANCH  25  26
HETATM   26  C   UNL     1      -9.330   8.653  65.548  1.00  0.00    -0.035 C  
BRANCH  26  27
HETATM   27  O   UNL     1      -9.426   8.569  66.970  1.00  0.00    -0.153 OA 
BRANCH  27  28
HETATM   28  C   UNL     1      -8.371   7.789  67.515  1.00  0.00    -0.120 C  
BRANCH  28  29
HETATM   29  C   UNL     1      -8.406   7.911  69.014  1.00  0.00    -0.130 A  
HETATM   30  C   UNL     1      -8.827   6.842  69.825  1.00  0.00    -0.141 A  
HETATM   31 CL   UNL     1      -9.395   5.348  69.161  1.00  0.00    -0.146 Cl 
HETATM   32  C   UNL     1      -8.808   6.944  71.222  1.00  0.00    -0.135 A  
HETATM   33  C   UNL     1      -8.391   8.121  71.834  1.00  0.00    -0.187 A  
HETATM   34  C   UNL     1      -8.021   9.209  71.050  1.00  0.00    -0.166 A  
HETATM   35  C   UNL     1      -8.039   9.110  69.652  1.00  0.00    -0.106 A  
HETATM   36 CL   UNL     1      -7.593  10.527  68.766  1.00  0.00    -0.093 Cl 
ENDBRANCH  28  29
ENDBRANCH  27  28
ENDBRANCH  26  27
ENDBRANCH  25  26
ENDBRANCH  24  25
ENDBRANCH  23  24
ENDBRANCH  22  23
ENDBRANCH  21  22
ENDBRANCH  20  21
ENDBRANCH  19  20
ENDBRANCH  18  19
ENDBRANCH  16  18
ENDBRANCH  15  16
ENDBRANCH  12  15
ENDBRANCH  10  12
ENDBRANCH   2   4
TORSDOF 16
ENDMDL
MODEL       57
REMARK 921   NORMALIZED FREE ENERGY PREDICTED BY IDOCK:   -5.67 KCAL/MOL
REMARK 922        TOTAL FREE ENERGY PREDICTED BY IDOCK:  -13.05 KCAL/MOL
REMARK 923 INTER-LIGAND FREE ENERGY PREDICTED BY IDOCK:  -11.22 KCAL/MOL
REMARK 924 INTRA-LIGAND FREE ENERGY PREDICTED BY IDOCK:   -1.83 KCAL/MOL
REMARK 927      BINDING AFFINITY PREDICTED BY RF-SCORE:    0.00 PKD
ROOT
HETATM    1  O   UNL     1     -11.712  16.427  63.729  1.00  0.00    -1.553 OA 
HETATM    2  C   UNL     1     -10.690  16.243  64.710  1.00  0.00    -0.126 C  
HETATM    3  H   UNL     1     -11.430  17.030  63.052  1.00  0.00     0.000 HD 
ENDROOT
BRANCH   2   4
HETATM    4  C   UNL     1     -11.138  15.286  65.784  1.00  0.00    -0.301 A  
HETATM    5  C   UNL     1     -11.967  14.186  65.537  1.00  0.00    -0.391 A  
HETATM    6  O   UNL     1     -12.374  13.858  64.274  1.00  0.00    -0.586 OA 
HETATM    7  C   UNL     1     -12.415  13.368  66.570  1.00  0.00    -0.255 A  
HETATM    8  C   UNL     1     -12.031  13.633  67.883  1.00  0.00    -0.382 A  
HETATM    9  H   UNL     1     -12.936  13.112  64.106  1.00  0.00     0.000 HD 
HETATM   10  C   UNL     1     -11.200  14.724  68.173  1.00  0.00    -0.307 A  
HETATM   11  C   UNL     1     -10.773  15.549  67.116  1.00  0.00    -0.315 A  
BRANCH  10  12
HETATM   12  C   UNL     1     -10.850  15.037  69.612  1.00  0.00    -0.271 C  
HETATM   13  O   UNL     1      -9.426  15.072  69.779  1.00  0.00    -0.444 OA 
HETATM   14  H   UNL     1      -9.206  15.268  70.682  1.00  0.00     0.000 HD 
BRANCH  12  15
HETATM   15  C   UNL     1     -11.453  16.395  70.028  1.00  0.00    -0.085 C  
BRANCH  15  16
HETATM   16  N   UNL     1     -11.861  16.389  71.444  1.00  0.00    -0.648 NA 
HETATM   17  H   UNL     1     -12.696  16.953  71.603  1.00  0.00     0.000 HD 
BRANCH  16  18
HETATM   18  C   UNL     1     -12.032  15.018  71.911  1.00  0.00    -0.382 C  
BRANCH  18  19
HETATM   19  C   UNL     1     -13.486  14.777  72.310  1.00  0.00    -0.510 C  
BRANCH  19  20
HETATM   20  C   UNL     1     -13.795  13.280  72.291  1.00  0.00    -0.637 C  
BRANCH  20  21
HETATM   21  C   UNL     1     -12.712  12.504  71.550  1.00  0.00    -0.325 C  
BRANCH  21  22
HETATM   22  C   UNL     1     -12.983  11.003  71.592  1.00  0.00    -0.561 C  
BRANCH  22  23
HETATM   23  C   UNL     1     -12.579  10.350  70.280  1.00  0.00    -0.192 C  
BRANCH  23  24
HETATM   24  O   UNL     1     -11.384  10.965  69.810  1.00  0.00    -0.256 OA 
BRANCH  24  25
HETATM   25  C   UNL     1     -10.762  10.160  68.812  1.00  0.00    -0.220 C  
BRANCH  25  26
HETATM   26  C   UNL     1      -9.285   9.996  69.133  1.00  0.00    -0.190 C  
BRANCH  26  27
HETATM   27  O   UNL     1      -9.152   9.592  70.496  1.00  0.00    -0.247 OA 
BRANCH  27  28
HETATM   28  C   UNL     1      -8.676   8.258  70.597  1.00  0.00    -0.138 C  
BRANCH  28  29
HETATM   29  C   UNL     1      -9.219   7.646  71.859  1.00  0.00    -0.167 A  
HETATM   30  C   UNL     1      -8.473   7.643  73.050  1.00  0.00    -0.144 A  
HETATM   31 CL   UNL     1      -6.865   8.278  73.134  1.00  0.00    -0.128 Cl 
HETATM   32  C   UNL     1      -9.005   7.118  74.236  1.00  0.00    -0.250 A  
HETATM   33  C   UNL     1     -10.281   6.564  74.247  1.00  0.00    -0.373 A  
HETATM   34  C   UNL     1     -11.015   6.507  73.066  1.00  0.00    -0.270 A  
HETATM   35  C   UNL     1     -10.485   7.032  71.880  1.00  0.00    -0.200 A  
HETATM   36 CL   UNL     1     -11.462   6.884  70.459  1.00  0.00    -0.367 Cl 
ENDBRANCH  28  29
ENDBRANCH  27  28
ENDBRANCH  26  27
ENDBRANCH  25  26
ENDBRANCH  24  25
ENDBRANCH  23  24
ENDBRANCH  22  23
ENDBRANCH  21  22
ENDBRANCH  20  21
ENDBRANCH  19  20
ENDBRANCH  18  19
ENDBRANCH  16  18
ENDBRANCH  15  16
ENDBRANCH  12  15
ENDBRANCH  10  12
ENDBRANCH   2   4
TORSDOF 16
ENDMDL
MODEL       58
REMARK 921   NORMALIZED FREE ENERGY PREDICTED BY IDOCK:   -5.66 KCAL/MOL
REMARK 922        TOTAL FREE ENERGY PREDICTED BY IDOCK:  -13.02 KCAL/MOL
REMARK 923 INTER-LIGAND FREE ENERGY PREDICTED BY IDOCK:  -10.71 KCAL/MOL
REMARK 924 INTRA-LIGAND FREE ENERGY PREDICTED BY IDOCK:   -2.31 KCAL/MOL
REMARK 927      BINDING AFFINITY PREDICTED BY RF-SCORE:    0.00 PKD
ROOT
HETATM    1  O   UNL     1     -10.765   9.341  71.157  1.00  0.00    -0.278 OA 
HETATM    2  C   UNL     1     -11.501  10.065  70.170  1.00  0.00    -0.277 C  
HETATM    3  H   UNL     1     -10.332   8.587  70.775  1.00  0.00     0.000 HD 
ENDROOT
BRANCH   2   4
HETATM    4  C   UNL     1     -12.188  11.261  70.777  1.00  0.00    -0.479 A  
HETATM    5  C   UNL     1     -13.121  11.167  71.816  1.00  0.00    -0.431 A  
HETATM    6  O   UNL     1     -13.423   9.973  72.409  1.00  0.00    -0.616 OA 
HETATM    7  C   UNL     1     -13.785  12.291  72.299  1.00  0.00    -0.193 A  
HETATM    8  C   UNL     1     -13.520  13.544  71.751  1.00  0.00    -0.461 A  
HETATM    9  H   UNL     1     -14.056   9.910  73.114  1.00  0.00     0.000 HD 
HETATM   10  C   UNL     1     -12.591  13.681  70.710  1.00  0.00    -0.397 A  
HETATM   11  C   UNL     1     -11.944  12.531  70.225  1.00  0.00    -0.364 A  
BRANCH  10  12
HETATM   12  C   UNL     1     -12.367  15.041  70.081  1.00  0.00    -0.333 C  
HETATM   13  O   UNL     1     -13.449  15.923  70.410  1.00  0.00    -0.690 OA 
HETATM   14  H   UNL     1     -13.308  16.775  70.016  1.00  0.00     0.000 HD 
BRANCH  12  15
HETATM   15  C   UNL     1     -11.036  15.647  70.575  1.00  0.00    -0.355 C  
BRANCH  15  16
HETATM   16  N   UNL     1     -10.199  16.090  69.448  1.00  0.00    -0.252 NA 
HETATM   17  H   UNL     1     -10.352  15.525  68.612  1.00  0.00     0.000 HD 
BRANCH  16  18
HETATM   18  C   UNL     1     -10.413  17.511  69.191  1.00  0.00    -0.190 C  
BRANCH  18  19
HETATM   19  C   UNL     1     -10.586  17.754  67.694  1.00  0.00    -0.385 C  
BRANCH  19  20
HETATM   20  C   UNL     1      -9.566  18.783  67.207  1.00  0.00    -0.333 C  
BRANCH  20  21
HETATM   21  C   UNL     1      -8.439  18.961  68.218  1.00  0.00    -0.365 C  
BRANCH  21  22
HETATM   22  C   UNL     1      -7.132  18.372  67.697  1.00  0.00    -0.210 C  
BRANCH  22  23
HETATM   23  C   UNL     1      -6.625  17.284  68.630  1.00  0.00    -0.186 C  
BRANCH  23  24
HETATM   24  O   UNL     1      -7.475  16.148  68.515  1.00  0.00    -0.152 OA 
BRANCH  24  25
HETATM   25  C   UNL     1      -7.295  15.510  67.253  1.00  0.00    -0.214 C  
BRANCH  25  26
HETATM   26  C   UNL     1      -8.596  14.853  66.821  1.00  0.00    -0.222 C  
BRANCH  26  27
HETATM   27  O   UNL     1      -8.413  13.437  66.800  1.00  0.00    -0.108 OA 
BRANCH  27  28
HETATM   28  C   UNL     1      -9.606  12.756  67.160  1.00  0.00    -0.219 C  
BRANCH  28  29
HETATM   29  C   UNL     1     -10.379  12.443  65.907  1.00  0.00    -0.282 A  
HETATM   30  C   UNL     1     -11.599  13.080  65.623  1.00  0.00    -0.354 A  
HETATM   31 CL   UNL     1     -12.327  14.210  66.713  1.00  0.00    -0.428 Cl 
HETATM   32  C   UNL     1     -12.289  12.822  64.430  1.00  0.00    -0.498 A  
HETATM   33  C   UNL     1     -11.785  11.906  63.513  1.00  0.00    -0.550 A  
HETATM   34  C   UNL     1     -10.607  11.225  63.800  1.00  0.00    -0.455 A  
HETATM   35  C   UNL     1      -9.916  11.481  64.991  1.00  0.00    -0.263 A  
HETATM   36 CL   UNL     1      -8.478  10.559  65.270  1.00  0.00    -0.172 Cl 
ENDBRANCH  28  29
ENDBRANCH  27  28
ENDBRANCH  26  27
ENDBRANCH  25  26
ENDBRANCH  24  25
ENDBRANCH  23  24
ENDBRANCH  22  23
ENDBRANCH  21  22
ENDBRANCH  20  21
ENDBRANCH  19  20
ENDBRANCH  18  19
ENDBRANCH  16  18
ENDBRANCH  15  16
ENDBRANCH  12  15
ENDBRANCH  10  12
ENDBRANCH   2   4
TORSDOF 16
ENDMDL
MODEL       59
REMARK 921   NORMALIZED FREE ENERGY PREDICTED BY IDOCK:   -5.65 KCAL/MOL
REMARK 922        TOTAL FREE ENERGY PREDICTED BY IDOCK:  -13.00 KCAL/MOL
REMARK 923 INTER-LIGAND FREE ENERGY PREDICTED BY IDOCK:  -10.87 KCAL/MOL
REMARK 924 INTRA-LIGAND FREE ENERGY PREDICTED BY IDOCK:   -2.14 KCAL/MOL
REMARK 927      BINDING AFFINITY PREDICTED BY RF-SCORE:    0.00 PKD
ROOT
HETATM    1  O   UNL     1     -10.196  10.361  62.505  1.00  0.00    -0.712 OA 
HETATM    2  C   UNL     1      -9.648  11.546  63.083  1.00  0.00    -0.360 C  
HETATM    3  H   UNL     1      -9.576   9.952  61.913  1.00  0.00     0.000 HD 
ENDROOT
BRANCH   2   4
HETATM    4  C   UNL     1     -10.631  12.194  64.022  1.00  0.00    -0.429 A  
HETATM    5  C   UNL     1     -12.018  12.138  63.843  1.00  0.00    -0.486 A  
HETATM    6  O   UNL     1     -12.586  11.418  62.829  1.00  0.00    -0.952 OA 
HETATM    7  C   UNL     1     -12.888  12.812  64.695  1.00  0.00    -0.355 A  
HETATM    8  C   UNL     1     -12.383  13.556  65.759  1.00  0.00    -0.516 A  
HETATM    9  H   UNL     1     -13.527  11.380  62.707  1.00  0.00     0.000 HD 
HETATM   10  C   UNL     1     -11.000  13.637  65.974  1.00  0.00    -0.288 A  
HETATM   11  C   UNL     1     -10.137  12.963  65.091  1.00  0.00    -0.241 A  
BRANCH  10  12
HETATM   12  C   UNL     1     -10.466  14.506  67.093  1.00  0.00    -0.267 C  
HETATM   13  O   UNL     1     -10.083  15.791  66.583  1.00  0.00    -0.261 OA 
HETATM   14  H   UNL     1      -9.749  16.336  67.285  1.00  0.00     0.000 HD 
BRANCH  12  15
HETATM   15  C   UNL     1     -11.536  14.683  68.192  1.00  0.00    -0.323 C  
BRANCH  15  16
HETATM   16  N   UNL     1     -10.951  14.542  69.536  1.00  0.00    -0.322 NA 
HETATM   17  H   UNL     1      -9.941  14.411  69.501  1.00  0.00     0.000 HD 
BRANCH  16  18
HETATM   18  C   UNL     1     -11.325  15.682  70.368  1.00  0.00    -0.358 C  
BRANCH  18  19
HETATM   19  C   UNL     1     -12.798  15.589  70.756  1.00  0.00    -0.513 C  
BRANCH  19  20
HETATM   20  C   UNL     1     -12.943  14.881  72.103  1.00  0.00    -0.415 C  
BRANCH  20  21
HETATM   21  C   UNL     1     -13.806  13.631  71.977  1.00  0.00    -0.565 C  
BRANCH  21  22
HETATM   22  C   UNL     1     -12.975  12.366  72.166  1.00  0.00    -0.308 C  
BRANCH  22  23
HETATM   23  C   UNL     1     -12.963  11.537  70.892  1.00  0.00    -0.088 C  
BRANCH  23  24
HETATM   24  O   UNL     1     -11.752  11.793  70.189  1.00  0.00    -0.316 OA 
BRANCH  24  25
HETATM   25  C   UNL     1     -11.748  11.123  68.930  1.00  0.00    -0.337 C  
BRANCH  25  26
HETATM   26  C   UNL     1     -10.320  10.800  68.525  1.00  0.00    -0.185 C  
BRANCH  26  27
HETATM   27  O   UNL     1      -9.592  10.396  69.686  1.00  0.00    -0.200 OA 
BRANCH  27  28
HETATM   28  C   UNL     1      -9.420   8.987  69.724  1.00  0.00    -0.175 C  
BRANCH  28  29
HETATM   29  C   UNL     1      -9.357   8.548  71.162  1.00  0.00    -0.249 A  
HETATM   30  C   UNL     1      -8.148   8.565  71.880  1.00  0.00    -0.130 A  
HETATM   31 CL   UNL     1      -6.648   9.025  71.150  1.00  0.00    -0.080 Cl 
HETATM   32  C   UNL     1      -8.106   8.204  73.233  1.00  0.00    -0.246 A  
HETATM   33  C   UNL     1      -9.264   7.796  73.887  1.00  0.00    -0.255 A  
HETATM   34  C   UNL     1     -10.460   7.720  73.181  1.00  0.00    -0.413 A  
HETATM   35  C   UNL     1     -10.505   8.081  71.828  1.00  0.00    -0.229 A  
HETATM   36 CL   UNL     1     -12.033   7.921  71.031  1.00  0.00    -0.295 Cl 
ENDBRANCH  28  29
ENDBRANCH  27  28
ENDBRANCH  26  27
ENDBRANCH  25  26
ENDBRANCH  24  25
ENDBRANCH  23  24
ENDBRANCH  22  23
ENDBRANCH  21  22
ENDBRANCH  20  21
ENDBRANCH  19  20
ENDBRANCH  18  19
ENDBRANCH  16  18
ENDBRANCH  15  16
ENDBRANCH  12  15
ENDBRANCH  10  12
ENDBRANCH   2   4
TORSDOF 16
ENDMDL
MODEL       60
REMARK 921   NORMALIZED FREE ENERGY PREDICTED BY IDOCK:   -5.64 KCAL/MOL
REMARK 922        TOTAL FREE ENERGY PREDICTED BY IDOCK:  -13.00 KCAL/MOL
REMARK 923 INTER-LIGAND FREE ENERGY PREDICTED BY IDOCK:  -11.13 KCAL/MOL
REMARK 924 INTRA-LIGAND FREE ENERGY PREDICTED BY IDOCK:   -1.87 KCAL/MOL
REMARK 927      BINDING AFFINITY PREDICTED BY RF-SCORE:    0.00 PKD
ROOT
HETATM    1  O   UNL     1     -12.781  14.168  63.190  1.00  0.00    -0.922 OA 
HETATM    2  C   UNL     1     -11.847  13.467  64.012  1.00  0.00    -0.427 C  
HETATM    3  H   UNL     1     -13.033  13.645  62.438  1.00  0.00     0.000 HD 
ENDROOT
BRANCH   2   4
HETATM    4  C   UNL     1     -11.447  14.297  65.205  1.00  0.00    -0.351 A  
HETATM    5  C   UNL     1     -11.138  15.659  65.125  1.00  0.00    -0.348 A  
HETATM    6  O   UNL     1     -11.248  16.357  63.954  1.00  0.00    -1.383 OA 
HETATM    7  C   UNL     1     -10.703  16.372  66.238  1.00  0.00    -0.161 A  
HETATM    8  C   UNL     1     -10.578  15.730  67.468  1.00  0.00    -0.309 A  
HETATM    9  H   UNL     1     -11.038  17.282  63.900  1.00  0.00     0.000 HD 
HETATM   10  C   UNL     1     -10.880  14.367  67.592  1.00  0.00    -0.276 A  
HETATM   11  C   UNL     1     -11.299  13.661  66.450  1.00  0.00    -0.331 A  
BRANCH  10  12
HETATM   12  C   UNL     1     -10.671  13.671  68.921  1.00  0.00    -0.212 C  
HETATM   13  O   UNL     1     -10.614  14.636  69.981  1.00  0.00    -0.453 OA 
HETATM   14  H   UNL     1     -10.484  14.199  70.814  1.00  0.00     0.000 HD 
BRANCH  12  15
HETATM   15  C   UNL     1     -11.817  12.673  69.189  1.00  0.00    -0.297 C  
BRANCH  15  16
HETATM   16  N   UNL     1     -12.009  12.454  70.633  1.00  0.00    -0.506 NA 
HETATM   17  H   UNL     1     -12.865  12.891  70.975  1.00  0.00     0.000 HD 
BRANCH  16  18
HETATM   18  C   UNL     1     -11.967  11.027  70.934  1.00  0.00    -0.286 C  
BRANCH  18  19
HETATM   19  C   UNL     1     -13.123  10.650  71.857  1.00  0.00    -0.563 C  
BRANCH  19  20
HETATM   20  C   UNL     1     -13.043   9.169  72.223  1.00  0.00    -0.509 C  
BRANCH  20  21
HETATM   21  C   UNL     1     -11.677   8.589  71.874  1.00  0.00    -0.409 C  
BRANCH  21  22
HETATM   22  C   UNL     1     -11.801   7.460  70.855  1.00  0.00    -0.320 C  
BRANCH  22  23
HETATM   23  C   UNL     1     -10.859   6.319  71.204  1.00  0.00    -0.266 C  
BRANCH  23  24
HETATM   24  O   UNL     1     -10.700   5.489  70.057  1.00  0.00    -0.313 OA 
BRANCH  24  25
HETATM   25  C   UNL     1     -10.125   6.225  68.979  1.00  0.00    -0.172 C  
BRANCH  25  26
HETATM   26  C   UNL     1     -10.954   6.022  67.722  1.00  0.00    -0.234 C  
BRANCH  26  27
HETATM   27  O   UNL     1     -10.131   6.274  66.582  1.00  0.00    -0.175 OA 
BRANCH  27  28
HETATM   28  C   UNL     1      -9.114   7.220  66.877  1.00  0.00    -0.141 C  
BRANCH  28  29
HETATM   29  C   UNL     1      -9.259   8.392  65.945  1.00  0.00    -0.217 A  
HETATM   30  C   UNL     1     -10.009   9.525  66.306  1.00  0.00    -0.274 A  
HETATM   31 CL   UNL     1     -10.866   9.625  67.807  1.00  0.00    -0.316 Cl 
HETATM   32  C   UNL     1     -10.099  10.635  65.455  1.00  0.00    -0.343 A  
HETATM   33  C   UNL     1      -9.462  10.623  64.219  1.00  0.00    -0.321 A  
HETATM   34  C   UNL     1      -8.760   9.491  63.819  1.00  0.00    -0.237 A  
HETATM   35  C   UNL     1      -8.668   8.381  64.668  1.00  0.00     0.064 A  
HETATM   36 CL   UNL     1      -7.800   7.010  64.067  1.00  0.00    -0.121 Cl 
ENDBRANCH  28  29
ENDBRANCH  27  28
ENDBRANCH  26  27
ENDBRANCH  25  26
ENDBRANCH  24  25
ENDBRANCH  23  24
ENDBRANCH  22  23
ENDBRANCH  21  22
ENDBRANCH  20  21
ENDBRANCH  19  20
ENDBRANCH  18  19
ENDBRANCH  16  18
ENDBRANCH  15  16
ENDBRANCH  12  15
ENDBRANCH  10  12
ENDBRANCH   2   4
TORSDOF 16
ENDMDL
MODEL       61
REMARK 921   NORMALIZED FREE ENERGY PREDICTED BY IDOCK:   -5.64 KCAL/MOL
REMARK 922        TOTAL FREE ENERGY PREDICTED BY IDOCK:  -12.99 KCAL/MOL
REMARK 923 INTER-LIGAND FREE ENERGY PREDICTED BY IDOCK:   -9.87 KCAL/MOL
REMARK 924 INTRA-LIGAND FREE ENERGY PREDICTED BY IDOCK:   -3.12 KCAL/MOL
REMARK 927      BINDING AFFINITY PREDICTED BY RF-SCORE:    0.00 PKD
ROOT
HETATM    1  O   UNL     1      -7.331  15.028  66.853  1.00  0.00    -0.284 OA 
HETATM    2  C   UNL     1      -8.327  15.970  66.452  1.00  0.00    -0.309 C  
HETATM    3  H   UNL     1      -6.458  15.362  66.683  1.00  0.00     0.000 HD 
ENDROOT
BRANCH   2   4
HETATM    4  C   UNL     1      -9.712  15.441  66.720  1.00  0.00    -0.254 A  
HETATM    5  C   UNL     1     -10.227  15.254  68.008  1.00  0.00    -0.230 A  
HETATM    6  O   UNL     1      -9.526  15.614  69.125  1.00  0.00    -0.219 OA 
HETATM    7  C   UNL     1     -11.485  14.695  68.213  1.00  0.00    -0.337 A  
HETATM    8  C   UNL     1     -12.263  14.315  67.121  1.00  0.00    -0.312 A  
HETATM    9  H   UNL     1      -9.876  15.488  69.999  1.00  0.00     0.000 HD 
HETATM   10  C   UNL     1     -11.784  14.486  65.814  1.00  0.00    -0.344 A  
HETATM   11  C   UNL     1     -10.503  15.037  65.631  1.00  0.00    -0.368 A  
BRANCH  10  12
HETATM   12  C   UNL     1     -12.614  14.004  64.643  1.00  0.00    -0.248 C  
HETATM   13  O   UNL     1     -12.384  14.835  63.497  1.00  0.00    -1.037 OA 
HETATM   14  H   UNL     1     -12.904  14.533  62.763  1.00  0.00     0.000 HD 
BRANCH  12  15
HETATM   15  C   UNL     1     -12.261  12.541  64.301  1.00  0.00    -0.452 C  
BRANCH  15  16
HETATM   16  N   UNL     1     -11.300  12.468  63.188  1.00  0.00    -0.747 NA 
HETATM   17  H   UNL     1     -11.030  13.394  62.855  1.00  0.00     0.000 HD 
BRANCH  16  18
HETATM   18  C   UNL     1     -10.142  11.670  63.576  1.00  0.00    -0.425 C  
BRANCH  18  19
HETATM   19  C   UNL     1     -10.400  10.985  64.915  1.00  0.00    -0.378 C  
BRANCH  19  20
HETATM   20  C   UNL     1      -9.605   9.682  65.001  1.00  0.00    -0.284 C  
BRANCH  20  21
HETATM   21  C   UNL     1      -9.800   9.008  66.354  1.00  0.00    -0.356 C  
BRANCH  21  22
HETATM   22  C   UNL     1      -9.077   7.666  66.410  1.00  0.00    -0.214 C  
BRANCH  22  23
HETATM   23  C   UNL     1      -9.241   7.026  67.780  1.00  0.00    -0.124 C  
BRANCH  23  24
HETATM   24  O   UNL     1     -10.617   7.073  68.145  1.00  0.00    -0.197 OA 
BRANCH  24  25
HETATM   25  C   UNL     1     -10.906   6.096  69.143  1.00  0.00    -0.351 C  
BRANCH  25  26
HETATM   26  C   UNL     1     -10.968   6.761  70.508  1.00  0.00    -0.280 C  
BRANCH  26  27
HETATM   27  O   UNL     1     -11.487   8.082  70.354  1.00  0.00    -0.241 OA 
BRANCH  27  28
HETATM   28  C   UNL     1     -10.738   9.024  71.109  1.00  0.00    -0.288 C  
BRANCH  28  29
HETATM   29  C   UNL     1      -9.987   9.916  70.158  1.00  0.00    -0.291 A  
HETATM   30  C   UNL     1     -10.649  10.895  69.397  1.00  0.00    -0.197 A  
HETATM   31 CL   UNL     1     -12.367  11.098  69.447  1.00  0.00    -0.318 Cl 
HETATM   32  C   UNL     1      -9.937  11.758  68.552  1.00  0.00    -0.203 A  
HETATM   33  C   UNL     1      -8.557  11.642  68.433  1.00  0.00    -0.156 A  
HETATM   34  C   UNL     1      -7.888  10.646  69.137  1.00  0.00    -0.142 A  
HETATM   35  C   UNL     1      -8.597   9.782  69.982  1.00  0.00    -0.204 A  
HETATM   36 CL   UNL     1      -7.680   8.556  70.788  1.00  0.00    -0.078 Cl 
ENDBRANCH  28  29
ENDBRANCH  27  28
ENDBRANCH  26  27
ENDBRANCH  25  26
ENDBRANCH  24  25
ENDBRANCH  23  24
ENDBRANCH  22  23
ENDBRANCH  21  22
ENDBRANCH  20  21
ENDBRANCH  19  20
ENDBRANCH  18  19
ENDBRANCH  16  18
ENDBRANCH  15  16
ENDBRANCH  12  15
ENDBRANCH  10  12
ENDBRANCH   2   4
TORSDOF 16
ENDMDL
MODEL       62
REMARK 921   NORMALIZED FREE ENERGY PREDICTED BY IDOCK:   -5.64 KCAL/MOL
REMARK 922        TOTAL FREE ENERGY PREDICTED BY IDOCK:  -12.98 KCAL/MOL
REMARK 923 INTER-LIGAND FREE ENERGY PREDICTED BY IDOCK:  -11.42 KCAL/MOL
REMARK 924 INTRA-LIGAND FREE ENERGY PREDICTED BY IDOCK:   -1.56 KCAL/MOL
REMARK 927      BINDING AFFINITY PREDICTED BY RF-SCORE:    0.00 PKD
ROOT
HETATM    1  O   UNL     1     -11.769   6.885  72.870  1.00  0.00    -0.501 OA 
HETATM    2  C   UNL     1     -12.177   7.219  71.543  1.00  0.00    -0.352 C  
HETATM    3  H   UNL     1     -11.673   5.945  72.971  1.00  0.00     0.000 HD 
ENDROOT
BRANCH   2   4
HETATM    4  C   UNL     1     -12.331   8.709  71.383  1.00  0.00    -0.344 A  
HETATM    5  C   UNL     1     -13.248   9.471  72.116  1.00  0.00    -0.451 A  
HETATM    6  O   UNL     1     -14.028   8.918  73.093  1.00  0.00    -1.118 OA 
HETATM    7  C   UNL     1     -13.408  10.834  71.886  1.00  0.00    -0.445 A  
HETATM    8  C   UNL     1     -12.638  11.469  70.914  1.00  0.00    -0.438 A  
HETATM    9  H   UNL     1     -14.651   9.434  73.590  1.00  0.00     0.000 HD 
HETATM   10  C   UNL     1     -11.706  10.743  70.159  1.00  0.00    -0.425 A  
HETATM   11  C   UNL     1     -11.574   9.363  70.395  1.00  0.00    -0.241 A  
BRANCH  10  12
HETATM   12  C   UNL     1     -10.929  11.437  69.060  1.00  0.00    -0.236 C  
HETATM   13  O   UNL     1     -10.664  12.799  69.425  1.00  0.00    -0.439 OA 
HETATM   14  H   UNL     1     -10.176  13.234  68.736  1.00  0.00     0.000 HD 
BRANCH  12  15
HETATM   15  C   UNL     1      -9.597  10.702  68.800  1.00  0.00    -0.186 C  
BRANCH  15  16
HETATM   16  N   UNL     1      -8.471  11.648  68.715  1.00  0.00    -0.334 NA 
HETATM   17  H   UNL     1      -7.824  11.542  69.496  1.00  0.00     0.000 HD 
BRANCH  16  18
HETATM   18  C   UNL     1      -7.798  11.513  67.428  1.00  0.00    -0.143 C  
BRANCH  18  19
HETATM   19  C   UNL     1      -8.283  10.256  66.710  1.00  0.00    -0.124 C  
BRANCH  19  20
HETATM   20  C   UNL     1      -7.892  10.309  65.233  1.00  0.00    -0.145 C  
BRANCH  20  21
HETATM   21  C   UNL     1      -9.065   9.924  64.340  1.00  0.00    -0.299 C  
BRANCH  21  22
HETATM   22  C   UNL     1     -10.344  10.635  64.771  1.00  0.00    -0.353 C  
BRANCH  22  23
HETATM   23  C   UNL     1     -10.781  11.637  63.715  1.00  0.00    -0.419 C  
BRANCH  23  24
HETATM   24  O   UNL     1     -10.037  12.839  63.886  1.00  0.00    -0.358 OA 
BRANCH  24  25
HETATM   25  C   UNL     1     -10.811  13.817  64.577  1.00  0.00    -0.387 C  
BRANCH  25  26
HETATM   26  C   UNL     1     -10.101  14.219  65.860  1.00  0.00    -0.326 C  
BRANCH  26  27
HETATM   27  O   UNL     1      -9.318  15.385  65.607  1.00  0.00    -0.296 OA 
BRANCH  27  28
HETATM   28  C   UNL     1      -8.739  15.890  66.801  1.00  0.00    -0.269 C  
BRANCH  28  29
HETATM   29  C   UNL     1      -9.161  17.324  66.974  1.00  0.00    -0.252 A  
HETATM   30  C   UNL     1     -10.390  17.657  67.571  1.00  0.00    -0.365 A  
HETATM   31 CL   UNL     1     -11.523  16.455  68.085  1.00  0.00    -0.213 Cl 
HETATM   32  C   UNL     1     -10.754  18.995  67.776  1.00  0.00    -0.441 A  
HETATM   33  C   UNL     1      -9.911  20.022  67.367  1.00  0.00    -0.571 A  
HETATM   34  C   UNL     1      -8.716  19.715  66.725  1.00  0.00    -0.381 A  
HETATM   35  C   UNL     1      -8.349  18.378  66.519  1.00  0.00    -0.272 A  
HETATM   36 CL   UNL     1      -6.859  18.100  65.683  1.00  0.00    -0.299 Cl 
ENDBRANCH  28  29
ENDBRANCH  27  28
ENDBRANCH  26  27
ENDBRANCH  25  26
ENDBRANCH  24  25
ENDBRANCH  23  24
ENDBRANCH  22  23
ENDBRANCH  21  22
ENDBRANCH  20  21
ENDBRANCH  19  20
ENDBRANCH  18  19
ENDBRANCH  16  18
ENDBRANCH  15  16
ENDBRANCH  12  15
ENDBRANCH  10  12
ENDBRANCH   2   4
TORSDOF 16
ENDMDL
MODEL       63
REMARK 921   NORMALIZED FREE ENERGY PREDICTED BY IDOCK:   -5.64 KCAL/MOL
REMARK 922        TOTAL FREE ENERGY PREDICTED BY IDOCK:  -12.98 KCAL/MOL
REMARK 923 INTER-LIGAND FREE ENERGY PREDICTED BY IDOCK:  -10.89 KCAL/MOL
REMARK 924 INTRA-LIGAND FREE ENERGY PREDICTED BY IDOCK:   -2.10 KCAL/MOL
REMARK 927      BINDING AFFINITY PREDICTED BY RF-SCORE:    0.00 PKD
ROOT
HETATM    1  O   UNL     1     -14.352  14.396  72.274  1.00  0.00    -0.505 OA 
HETATM    2  C   UNL     1     -13.278  13.572  71.818  1.00  0.00    -0.404 C  
HETATM    3  H   UNL     1     -14.817  13.984  72.993  1.00  0.00     0.000 HD 
ENDROOT
BRANCH   2   4
HETATM    4  C   UNL     1     -12.542  14.226  70.677  1.00  0.00    -0.424 A  
HETATM    5  C   UNL     1     -12.109  15.557  70.703  1.00  0.00    -0.389 A  
HETATM    6  O   UNL     1     -12.263  16.344  71.810  1.00  0.00    -0.605 OA 
HETATM    7  C   UNL     1     -11.497  16.143  69.600  1.00  0.00    -0.290 A  
HETATM    8  C   UNL     1     -11.295  15.398  68.440  1.00  0.00    -0.345 A  
HETATM    9  H   UNL     1     -11.970  17.247  71.828  1.00  0.00     0.000 HD 
HETATM   10  C   UNL     1     -11.712  14.062  68.373  1.00  0.00    -0.389 A  
HETATM   11  C   UNL     1     -12.345  13.494  69.493  1.00  0.00    -0.198 A  
BRANCH  10  12
HETATM   12  C   UNL     1     -11.546  13.289  67.081  1.00  0.00    -0.357 C  
HETATM   13  O   UNL     1     -12.156  11.996  67.196  1.00  0.00    -0.587 OA 
HETATM   14  H   UNL     1     -12.053  11.512  66.385  1.00  0.00     0.000 HD 
BRANCH  12  15
HETATM   15  C   UNL     1     -12.187  14.062  65.909  1.00  0.00    -0.456 C  
BRANCH  15  16
HETATM   16  N   UNL     1     -11.340  14.006  64.705  1.00  0.00    -0.350 NA 
HETATM   17  H   UNL     1     -10.462  13.517  64.878  1.00  0.00     0.000 HD 
BRANCH  16  18
HETATM   18  C   UNL     1     -12.082  13.418  63.595  1.00  0.00    -0.450 C  
BRANCH  18  19
HETATM   19  C   UNL     1     -11.913  11.901  63.595  1.00  0.00    -0.578 C  
BRANCH  19  20
HETATM   20  C   UNL     1     -10.428  11.538  63.599  1.00  0.00    -0.483 C  
BRANCH  20  21
HETATM   21  C   UNL     1     -10.120  10.498  64.671  1.00  0.00    -0.408 C  
BRANCH  21  22
HETATM   22  C   UNL     1      -8.634  10.153  64.693  1.00  0.00    -0.193 C  
BRANCH  22  23
HETATM   23  C   UNL     1      -8.187   9.804  66.104  1.00  0.00    -0.120 C  
BRANCH  23  24
HETATM   24  O   UNL     1      -7.828   8.427  66.143  1.00  0.00    -0.097 OA 
BRANCH  24  25
HETATM   25  C   UNL     1      -8.449   7.776  67.249  1.00  0.00    -0.118 C  
BRANCH  25  26
HETATM   26  C   UNL     1      -7.927   8.364  68.549  1.00  0.00    -0.121 C  
BRANCH  26  27
HETATM   27  O   UNL     1      -8.607   7.745  69.641  1.00  0.00    -0.132 OA 
BRANCH  27  28
HETATM   28  C   UNL     1      -8.598   8.574  70.795  1.00  0.00    -0.154 C  
BRANCH  28  29
HETATM   29  C   UNL     1     -10.017   8.932  71.143  1.00  0.00    -0.342 A  
HETATM   30  C   UNL     1     -10.691   9.973  70.483  1.00  0.00    -0.285 A  
HETATM   31 CL   UNL     1      -9.925  10.953  69.279  1.00  0.00    -0.184 Cl 
HETATM   32  C   UNL     1     -12.030  10.268  70.776  1.00  0.00    -0.456 A  
HETATM   33  C   UNL     1     -12.710   9.546  71.750  1.00  0.00    -0.492 A  
HETATM   34  C   UNL     1     -12.045   8.547  72.453  1.00  0.00    -0.436 A  
HETATM   35  C   UNL     1     -10.707   8.250  72.162  1.00  0.00    -0.319 A  
HETATM   36 CL   UNL     1      -9.959   7.013  73.114  1.00  0.00    -0.216 Cl 
ENDBRANCH  28  29
ENDBRANCH  27  28
ENDBRANCH  26  27
ENDBRANCH  25  26
ENDBRANCH  24  25
ENDBRANCH  23  24
ENDBRANCH  22  23
ENDBRANCH  21  22
ENDBRANCH  20  21
ENDBRANCH  19  20
ENDBRANCH  18  19
ENDBRANCH  16  18
ENDBRANCH  15  16
ENDBRANCH  12  15
ENDBRANCH  10  12
ENDBRANCH   2   4
TORSDOF 16
ENDMDL
MODEL       64
REMARK 921   NORMALIZED FREE ENERGY PREDICTED BY IDOCK:   -5.63 KCAL/MOL
REMARK 922        TOTAL FREE ENERGY PREDICTED BY IDOCK:  -12.96 KCAL/MOL
REMARK 923 INTER-LIGAND FREE ENERGY PREDICTED BY IDOCK:  -11.48 KCAL/MOL
REMARK 924 INTRA-LIGAND FREE ENERGY PREDICTED BY IDOCK:   -1.48 KCAL/MOL
REMARK 927      BINDING AFFINITY PREDICTED BY RF-SCORE:    0.00 PKD
ROOT
HETATM    1  O   UNL     1     -11.140   5.608  66.203  1.00  0.00    -0.743 OA 
HETATM    2  C   UNL     1     -11.078   6.667  67.160  1.00  0.00    -0.357 C  
HETATM    3  H   UNL     1     -11.379   5.937  65.345  1.00  0.00     0.000 HD 
ENDROOT
BRANCH   2   4
HETATM    4  C   UNL     1     -10.700   6.144  68.521  1.00  0.00    -0.365 A  
HETATM    5  C   UNL     1      -9.656   5.236  68.734  1.00  0.00    -0.137 A  
HETATM    6  O   UNL     1      -8.850   4.812  67.714  1.00  0.00    -0.103 OA 
HETATM    7  C   UNL     1      -9.386   4.723  69.999  1.00  0.00    -0.213 A  
HETATM    8  C   UNL     1     -10.158   5.119  71.089  1.00  0.00    -0.291 A  
HETATM    9  H   UNL     1      -8.142   4.196  67.858  1.00  0.00     0.000 HD 
HETATM   10  C   UNL     1     -11.212   6.028  70.919  1.00  0.00    -0.335 A  
HETATM   11  C   UNL     1     -11.479   6.520  69.629  1.00  0.00    -0.417 A  
BRANCH  10  12
HETATM   12  C   UNL     1     -12.083   6.393  72.103  1.00  0.00    -0.268 C  
HETATM   13  O   UNL     1     -11.339   7.183  73.040  1.00  0.00    -0.495 OA 
HETATM   14  H   UNL     1     -11.885   7.413  73.783  1.00  0.00     0.000 HD 
BRANCH  12  15
HETATM   15  C   UNL     1     -13.324   7.181  71.632  1.00  0.00    -0.331 C  
BRANCH  15  16
HETATM   16  N   UNL     1     -13.481   8.435  72.389  1.00  0.00    -0.577 NA 
HETATM   17  H   UNL     1     -12.760   8.543  73.102  1.00  0.00     0.000 HD 
BRANCH  16  18
HETATM   18  C   UNL     1     -13.519   9.572  71.476  1.00  0.00    -0.368 C  
BRANCH  18  19
HETATM   19  C   UNL     1     -12.151  10.245  71.416  1.00  0.00    -0.457 C  
BRANCH  19  20
HETATM   20  C   UNL     1     -11.740  10.475  69.962  1.00  0.00    -0.394 C  
BRANCH  20  21
HETATM   21  C   UNL     1     -11.645  11.963  69.646  1.00  0.00    -0.387 C  
BRANCH  21  22
HETATM   22  C   UNL     1     -11.765  12.217  68.147  1.00  0.00    -0.402 C  
BRANCH  22  23
HETATM   23  C   UNL     1     -10.622  13.092  67.658  1.00  0.00    -0.224 C  
BRANCH  23  24
HETATM   24  O   UNL     1     -10.860  13.439  66.298  1.00  0.00    -0.286 OA 
BRANCH  24  25
HETATM   25  C   UNL     1     -11.512  14.704  66.208  1.00  0.00    -0.351 C  
BRANCH  25  26
HETATM   26  C   UNL     1     -10.940  15.494  65.042  1.00  0.00    -0.440 C  
BRANCH  26  27
HETATM   27  O   UNL     1     -10.063  16.498  65.552  1.00  0.00    -0.535 OA 
BRANCH  27  28
HETATM   28  C   UNL     1     -10.454  16.916  66.852  1.00  0.00    -0.271 C  
BRANCH  28  29
HETATM   29  C   UNL     1      -9.437  17.895  67.371  1.00  0.00    -0.258 A  
HETATM   30  C   UNL     1      -8.505  17.527  68.357  1.00  0.00    -0.275 A  
HETATM   31 CL   UNL     1      -8.504  15.958  69.087  1.00  0.00    -0.244 Cl 
HETATM   32  C   UNL     1      -7.526  18.428  68.799  1.00  0.00    -0.298 A  
HETATM   33  C   UNL     1      -7.476  19.718  68.283  1.00  0.00    -0.346 A  
HETATM   34  C   UNL     1      -8.422  20.120  67.346  1.00  0.00    -0.398 A  
HETATM   35  C   UNL     1      -9.401  19.221  66.902  1.00  0.00    -0.318 A  
HETATM   36 CL   UNL     1     -10.552  19.826  65.759  1.00  0.00    -0.597 Cl 
ENDBRANCH  28  29
ENDBRANCH  27  28
ENDBRANCH  26  27
ENDBRANCH  25  26
ENDBRANCH  24  25
ENDBRANCH  23  24
ENDBRANCH  22  23
ENDBRANCH  21  22
ENDBRANCH  20  21
ENDBRANCH  19  20
ENDBRANCH  18  19
ENDBRANCH  16  18
ENDBRANCH  15  16
ENDBRANCH  12  15
ENDBRANCH  10  12
ENDBRANCH   2   4
TORSDOF 16
ENDMDL
MODEL       65
REMARK 921   NORMALIZED FREE ENERGY PREDICTED BY IDOCK:   -5.62 KCAL/MOL
REMARK 922        TOTAL FREE ENERGY PREDICTED BY IDOCK:  -12.95 KCAL/MOL
REMARK 923 INTER-LIGAND FREE ENERGY PREDICTED BY IDOCK:  -10.59 KCAL/MOL
REMARK 924 INTRA-LIGAND FREE ENERGY PREDICTED BY IDOCK:   -2.36 KCAL/MOL
REMARK 927      BINDING AFFINITY PREDICTED BY RF-SCORE:    0.00 PKD
ROOT
HETATM    1  O   UNL     1      -9.362  20.467  65.768  1.00  0.00    -0.593 OA 
HETATM    2  C   UNL     1     -10.374  19.567  66.221  1.00  0.00    -0.506 C  
HETATM    3  H   UNL     1      -9.705  21.349  65.679  1.00  0.00     0.000 HD 
ENDROOT
BRANCH   2   4
HETATM    4  C   UNL     1      -9.830  18.169  66.363  1.00  0.00    -0.353 A  
HETATM    5  C   UNL     1      -8.537  17.890  66.819  1.00  0.00    -0.254 A  
HETATM    6  O   UNL     1      -7.691  18.878  67.242  1.00  0.00    -0.232 OA 
HETATM    7  C   UNL     1      -8.049  16.587  66.867  1.00  0.00    -0.254 A  
HETATM    8  C   UNL     1      -8.858  15.527  66.463  1.00  0.00    -0.348 A  
HETATM    9  H   UNL     1      -6.814  18.688  67.552  1.00  0.00     0.000 HD 
HETATM   10  C   UNL     1     -10.160  15.764  66.001  1.00  0.00    -0.359 A  
HETATM   11  C   UNL     1     -10.627  17.089  65.944  1.00  0.00    -0.221 A  
BRANCH  10  12
HETATM   12  C   UNL     1     -10.999  14.607  65.502  1.00  0.00    -0.340 C  
HETATM   13  O   UNL     1     -11.319  14.789  64.115  1.00  0.00    -0.618 OA 
HETATM   14  H   UNL     1     -11.845  14.062  63.802  1.00  0.00     0.000 HD 
BRANCH  12  15
HETATM   15  C   UNL     1     -10.242  13.275  65.689  1.00  0.00    -0.289 C  
BRANCH  15  16
HETATM   16  N   UNL     1     -11.099  12.122  65.366  1.00  0.00    -0.308 NA 
HETATM   17  H   UNL     1     -11.353  12.098  64.379  1.00  0.00     0.000 HD 
BRANCH  16  18
HETATM   18  C   UNL     1     -10.457  10.883  65.794  1.00  0.00    -0.210 C  
BRANCH  18  19
HETATM   19  C   UNL     1      -8.947  11.083  65.896  1.00  0.00    -0.208 C  
BRANCH  19  20
HETATM   20  C   UNL     1      -8.433  10.536  67.228  1.00  0.00    -0.122 C  
BRANCH  20  21
HETATM   21  C   UNL     1      -9.510   9.730  67.944  1.00  0.00    -0.146 C  
BRANCH  21  22
HETATM   22  C   UNL     1      -9.375   9.852  69.458  1.00  0.00    -0.236 C  
BRANCH  22  23
HETATM   23  C   UNL     1     -10.442   9.026  70.159  1.00  0.00    -0.214 C  
BRANCH  23  24
HETATM   24  O   UNL     1     -10.850   9.710  71.339  1.00  0.00    -0.340 OA 
BRANCH  24  25
HETATM   25  C   UNL     1     -12.137   9.264  71.761  1.00  0.00    -0.387 C  
BRANCH  25  26
HETATM   26  C   UNL     1     -13.123  10.419  71.706  1.00  0.00    -0.462 C  
BRANCH  26  27
HETATM   27  O   UNL     1     -12.397  11.647  71.754  1.00  0.00    -0.033 OA 
BRANCH  27  28
HETATM   28  C   UNL     1     -13.265  12.767  71.649  1.00  0.00    -0.317 C  
BRANCH  28  29
HETATM   29  C   UNL     1     -12.490  13.927  71.087  1.00  0.00    -0.450 A  
HETATM   30  C   UNL     1     -11.926  13.875  69.801  1.00  0.00    -0.338 A  
HETATM   31 CL   UNL     1     -12.024  12.462  68.806  1.00  0.00    -0.323 Cl 
HETATM   32  C   UNL     1     -11.250  14.978  69.263  1.00  0.00    -0.297 A  
HETATM   33  C   UNL     1     -11.104  16.143  70.008  1.00  0.00    -0.363 A  
HETATM   34  C   UNL     1     -11.607  16.197  71.303  1.00  0.00    -0.470 A  
HETATM   35  C   UNL     1     -12.284  15.096  71.844  1.00  0.00    -0.361 A  
HETATM   36 CL   UNL     1     -12.845  15.250  73.474  1.00  0.00    -0.638 Cl 
ENDBRANCH  28  29
ENDBRANCH  27  28
ENDBRANCH  26  27
ENDBRANCH  25  26
ENDBRANCH  24  25
ENDBRANCH  23  24
ENDBRANCH  22  23
ENDBRANCH  21  22
ENDBRANCH  20  21
ENDBRANCH  19  20
ENDBRANCH  18  19
ENDBRANCH  16  18
ENDBRANCH  15  16
ENDBRANCH  12  15
ENDBRANCH  10  12
ENDBRANCH   2   4
TORSDOF 16
ENDMDL
MODEL       66
REMARK 921   NORMALIZED FREE ENERGY PREDICTED BY IDOCK:   -5.62 KCAL/MOL
REMARK 922        TOTAL FREE ENERGY PREDICTED BY IDOCK:  -12.94 KCAL/MOL
REMARK 923 INTER-LIGAND FREE ENERGY PREDICTED BY IDOCK:  -10.86 KCAL/MOL
REMARK 924 INTRA-LIGAND FREE ENERGY PREDICTED BY IDOCK:   -2.08 KCAL/MOL
REMARK 927      BINDING AFFINITY PREDICTED BY RF-SCORE:    0.00 PKD
ROOT
HETATM    1  O   UNL     1      -9.836   8.026  66.922  1.00  0.00    -0.203 OA 
HETATM    2  C   UNL     1      -9.886   9.453  66.926  1.00  0.00    -0.201 C  
HETATM    3  H   UNL     1      -9.898   7.680  67.805  1.00  0.00     0.000 HD 
ENDROOT
BRANCH   2   4
HETATM    4  C   UNL     1      -9.788  10.001  65.526  1.00  0.00    -0.373 A  
HETATM    5  C   UNL     1      -8.746   9.685  64.647  1.00  0.00    -0.201 A  
HETATM    6  O   UNL     1      -7.770   8.788  64.979  1.00  0.00    -0.097 OA 
HETATM    7  C   UNL     1      -8.656  10.270  63.387  1.00  0.00    -0.194 A  
HETATM    8  C   UNL     1      -9.622  11.186  62.976  1.00  0.00    -0.389 A  
HETATM    9  H   UNL     1      -7.063   8.573  64.382  1.00  0.00     0.000 HD 
HETATM   10  C   UNL     1     -10.683  11.528  63.825  1.00  0.00    -0.474 A  
HETATM   11  C   UNL     1     -10.746  10.939  65.100  1.00  0.00    -0.209 A  
BRANCH  10  12
HETATM   12  C   UNL     1     -11.685  12.576  63.387  1.00  0.00    -0.488 C  
HETATM   13  O   UNL     1     -12.973  11.978  63.188  1.00  0.00    -0.752 OA 
HETATM   14  H   UNL     1     -13.601  12.635  62.914  1.00  0.00     0.000 HD 
BRANCH  12  15
HETATM   15  C   UNL     1     -11.790  13.693  64.446  1.00  0.00    -0.424 C  
BRANCH  15  16
HETATM   16  N   UNL     1     -12.235  14.962  63.844  1.00  0.00    -1.016 NA 
HETATM   17  H   UNL     1     -13.247  15.075  63.896  1.00  0.00     0.000 HD 
BRANCH  16  18
HETATM   18  C   UNL     1     -11.530  16.083  64.456  1.00  0.00    -0.271 C  
BRANCH  18  19
HETATM   19  C   UNL     1     -10.419  15.569  65.369  1.00  0.00    -0.429 C  
BRANCH  19  20
HETATM   20  C   UNL     1     -10.298  16.462  66.604  1.00  0.00    -0.292 C  
BRANCH  20  21
HETATM   21  C   UNL     1      -8.865  16.947  66.793  1.00  0.00    -0.262 C  
BRANCH  21  22
HETATM   22  C   UNL     1      -8.532  17.117  68.272  1.00  0.00    -0.236 C  
BRANCH  22  23
HETATM   23  C   UNL     1      -7.361  16.229  68.663  1.00  0.00    -0.180 C  
BRANCH  23  24
HETATM   24  O   UNL     1      -7.859  14.941  69.009  1.00  0.00    -0.147 OA 
BRANCH  24  25
HETATM   25  C   UNL     1      -7.704  14.032  67.921  1.00  0.00    -0.159 C  
BRANCH  25  26
HETATM   26  C   UNL     1      -8.930  13.140  67.821  1.00  0.00    -0.194 C  
BRANCH  26  27
HETATM   27  O   UNL     1      -9.929  13.626  68.718  1.00  0.00    -0.191 OA 
BRANCH  27  28
HETATM   28  C   UNL     1     -11.169  12.963  68.521  1.00  0.00    -0.274 C  
BRANCH  28  29
HETATM   29  C   UNL     1     -11.890  12.886  69.840  1.00  0.00    -0.373 A  
HETATM   30  C   UNL     1     -12.292  14.047  70.522  1.00  0.00    -0.367 A  
HETATM   31 CL   UNL     1     -11.933  15.635  69.933  1.00  0.00    -0.374 Cl 
HETATM   32  C   UNL     1     -13.008  13.969  71.724  1.00  0.00    -0.435 A  
HETATM   33  C   UNL     1     -13.313  12.731  72.279  1.00  0.00    -0.563 A  
HETATM   34  C   UNL     1     -12.877  11.570  71.648  1.00  0.00    -0.475 A  
HETATM   35  C   UNL     1     -12.162  11.646  70.446  1.00  0.00    -0.347 A  
HETATM   36 CL   UNL     1     -11.636  10.147  69.758  1.00  0.00    -0.266 Cl 
ENDBRANCH  28  29
ENDBRANCH  27  28
ENDBRANCH  26  27
ENDBRANCH  25  26
ENDBRANCH  24  25
ENDBRANCH  23  24
ENDBRANCH  22  23
ENDBRANCH  21  22
ENDBRANCH  20  21
ENDBRANCH  19  20
ENDBRANCH  18  19
ENDBRANCH  16  18
ENDBRANCH  15  16
ENDBRANCH  12  15
ENDBRANCH  10  12
ENDBRANCH   2   4
TORSDOF 16
ENDMDL
MODEL       67
REMARK 921   NORMALIZED FREE ENERGY PREDICTED BY IDOCK:   -5.61 KCAL/MOL
REMARK 922        TOTAL FREE ENERGY PREDICTED BY IDOCK:  -12.94 KCAL/MOL
REMARK 923 INTER-LIGAND FREE ENERGY PREDICTED BY IDOCK:  -10.41 KCAL/MOL
REMARK 924 INTRA-LIGAND FREE ENERGY PREDICTED BY IDOCK:   -2.52 KCAL/MOL
REMARK 927      BINDING AFFINITY PREDICTED BY RF-SCORE:    0.00 PKD
ROOT
HETATM    1  O   UNL     1     -10.994  10.991  62.732  1.00  0.00    -0.765 OA 
HETATM    2  C   UNL     1     -10.166  11.882  63.480  1.00  0.00    -0.457 C  
HETATM    3  H   UNL     1     -10.521  10.621  61.996  1.00  0.00     0.000 HD 
ENDROOT
BRANCH   2   4
HETATM    4  C   UNL     1     -10.918  12.468  64.646  1.00  0.00    -0.345 A  
HETATM    5  C   UNL     1     -11.953  13.398  64.505  1.00  0.00    -0.407 A  
HETATM    6  O   UNL     1     -12.409  13.790  63.277  1.00  0.00    -1.069 OA 
HETATM    7  C   UNL     1     -12.573  13.969  65.613  1.00  0.00    -0.542 A  
HETATM    8  C   UNL     1     -12.170  13.609  66.897  1.00  0.00    -0.398 A  
HETATM    9  H   UNL     1     -13.112  14.421  63.181  1.00  0.00     0.000 HD 
HETATM   10  C   UNL     1     -11.137  12.679  67.082  1.00  0.00    -0.321 A  
HETATM   11  C   UNL     1     -10.512  12.129  65.949  1.00  0.00    -0.288 A  
BRANCH  10  12
HETATM   12  C   UNL     1     -10.666  12.353  68.484  1.00  0.00    -0.238 C  
HETATM   13  O   UNL     1     -10.177  13.536  69.130  1.00  0.00    -0.426 OA 
HETATM   14  H   UNL     1      -9.882  13.331  70.010  1.00  0.00     0.000 HD 
BRANCH  12  15
HETATM   15  C   UNL     1     -11.822  11.751  69.311  1.00  0.00    -0.326 C  
BRANCH  15  16
HETATM   16  N   UNL     1     -12.114  12.572  70.498  1.00  0.00    -0.495 NA 
HETATM   17  H   UNL     1     -12.484  13.489  70.247  1.00  0.00     0.000 HD 
BRANCH  16  18
HETATM   18  C   UNL     1     -13.009  11.852  71.399  1.00  0.00    -0.284 C  
BRANCH  18  19
HETATM   19  C   UNL     1     -12.777  10.348  71.278  1.00  0.00    -0.536 C  
BRANCH  19  20
HETATM   20  C   UNL     1     -14.021   9.586  71.733  1.00  0.00    -0.220 C  
BRANCH  20  21
HETATM   21  C   UNL     1     -13.731   8.097  71.877  1.00  0.00    -0.395 C  
BRANCH  21  22
HETATM   22  C   UNL     1     -12.244   7.844  72.104  1.00  0.00    -0.353 C  
BRANCH  22  23
HETATM   23  C   UNL     1     -11.905   6.382  71.860  1.00  0.00    -0.329 C  
BRANCH  23  24
HETATM   24  O   UNL     1     -10.661   6.309  71.172  1.00  0.00    -0.229 OA 
BRANCH  24  25
HETATM   25  C   UNL     1     -10.869   6.170  69.768  1.00  0.00    -0.353 C  
BRANCH  25  26
HETATM   26  C   UNL     1      -9.645   5.536  69.129  1.00  0.00    -0.143 C  
BRANCH  26  27
HETATM   27  O   UNL     1      -8.952   6.531  68.375  1.00  0.00    -0.126 OA 
BRANCH  27  28
HETATM   28  C   UNL     1      -9.727   7.713  68.240  1.00  0.00    -0.157 C  
BRANCH  28  29
HETATM   29  C   UNL     1      -8.799   8.894  68.175  1.00  0.00    -0.134 A  
HETATM   30  C   UNL     1      -8.334   9.524  69.343  1.00  0.00    -0.140 A  
HETATM   31 CL   UNL     1      -8.845   9.034  70.922  1.00  0.00    -0.270 Cl 
HETATM   32  C   UNL     1      -7.429  10.592  69.277  1.00  0.00    -0.130 A  
HETATM   33  C   UNL     1      -6.990  11.065  68.045  1.00  0.00    -0.068 A  
HETATM   34  C   UNL     1      -7.479  10.491  66.876  1.00  0.00    -0.110 A  
HETATM   35  C   UNL     1      -8.384   9.424  66.939  1.00  0.00    -0.127 A  
HETATM   36 CL   UNL     1      -8.958   8.800  65.430  1.00  0.00    -0.232 Cl 
ENDBRANCH  28  29
ENDBRANCH  27  28
ENDBRANCH  26  27
ENDBRANCH  25  26
ENDBRANCH  24  25
ENDBRANCH  23  24
ENDBRANCH  22  23
ENDBRANCH  21  22
ENDBRANCH  20  21
ENDBRANCH  19  20
ENDBRANCH  18  19
ENDBRANCH  16  18
ENDBRANCH  15  16
ENDBRANCH  12  15
ENDBRANCH  10  12
ENDBRANCH   2   4
TORSDOF 16
ENDMDL
MODEL       68
REMARK 921   NORMALIZED FREE ENERGY PREDICTED BY IDOCK:   -5.61 KCAL/MOL
REMARK 922        TOTAL FREE ENERGY PREDICTED BY IDOCK:  -12.94 KCAL/MOL
REMARK 923 INTER-LIGAND FREE ENERGY PREDICTED BY IDOCK:  -10.96 KCAL/MOL
REMARK 924 INTRA-LIGAND FREE ENERGY PREDICTED BY IDOCK:   -1.97 KCAL/MOL
REMARK 927      BINDING AFFINITY PREDICTED BY RF-SCORE:    0.00 PKD
ROOT
HETATM    1  O   UNL     1     -12.602  15.223  69.667  1.00  0.00    -0.587 OA 
HETATM    2  C   UNL     1     -12.061  14.092  68.982  1.00  0.00    -0.313 C  
HETATM    3  H   UNL     1     -12.909  14.982  70.533  1.00  0.00     0.000 HD 
ENDROOT
BRANCH   2   4
HETATM    4  C   UNL     1     -11.574  14.474  67.608  1.00  0.00    -0.402 A  
HETATM    5  C   UNL     1     -10.881  15.660  67.340  1.00  0.00    -0.315 A  
HETATM    6  O   UNL     1     -10.529  16.530  68.333  1.00  0.00    -0.274 OA 
HETATM    7  C   UNL     1     -10.512  16.008  66.044  1.00  0.00    -0.356 A  
HETATM    8  C   UNL     1     -10.827  15.163  64.982  1.00  0.00    -0.457 A  
HETATM    9  H   UNL     1     -10.058  17.335  68.151  1.00  0.00     0.000 HD 
HETATM   10  C   UNL     1     -11.519  13.965  65.208  1.00  0.00    -0.319 A  
HETATM   11  C   UNL     1     -11.898  13.641  66.523  1.00  0.00    -0.441 A  
BRANCH  10  12
HETATM   12  C   UNL     1     -11.912  13.094  64.033  1.00  0.00    -0.460 C  
HETATM   13  O   UNL     1     -12.490  13.896  62.993  1.00  0.00    -1.099 OA 
HETATM   14  H   UNL     1     -12.736  13.350  62.256  1.00  0.00     0.000 HD 
BRANCH  12  15
HETATM   15  C   UNL     1     -10.679  12.346  63.484  1.00  0.00    -0.430 C  
BRANCH  15  16
HETATM   16  N   UNL     1     -10.793  10.894  63.701  1.00  0.00    -0.508 NA 
HETATM   17  H   UNL     1     -10.259  10.361  63.014  1.00  0.00     0.000 HD 
BRANCH  16  18
HETATM   18  C   UNL     1     -10.410  10.559  65.069  1.00  0.00    -0.240 C  
BRANCH  18  19
HETATM   19  C   UNL     1      -8.961  10.967  65.323  1.00  0.00    -0.202 C  
BRANCH  19  20
HETATM   20  C   UNL     1      -8.205   9.825  66.002  1.00  0.00    -0.117 C  
BRANCH  20  21
HETATM   21  C   UNL     1      -8.513   8.489  65.337  1.00  0.00    -0.190 C  
BRANCH  21  22
HETATM   22  C   UNL     1      -8.239   7.325  66.285  1.00  0.00    -0.123 C  
BRANCH  22  23
HETATM   23  C   UNL     1      -8.602   6.003  65.628  1.00  0.00    -0.153 C  
BRANCH  23  24
HETATM   24  O   UNL     1      -9.222   5.164  66.597  1.00  0.00    -0.123 OA 
BRANCH  24  25
HETATM   25  C   UNL     1     -10.472   5.712  67.012  1.00  0.00    -0.281 C  
BRANCH  25  26
HETATM   26  C   UNL     1     -10.486   5.868  68.523  1.00  0.00    -0.238 C  
BRANCH  26  27
HETATM   27  O   UNL     1     -11.104   7.112  68.852  1.00  0.00    -0.116 OA 
BRANCH  27  28
HETATM   28  C   UNL     1     -10.381   7.797  69.865  1.00  0.00    -0.223 C  
BRANCH  28  29
HETATM   29  C   UNL     1     -11.311   8.757  70.556  1.00  0.00    -0.255 A  
HETATM   30  C   UNL     1     -11.340  10.121  70.213  1.00  0.00    -0.315 A  
HETATM   31 CL   UNL     1     -10.272  10.799  69.032  1.00  0.00    -0.217 Cl 
HETATM   32  C   UNL     1     -12.244  11.000  70.823  1.00  0.00    -0.480 A  
HETATM   33  C   UNL     1     -13.118  10.540  71.803  1.00  0.00    -0.570 A  
HETATM   34  C   UNL     1     -13.069   9.207  72.194  1.00  0.00    -0.516 A  
HETATM   35  C   UNL     1     -12.166   8.325  71.586  1.00  0.00    -0.313 A  
HETATM   36 CL   UNL     1     -12.160   6.694  72.166  1.00  0.00    -0.330 Cl 
ENDBRANCH  28  29
ENDBRANCH  27  28
ENDBRANCH  26  27
ENDBRANCH  25  26
ENDBRANCH  24  25
ENDBRANCH  23  24
ENDBRANCH  22  23
ENDBRANCH  21  22
ENDBRANCH  20  21
ENDBRANCH  19  20
ENDBRANCH  18  19
ENDBRANCH  16  18
ENDBRANCH  15  16
ENDBRANCH  12  15
ENDBRANCH  10  12
ENDBRANCH   2   4
TORSDOF 16
ENDMDL
MODEL       69
REMARK 921   NORMALIZED FREE ENERGY PREDICTED BY IDOCK:   -5.61 KCAL/MOL
REMARK 922        TOTAL FREE ENERGY PREDICTED BY IDOCK:  -12.93 KCAL/MOL
REMARK 923 INTER-LIGAND FREE ENERGY PREDICTED BY IDOCK:  -10.86 KCAL/MOL
REMARK 924 INTRA-LIGAND FREE ENERGY PREDICTED BY IDOCK:   -2.07 KCAL/MOL
REMARK 927      BINDING AFFINITY PREDICTED BY RF-SCORE:    0.00 PKD
ROOT
HETATM    1  O   UNL     1     -11.217   5.287  66.080  1.00  0.00    -0.780 OA 
HETATM    2  C   UNL     1     -11.036   6.373  66.989  1.00  0.00    -0.389 C  
HETATM    3  H   UNL     1     -11.467   5.600  65.219  1.00  0.00     0.000 HD 
ENDROOT
BRANCH   2   4
HETATM    4  C   UNL     1     -10.639   5.875  68.354  1.00  0.00    -0.314 A  
HETATM    5  C   UNL     1      -9.626   4.932  68.565  1.00  0.00    -0.152 A  
HETATM    6  O   UNL     1      -8.867   4.447  67.537  1.00  0.00    -0.104 OA 
HETATM    7  C   UNL     1      -9.340   4.445  69.837  1.00  0.00    -0.225 A  
HETATM    8  C   UNL     1     -10.065   4.903  70.935  1.00  0.00    -0.292 A  
HETATM    9  H   UNL     1      -8.179   3.808  67.679  1.00  0.00     0.000 HD 
HETATM   10  C   UNL     1     -11.087   5.848  70.768  1.00  0.00    -0.324 A  
HETATM   11  C   UNL     1     -11.371   6.313  69.472  1.00  0.00    -0.475 A  
BRANCH  10  12
HETATM   12  C   UNL     1     -11.908   6.282  71.963  1.00  0.00    -0.318 C  
HETATM   13  O   UNL     1     -11.730   5.360  73.048  1.00  0.00    -0.503 OA 
HETATM   14  H   UNL     1     -12.245   5.632  73.798  1.00  0.00     0.000 HD 
BRANCH  12  15
HETATM   15  C   UNL     1     -11.494   7.698  72.414  1.00  0.00    -0.340 C  
BRANCH  15  16
HETATM   16  N   UNL     1     -12.669   8.517  72.756  1.00  0.00    -0.612 NA 
HETATM   17  H   UNL     1     -12.485   9.139  73.543  1.00  0.00     0.000 HD 
BRANCH  16  18
HETATM   18  C   UNL     1     -13.131   9.247  71.580  1.00  0.00    -0.363 C  
BRANCH  18  19
HETATM   19  C   UNL     1     -13.021  10.751  71.819  1.00  0.00    -0.568 C  
BRANCH  19  20
HETATM   20  C   UNL     1     -12.386  11.431  70.606  1.00  0.00    -0.466 C  
BRANCH  20  21
HETATM   21  C   UNL     1     -11.094  10.733  70.198  1.00  0.00    -0.298 C  
BRANCH  21  22
HETATM   22  C   UNL     1     -11.031  10.528  68.688  1.00  0.00    -0.294 C  
BRANCH  22  23
HETATM   23  C   UNL     1     -10.036   9.434  68.337  1.00  0.00    -0.170 C  
BRANCH  23  24
HETATM   24  O   UNL     1      -9.036   9.979  67.483  1.00  0.00    -0.134 OA 
BRANCH  24  25
HETATM   25  C   UNL     1      -8.680   9.047  66.465  1.00  0.00    -0.129 C  
BRANCH  25  26
HETATM   26  C   UNL     1      -8.523   9.773  65.139  1.00  0.00    -0.149 C  
BRANCH  26  27
HETATM   27  O   UNL     1      -9.800  10.263  64.728  1.00  0.00    -0.307 OA 
BRANCH  27  28
HETATM   28  C   UNL     1      -9.708  11.587  64.223  1.00  0.00    -0.202 C  
BRANCH  28  29
HETATM   29  C   UNL     1     -10.603  12.478  65.042  1.00  0.00    -0.329 A  
HETATM   30  C   UNL     1     -10.119  13.161  66.171  1.00  0.00    -0.291 A  
HETATM   31 CL   UNL     1      -8.493  12.976  66.736  1.00  0.00    -0.080 Cl 
HETATM   32  C   UNL     1     -10.943  14.030  66.899  1.00  0.00    -0.301 A  
HETATM   33  C   UNL     1     -12.271  14.213  66.528  1.00  0.00    -0.463 A  
HETATM   34  C   UNL     1     -12.784  13.506  65.446  1.00  0.00    -0.495 A  
HETATM   35  C   UNL     1     -11.962  12.637  64.716  1.00  0.00    -0.402 A  
HETATM   36 CL   UNL     1     -12.703  11.780  63.408  1.00  0.00    -0.588 Cl 
ENDBRANCH  28  29
ENDBRANCH  27  28
ENDBRANCH  26  27
ENDBRANCH  25  26
ENDBRANCH  24  25
ENDBRANCH  23  24
ENDBRANCH  22  23
ENDBRANCH  21  22
ENDBRANCH  20  21
ENDBRANCH  19  20
ENDBRANCH  18  19
ENDBRANCH  16  18
ENDBRANCH  15  16
ENDBRANCH  12  15
ENDBRANCH  10  12
ENDBRANCH   2   4
TORSDOF 16
ENDMDL
MODEL       70
REMARK 921   NORMALIZED FREE ENERGY PREDICTED BY IDOCK:   -5.61 KCAL/MOL
REMARK 922        TOTAL FREE ENERGY PREDICTED BY IDOCK:  -12.92 KCAL/MOL
REMARK 923 INTER-LIGAND FREE ENERGY PREDICTED BY IDOCK:  -10.96 KCAL/MOL
REMARK 924 INTRA-LIGAND FREE ENERGY PREDICTED BY IDOCK:   -1.97 KCAL/MOL
REMARK 927      BINDING AFFINITY PREDICTED BY RF-SCORE:    0.00 PKD
ROOT
HETATM    1  O   UNL     1     -11.078   5.409  66.109  1.00  0.00    -0.748 OA 
HETATM    2  C   UNL     1     -10.998   6.512  67.012  1.00  0.00    -0.396 C  
HETATM    3  H   UNL     1     -11.314   5.700  65.236  1.00  0.00     0.000 HD 
ENDROOT
BRANCH   2   4
HETATM    4  C   UNL     1     -10.623   6.051  68.397  1.00  0.00    -0.322 A  
HETATM    5  C   UNL     1      -9.563   5.174  68.655  1.00  0.00    -0.142 A  
HETATM    6  O   UNL     1      -8.738   4.728  67.661  1.00  0.00    -0.104 OA 
HETATM    7  C   UNL     1      -9.296   4.717  69.942  1.00  0.00    -0.214 A  
HETATM    8  C   UNL     1     -10.088   5.139  71.007  1.00  0.00    -0.297 A  
HETATM    9  H   UNL     1      -8.018   4.133  67.836  1.00  0.00     0.000 HD 
HETATM   10  C   UNL     1     -11.159   6.018  70.792  1.00  0.00    -0.355 A  
HETATM   11  C   UNL     1     -11.422   6.454  69.481  1.00  0.00    -0.412 A  
BRANCH  10  12
HETATM   12  C   UNL     1     -12.050   6.411  71.951  1.00  0.00    -0.310 C  
HETATM   13  O   UNL     1     -11.912   5.468  73.024  1.00  0.00    -0.554 OA 
HETATM   14  H   UNL     1     -12.471   5.714  73.751  1.00  0.00     0.000 HD 
BRANCH  12  15
HETATM   15  C   UNL     1     -11.685   7.823  72.454  1.00  0.00    -0.341 C  
BRANCH  15  16
HETATM   16  N   UNL     1     -12.883   8.568  72.876  1.00  0.00    -0.677 NA 
HETATM   17  H   UNL     1     -12.681   9.217  73.637  1.00  0.00     0.000 HD 
BRANCH  16  18
HETATM   18  C   UNL     1     -13.484   9.242  71.730  1.00  0.00    -0.415 C  
BRANCH  18  19
HETATM   19  C   UNL     1     -12.952  10.669  71.621  1.00  0.00    -0.582 C  
BRANCH  19  20
HETATM   20  C   UNL     1     -12.307  10.886  70.252  1.00  0.00    -0.412 C  
BRANCH  20  21
HETATM   21  C   UNL     1     -10.891  10.325  70.216  1.00  0.00    -0.349 C  
BRANCH  21  22
HETATM   22  C   UNL     1     -10.520   9.851  68.814  1.00  0.00    -0.234 C  
BRANCH  22  23
HETATM   23  C   UNL     1      -9.169  10.410  68.400  1.00  0.00    -0.147 C  
BRANCH  23  24
HETATM   24  O   UNL     1      -9.367  11.376  67.373  1.00  0.00    -0.165 OA 
BRANCH  24  25
HETATM   25  C   UNL     1     -10.330  10.916  66.427  1.00  0.00    -0.251 C  
BRANCH  25  26
HETATM   26  C   UNL     1     -11.308  12.034  66.107  1.00  0.00    -0.351 C  
BRANCH  26  27
HETATM   27  O   UNL     1     -11.403  12.901  67.237  1.00  0.00    -0.278 OA 
BRANCH  27  28
HETATM   28  C   UNL     1     -12.117  14.087  66.922  1.00  0.00    -0.430 C  
BRANCH  28  29
HETATM   29  C   UNL     1     -11.283  15.274  67.321  1.00  0.00    -0.306 A  
HETATM   30  C   UNL     1     -10.471  15.943  66.389  1.00  0.00    -0.308 A  
HETATM   31 CL   UNL     1     -10.321  15.414  64.748  1.00  0.00    -0.241 Cl 
HETATM   32  C   UNL     1      -9.736  17.079  66.754  1.00  0.00    -0.276 A  
HETATM   33  C   UNL     1      -9.780  17.552  68.061  1.00  0.00    -0.287 A  
HETATM   34  C   UNL     1     -10.535  16.874  69.012  1.00  0.00    -0.341 A  
HETATM   35  C   UNL     1     -11.271  15.738  68.649  1.00  0.00    -0.351 A  
HETATM   36 CL   UNL     1     -12.152  14.946  69.911  1.00  0.00    -0.362 Cl 
ENDBRANCH  28  29
ENDBRANCH  27  28
ENDBRANCH  26  27
ENDBRANCH  25  26
ENDBRANCH  24  25
ENDBRANCH  23  24
ENDBRANCH  22  23
ENDBRANCH  21  22
ENDBRANCH  20  21
ENDBRANCH  19  20
ENDBRANCH  18  19
ENDBRANCH  16  18
ENDBRANCH  15  16
ENDBRANCH  12  15
ENDBRANCH  10  12
ENDBRANCH   2   4
TORSDOF 16
ENDMDL
MODEL       71
REMARK 921   NORMALIZED FREE ENERGY PREDICTED BY IDOCK:   -5.60 KCAL/MOL
REMARK 922        TOTAL FREE ENERGY PREDICTED BY IDOCK:  -12.91 KCAL/MOL
REMARK 923 INTER-LIGAND FREE ENERGY PREDICTED BY IDOCK:  -10.96 KCAL/MOL
REMARK 924 INTRA-LIGAND FREE ENERGY PREDICTED BY IDOCK:   -1.95 KCAL/MOL
REMARK 927      BINDING AFFINITY PREDICTED BY RF-SCORE:    0.00 PKD
ROOT
HETATM    1  O   UNL     1      -8.427  20.337  65.828  1.00  0.00    -0.536 OA 
HETATM    2  C   UNL     1      -9.173  19.691  66.860  1.00  0.00    -0.350 C  
HETATM    3  H   UNL     1      -8.423  21.280  65.948  1.00  0.00     0.000 HD 
ENDROOT
BRANCH   2   4
HETATM    4  C   UNL     1      -9.180  18.197  66.668  1.00  0.00    -0.295 A  
HETATM    5  C   UNL     1      -8.137  17.363  67.088  1.00  0.00    -0.208 A  
HETATM    6  O   UNL     1      -7.060  17.846  67.777  1.00  0.00    -0.198 OA 
HETATM    7  C   UNL     1      -8.150  15.996  66.827  1.00  0.00    -0.302 A  
HETATM    8  C   UNL     1      -9.222  15.430  66.140  1.00  0.00    -0.362 A  
HETATM    9  H   UNL     1      -6.353  17.280  68.062  1.00  0.00     0.000 HD 
HETATM   10  C   UNL     1     -10.287  16.230  65.703  1.00  0.00    -0.385 A  
HETATM   11  C   UNL     1     -10.245  17.612  65.961  1.00  0.00    -0.301 A  
BRANCH  10  12
HETATM   12  C   UNL     1     -11.409  15.609  64.898  1.00  0.00    -0.315 C  
HETATM   13  O   UNL     1     -11.618  16.348  63.686  1.00  0.00    -1.514 OA 
HETATM   14  H   UNL     1     -12.321  15.958  63.181  1.00  0.00     0.000 HD 
BRANCH  12  15
HETATM   15  C   UNL     1     -11.077  14.141  64.558  1.00  0.00    -0.330 C  
BRANCH  15  16
HETATM   16  N   UNL     1     -12.062  13.218  65.146  1.00  0.00    -0.387 NA 
HETATM   17  H   UNL     1     -12.789  12.960  64.478  1.00  0.00     0.000 HD 
BRANCH  16  18
HETATM   18  C   UNL     1     -11.388  12.048  65.698  1.00  0.00    -0.329 C  
BRANCH  18  19
HETATM   19  C   UNL     1     -11.762  11.871  67.167  1.00  0.00    -0.311 C  
BRANCH  19  20
HETATM   20  C   UNL     1     -11.797  13.228  67.869  1.00  0.00    -0.388 C  
BRANCH  20  21
HETATM   21  C   UNL     1     -11.729  13.066  69.383  1.00  0.00    -0.386 C  
BRANCH  21  22
HETATM   22  C   UNL     1     -11.794  11.596  69.784  1.00  0.00    -0.428 C  
BRANCH  22  23
HETATM   23  C   UNL     1     -12.953  11.351  70.736  1.00  0.00    -0.049 C  
BRANCH  23  24
HETATM   24  O   UNL     1     -12.463  10.679  71.892  1.00  0.00    -0.294 OA 
BRANCH  24  25
HETATM   25  C   UNL     1     -12.801   9.294  71.851  1.00  0.00    -0.404 C  
BRANCH  25  26
HETATM   26  C   UNL     1     -11.558   8.457  72.103  1.00  0.00    -0.374 C  
BRANCH  26  27
HETATM   27  O   UNL     1     -10.421   9.154  71.594  1.00  0.00    -0.331 OA 
BRANCH  27  28
HETATM   28  C   UNL     1      -9.490   8.261  70.998  1.00  0.00    -0.161 C  
BRANCH  28  29
HETATM   29  C   UNL     1      -9.625   8.352  69.502  1.00  0.00    -0.170 A  
HETATM   30  C   UNL     1     -10.439   7.458  68.786  1.00  0.00    -0.199 A  
HETATM   31 CL   UNL     1     -11.286   6.160  69.557  1.00  0.00    -0.487 Cl 
HETATM   32  C   UNL     1     -10.601   7.579  67.399  1.00  0.00    -0.364 A  
HETATM   33  C   UNL     1      -9.934   8.579  66.700  1.00  0.00    -0.363 A  
HETATM   34  C   UNL     1      -9.081   9.440  67.382  1.00  0.00    -0.141 A  
HETATM   35  C   UNL     1      -8.917   9.321  68.768  1.00  0.00    -0.132 A  
HETATM   36 CL   UNL     1      -7.810  10.420  69.518  1.00  0.00    -0.164 Cl 
ENDBRANCH  28  29
ENDBRANCH  27  28
ENDBRANCH  26  27
ENDBRANCH  25  26
ENDBRANCH  24  25
ENDBRANCH  23  24
ENDBRANCH  22  23
ENDBRANCH  21  22
ENDBRANCH  20  21
ENDBRANCH  19  20
ENDBRANCH  18  19
ENDBRANCH  16  18
ENDBRANCH  15  16
ENDBRANCH  12  15
ENDBRANCH  10  12
ENDBRANCH   2   4
TORSDOF 16
ENDMDL
MODEL       72
REMARK 921   NORMALIZED FREE ENERGY PREDICTED BY IDOCK:   -5.59 KCAL/MOL
REMARK 922        TOTAL FREE ENERGY PREDICTED BY IDOCK:  -12.90 KCAL/MOL
REMARK 923 INTER-LIGAND FREE ENERGY PREDICTED BY IDOCK:   -9.33 KCAL/MOL
REMARK 924 INTRA-LIGAND FREE ENERGY PREDICTED BY IDOCK:   -3.57 KCAL/MOL
REMARK 927      BINDING AFFINITY PREDICTED BY RF-SCORE:    0.00 PKD
ROOT
HETATM    1  O   UNL     1      -6.981  14.932  66.804  1.00  0.00    -0.236 OA 
HETATM    2  C   UNL     1      -7.992  15.938  66.732  1.00  0.00    -0.252 C  
HETATM    3  H   UNL     1      -6.121  15.300  66.641  1.00  0.00     0.000 HD 
ENDROOT
BRANCH   2   4
HETATM    4  C   UNL     1      -9.356  15.353  66.992  1.00  0.00    -0.238 A  
HETATM    5  C   UNL     1      -9.783  14.930  68.255  1.00  0.00    -0.215 A  
HETATM    6  O   UNL     1      -9.008  15.088  69.370  1.00  0.00    -0.350 OA 
HETATM    7  C   UNL     1     -11.025  14.329  68.438  1.00  0.00    -0.267 A  
HETATM    8  C   UNL     1     -11.875  14.146  67.350  1.00  0.00    -0.447 A  
HETATM    9  H   UNL     1      -9.298  14.800  70.228  1.00  0.00     0.000 HD 
HETATM   10  C   UNL     1     -11.486  14.558  66.068  1.00  0.00    -0.348 A  
HETATM   11  C   UNL     1     -10.220  15.146  65.902  1.00  0.00    -0.345 A  
BRANCH  10  12
HETATM   12  C   UNL     1     -12.394  14.288  64.886  1.00  0.00    -0.425 C  
HETATM   13  O   UNL     1     -12.085  15.183  63.809  1.00  0.00    -0.939 OA 
HETATM   14  H   UNL     1     -12.654  15.014  63.068  1.00  0.00     0.000 HD 
BRANCH  12  15
HETATM   15  C   UNL     1     -12.236  12.829  64.409  1.00  0.00    -0.428 C  
BRANCH  15  16
HETATM   16  N   UNL     1     -11.421  12.752  63.185  1.00  0.00    -0.795 NA 
HETATM   17  H   UNL     1     -11.129  13.674  62.861  1.00  0.00     0.000 HD 
BRANCH  16  18
HETATM   18  C   UNL     1     -10.284  11.862  63.394  1.00  0.00    -0.449 C  
BRANCH  18  19
HETATM   19  C   UNL     1     -10.378  11.202  64.767  1.00  0.00    -0.387 C  
BRANCH  19  20
HETATM   20  C   UNL     1      -8.980  10.866  65.286  1.00  0.00    -0.202 C  
BRANCH  20  21
HETATM   21  C   UNL     1      -8.599  11.762  66.459  1.00  0.00    -0.148 C  
BRANCH  21  22
HETATM   22  C   UNL     1      -7.239  11.373  67.031  1.00  0.00    -0.141 C  
BRANCH  22  23
HETATM   23  C   UNL     1      -7.398  10.732  68.400  1.00  0.00    -0.092 C  
BRANCH  23  24
HETATM   24  O   UNL     1      -6.812   9.435  68.370  1.00  0.00    -0.062 OA 
BRANCH  24  25
HETATM   25  C   UNL     1      -6.312   9.077  69.656  1.00  0.00    -0.039 C  
BRANCH  25  26
HETATM   26  C   UNL     1      -6.954   7.777  70.112  1.00  0.00    -0.050 C  
BRANCH  26  27
HETATM   27  O   UNL     1      -7.935   7.386  69.151  1.00  0.00    -0.114 OA 
BRANCH  27  28
HETATM   28  C   UNL     1      -9.200   7.174  69.760  1.00  0.00    -0.143 C  
BRANCH  28  29
HETATM   29  C   UNL     1     -10.051   8.395  69.543  1.00  0.00    -0.200 A  
HETATM   30  C   UNL     1     -10.416   9.231  70.613  1.00  0.00    -0.262 A  
HETATM   31 CL   UNL     1      -9.974   8.882  72.250  1.00  0.00    -0.302 Cl 
HETATM   32  C   UNL     1     -11.165  10.396  70.398  1.00  0.00    -0.399 A  
HETATM   33  C   UNL     1     -11.584  10.733  69.115  1.00  0.00    -0.376 A  
HETATM   34  C   UNL     1     -11.280   9.892  68.050  1.00  0.00    -0.129 A  
HETATM   35  C   UNL     1     -10.530   8.727  68.263  1.00  0.00    -0.187 A  
HETATM   36 CL   UNL     1     -10.232   7.731  66.880  1.00  0.00    -0.357 Cl 
ENDBRANCH  28  29
ENDBRANCH  27  28
ENDBRANCH  26  27
ENDBRANCH  25  26
ENDBRANCH  24  25
ENDBRANCH  23  24
ENDBRANCH  22  23
ENDBRANCH  21  22
ENDBRANCH  20  21
ENDBRANCH  19  20
ENDBRANCH  18  19
ENDBRANCH  16  18
ENDBRANCH  15  16
ENDBRANCH  12  15
ENDBRANCH  10  12
ENDBRANCH   2   4
TORSDOF 16
ENDMDL
MODEL       73
REMARK 921   NORMALIZED FREE ENERGY PREDICTED BY IDOCK:   -5.58 KCAL/MOL
REMARK 922        TOTAL FREE ENERGY PREDICTED BY IDOCK:  -12.88 KCAL/MOL
REMARK 923 INTER-LIGAND FREE ENERGY PREDICTED BY IDOCK:  -10.62 KCAL/MOL
REMARK 924 INTRA-LIGAND FREE ENERGY PREDICTED BY IDOCK:   -2.26 KCAL/MOL
REMARK 927      BINDING AFFINITY PREDICTED BY RF-SCORE:    0.00 PKD
ROOT
HETATM    1  O   UNL     1     -12.651  14.244  63.103  1.00  0.00    -1.028 OA 
HETATM    2  C   UNL     1     -12.026  13.524  64.166  1.00  0.00    -0.448 C  
HETATM    3  H   UNL     1     -12.821  13.677  62.360  1.00  0.00     0.000 HD 
ENDROOT
BRANCH   2   4
HETATM    4  C   UNL     1     -11.756  14.425  65.343  1.00  0.00    -0.362 A  
HETATM    5  C   UNL     1     -11.373  15.765  65.215  1.00  0.00    -0.093 A  
HETATM    6  O   UNL     1     -11.287  16.377  63.996  1.00  0.00    -1.416 OA 
HETATM    7  C   UNL     1     -11.064  16.541  66.328  1.00  0.00     0.237 A  
HETATM    8  C   UNL     1     -11.141  15.988  67.604  1.00  0.00    -0.243 A  
HETATM    9  H   UNL     1     -11.027  17.286  63.909  1.00  0.00     0.000 HD 
HETATM   10  C   UNL     1     -11.523  14.650  67.777  1.00  0.00    -0.359 A  
HETATM   11  C   UNL     1     -11.813  13.878  66.638  1.00  0.00    -0.447 A  
BRANCH  10  12
HETATM   12  C   UNL     1     -11.535  14.048  69.166  1.00  0.00    -0.296 C  
HETATM   13  O   UNL     1     -12.639  14.565  69.920  1.00  0.00    -0.495 OA 
HETATM   14  H   UNL     1     -12.647  14.187  70.792  1.00  0.00     0.000 HD 
BRANCH  12  15
HETATM   15  C   UNL     1     -11.638  12.510  69.083  1.00  0.00    -0.320 C  
BRANCH  15  16
HETATM   16  N   UNL     1     -11.658  11.902  70.424  1.00  0.00    -0.503 NA 
HETATM   17  H   UNL     1     -11.902  12.579  71.147  1.00  0.00     0.000 HD 
BRANCH  16  18
HETATM   18  C   UNL     1     -12.546  10.745  70.438  1.00  0.00    -0.314 C  
BRANCH  18  19
HETATM   19  C   UNL     1     -13.235  10.628  71.795  1.00  0.00    -0.526 C  
BRANCH  19  20
HETATM   20  C   UNL     1     -13.553   9.164  72.099  1.00  0.00    -0.534 C  
BRANCH  20  21
HETATM   21  C   UNL     1     -12.278   8.364  72.343  1.00  0.00    -0.430 C  
BRANCH  21  22
HETATM   22  C   UNL     1     -12.388   6.960  71.757  1.00  0.00    -0.401 C  
BRANCH  22  23
HETATM   23  C   UNL     1     -11.079   6.205  71.927  1.00  0.00    -0.274 C  
BRANCH  23  24
HETATM   24  O   UNL     1     -10.274   6.419  70.773  1.00  0.00    -0.185 OA 
BRANCH  24  25
HETATM   25  C   UNL     1     -10.995   6.094  69.587  1.00  0.00    -0.389 C  
BRANCH  25  26
HETATM   26  C   UNL     1     -10.455   6.904  68.420  1.00  0.00    -0.204 C  
BRANCH  26  27
HETATM   27  O   UNL     1      -9.657   7.972  68.931  1.00  0.00    -0.151 OA 
BRANCH  27  28
HETATM   28  C   UNL     1      -8.561   8.256  68.072  1.00  0.00    -0.132 C  
BRANCH  28  29
HETATM   29  C   UNL     1      -8.543   9.733  67.787  1.00  0.00    -0.125 A  
HETATM   30  C   UNL     1      -7.959  10.644  68.684  1.00  0.00    -0.128 A  
HETATM   31 CL   UNL     1      -7.286  10.146  70.199  1.00  0.00    -0.168 Cl 
HETATM   32  C   UNL     1      -7.900  12.013  68.389  1.00  0.00    -0.147 A  
HETATM   33  C   UNL     1      -8.443  12.499  67.204  1.00  0.00    -0.186 A  
HETATM   34  C   UNL     1      -9.073  11.622  66.328  1.00  0.00    -0.219 A  
HETATM   35  C   UNL     1      -9.134  10.254  66.621  1.00  0.00    -0.144 A  
HETATM   36 CL   UNL     1      -9.967   9.251  65.482  1.00  0.00    -0.187 Cl 
ENDBRANCH  28  29
ENDBRANCH  27  28
ENDBRANCH  26  27
ENDBRANCH  25  26
ENDBRANCH  24  25
ENDBRANCH  23  24
ENDBRANCH  22  23
ENDBRANCH  21  22
ENDBRANCH  20  21
ENDBRANCH  19  20
ENDBRANCH  18  19
ENDBRANCH  16  18
ENDBRANCH  15  16
ENDBRANCH  12  15
ENDBRANCH  10  12
ENDBRANCH   2   4
TORSDOF 16
ENDMDL
MODEL       74
REMARK 921   NORMALIZED FREE ENERGY PREDICTED BY IDOCK:   -5.58 KCAL/MOL
REMARK 922        TOTAL FREE ENERGY PREDICTED BY IDOCK:  -12.88 KCAL/MOL
REMARK 923 INTER-LIGAND FREE ENERGY PREDICTED BY IDOCK:  -10.63 KCAL/MOL
REMARK 924 INTRA-LIGAND FREE ENERGY PREDICTED BY IDOCK:   -2.24 KCAL/MOL
REMARK 927      BINDING AFFINITY PREDICTED BY RF-SCORE:    0.00 PKD
ROOT
HETATM    1  O   UNL     1     -11.116  11.005  62.729  1.00  0.00    -0.721 OA 
HETATM    2  C   UNL     1     -10.240  11.854  63.471  1.00  0.00    -0.457 C  
HETATM    3  H   UNL     1     -10.658  10.591  62.006  1.00  0.00     0.000 HD 
ENDROOT
BRANCH   2   4
HETATM    4  C   UNL     1     -10.966  12.510  64.617  1.00  0.00    -0.345 A  
HETATM    5  C   UNL     1     -12.009  13.427  64.442  1.00  0.00    -0.411 A  
HETATM    6  O   UNL     1     -12.496  13.739  63.203  1.00  0.00    -1.089 OA 
HETATM    7  C   UNL     1     -12.605  14.065  65.527  1.00  0.00    -0.543 A  
HETATM    8  C   UNL     1     -12.169  13.787  66.820  1.00  0.00    -0.440 A  
HETATM    9  H   UNL     1     -13.203  14.362  63.085  1.00  0.00     0.000 HD 
HETATM   10  C   UNL     1     -11.129  12.874  67.039  1.00  0.00    -0.309 A  
HETATM   11  C   UNL     1     -10.528  12.254  65.928  1.00  0.00    -0.288 A  
BRANCH  10  12
HETATM   12  C   UNL     1     -10.623  12.637  68.447  1.00  0.00    -0.243 C  
HETATM   13  O   UNL     1     -10.269  13.884  69.061  1.00  0.00    -0.390 OA 
HETATM   14  H   UNL     1      -9.952  13.735  69.945  1.00  0.00     0.000 HD 
BRANCH  12  15
HETATM   15  C   UNL     1     -11.703  11.931  69.293  1.00  0.00    -0.328 C  
BRANCH  15  16
HETATM   16  N   UNL     1     -12.022  12.702  70.506  1.00  0.00    -0.533 NA 
HETATM   17  H   UNL     1     -12.477  13.588  70.287  1.00  0.00     0.000 HD 
BRANCH  16  18
HETATM   18  C   UNL     1     -12.819  11.892  71.421  1.00  0.00    -0.307 C  
BRANCH  18  19
HETATM   19  C   UNL     1     -12.894  10.453  70.920  1.00  0.00    -0.482 C  
BRANCH  19  20
HETATM   20  C   UNL     1     -13.212   9.508  72.078  1.00  0.00    -0.539 C  
BRANCH  20  21
HETATM   21  C   UNL     1     -12.069   8.527  72.317  1.00  0.00    -0.455 C  
BRANCH  21  22
HETATM   22  C   UNL     1     -10.839   8.904  71.497  1.00  0.00    -0.396 C  
BRANCH  22  23
HETATM   23  C   UNL     1     -10.263   7.679  70.804  1.00  0.00    -0.201 C  
BRANCH  23  24
HETATM   24  O   UNL     1      -8.940   7.978  70.370  1.00  0.00    -0.143 OA 
BRANCH  24  25
HETATM   25  C   UNL     1      -8.245   6.785  70.014  1.00  0.00    -0.134 C  
BRANCH  25  26
HETATM   26  C   UNL     1      -9.244   5.694  69.667  1.00  0.00    -0.137 C  
BRANCH  26  27
HETATM   27  O   UNL     1      -9.053   5.312  68.305  1.00  0.00    -0.108 OA 
BRANCH  27  28
HETATM   28  C   UNL     1     -10.045   5.882  67.463  1.00  0.00    -0.165 C  
BRANCH  28  29
HETATM   29  C   UNL     1      -9.365   6.731  66.424  1.00  0.00    -0.175 A  
HETATM   30  C   UNL     1      -9.555   8.124  66.379  1.00  0.00    -0.216 A  
HETATM   31 CL   UNL     1     -10.627   8.944  67.461  1.00  0.00    -0.336 Cl 
HETATM   32  C   UNL     1      -8.879   8.916  65.441  1.00  0.00    -0.234 A  
HETATM   33  C   UNL     1      -8.020   8.330  64.518  1.00  0.00    -0.146 A  
HETATM   34  C   UNL     1      -7.858   6.949  64.510  1.00  0.00    -0.115 A  
HETATM   35  C   UNL     1      -8.533   6.154  65.447  1.00  0.00    -0.138 A  
HETATM   36 CL   UNL     1      -8.291   4.444  65.335  1.00  0.00    -0.110 Cl 
ENDBRANCH  28  29
ENDBRANCH  27  28
ENDBRANCH  26  27
ENDBRANCH  25  26
ENDBRANCH  24  25
ENDBRANCH  23  24
ENDBRANCH  22  23
ENDBRANCH  21  22
ENDBRANCH  20  21
ENDBRANCH  19  20
ENDBRANCH  18  19
ENDBRANCH  16  18
ENDBRANCH  15  16
ENDBRANCH  12  15
ENDBRANCH  10  12
ENDBRANCH   2   4
TORSDOF 16
ENDMDL
MODEL       75
REMARK 921   NORMALIZED FREE ENERGY PREDICTED BY IDOCK:   -5.58 KCAL/MOL
REMARK 922        TOTAL FREE ENERGY PREDICTED BY IDOCK:  -12.86 KCAL/MOL
REMARK 923 INTER-LIGAND FREE ENERGY PREDICTED BY IDOCK:  -11.26 KCAL/MOL
REMARK 924 INTRA-LIGAND FREE ENERGY PREDICTED BY IDOCK:   -1.61 KCAL/MOL
REMARK 927      BINDING AFFINITY PREDICTED BY RF-SCORE:    0.00 PKD
ROOT
HETATM    1  O   UNL     1     -12.315  13.820  63.058  1.00  0.00    -1.089 OA 
HETATM    2  C   UNL     1     -12.712  12.577  63.636  1.00  0.00    -0.289 C  
HETATM    3  H   UNL     1     -12.994  14.166  62.491  1.00  0.00     0.000 HD 
ENDROOT
BRANCH   2   4
HETATM    4  C   UNL     1     -11.634  12.029  64.534  1.00  0.00    -0.387 A  
HETATM    5  C   UNL     1     -10.635  11.154  64.092  1.00  0.00    -0.368 A  
HETATM    6  O   UNL     1     -10.524  10.790  62.779  1.00  0.00    -0.763 OA 
HETATM    7  C   UNL     1      -9.700  10.615  64.971  1.00  0.00    -0.336 A  
HETATM    8  C   UNL     1      -9.743  10.951  66.322  1.00  0.00    -0.245 A  
HETATM    9  H   UNL     1      -9.846  10.197  62.478  1.00  0.00     0.000 HD 
HETATM   10  C   UNL     1     -10.727  11.824  66.806  1.00  0.00    -0.289 A  
HETATM   11  C   UNL     1     -11.673  12.344  65.904  1.00  0.00    -0.476 A  
BRANCH  10  12
HETATM   12  C   UNL     1     -10.800  12.123  68.289  1.00  0.00    -0.223 C  
HETATM   13  O   UNL     1      -9.997  11.187  69.022  1.00  0.00    -0.285 OA 
HETATM   14  H   UNL     1     -10.043  11.374  69.952  1.00  0.00     0.000 HD 
BRANCH  12  15
HETATM   15  C   UNL     1     -10.310  13.558  68.572  1.00  0.00    -0.240 C  
BRANCH  15  16
HETATM   16  N   UNL     1     -10.921  14.101  69.797  1.00  0.00    -0.455 NA 
HETATM   17  H   UNL     1     -10.896  15.121  69.816  1.00  0.00     0.000 HD 
BRANCH  16  18
HETATM   18  C   UNL     1     -12.277  13.586  69.952  1.00  0.00    -0.292 C  
BRANCH  18  19
HETATM   19  C   UNL     1     -12.792  13.878  71.359  1.00  0.00    -0.439 C  
BRANCH  19  20
HETATM   20  C   UNL     1     -13.365  12.606  71.984  1.00  0.00    -0.555 C  
BRANCH  20  21
HETATM   21  C   UNL     1     -12.752  11.360  71.354  1.00  0.00    -0.489 C  
BRANCH  21  22
HETATM   22  C   UNL     1     -13.372  10.090  71.929  1.00  0.00    -0.516 C  
BRANCH  22  23
HETATM   23  C   UNL     1     -12.350   8.966  71.968  1.00  0.00    -0.390 C  
BRANCH  23  24
HETATM   24  O   UNL     1     -11.070   9.497  71.639  1.00  0.00    -0.371 OA 
BRANCH  24  25
HETATM   25  C   UNL     1     -10.034   8.606  72.045  1.00  0.00    -0.329 C  
BRANCH  25  26
HETATM   26  C   UNL     1     -10.596   7.574  73.009  1.00  0.00    -0.368 C  
BRANCH  26  27
HETATM   27  O   UNL     1      -9.914   6.336  72.807  1.00  0.00    -0.170 OA 
BRANCH  27  28
HETATM   28  C   UNL     1     -10.772   5.359  72.233  1.00  0.00    -0.231 C  
BRANCH  28  29
HETATM   29  C   UNL     1     -10.063   4.716  71.073  1.00  0.00    -0.246 A  
HETATM   30  C   UNL     1      -9.183   3.636  71.261  1.00  0.00    -0.127 A  
HETATM   31 CL   UNL     1      -8.805   3.016  72.832  1.00  0.00    -0.089 Cl 
HETATM   32  C   UNL     1      -8.566   3.007  70.171  1.00  0.00    -0.109 A  
HETATM   33  C   UNL     1      -8.796   3.462  68.877  1.00  0.00    -0.164 A  
HETATM   34  C   UNL     1      -9.620   4.564  68.673  1.00  0.00    -0.222 A  
HETATM   35  C   UNL     1     -10.239   5.193  69.761  1.00  0.00    -0.287 A  
HETATM   36 CL   UNL     1     -11.219   6.575  69.406  1.00  0.00    -0.416 Cl 
ENDBRANCH  28  29
ENDBRANCH  27  28
ENDBRANCH  26  27
ENDBRANCH  25  26
ENDBRANCH  24  25
ENDBRANCH  23  24
ENDBRANCH  22  23
ENDBRANCH  21  22
ENDBRANCH  20  21
ENDBRANCH  19  20
ENDBRANCH  18  19
ENDBRANCH  16  18
ENDBRANCH  15  16
ENDBRANCH  12  15
ENDBRANCH  10  12
ENDBRANCH   2   4
TORSDOF 16
ENDMDL
MODEL       76
REMARK 921   NORMALIZED FREE ENERGY PREDICTED BY IDOCK:   -5.57 KCAL/MOL
REMARK 922        TOTAL FREE ENERGY PREDICTED BY IDOCK:  -12.85 KCAL/MOL
REMARK 923 INTER-LIGAND FREE ENERGY PREDICTED BY IDOCK:  -10.92 KCAL/MOL
REMARK 924 INTRA-LIGAND FREE ENERGY PREDICTED BY IDOCK:   -1.92 KCAL/MOL
REMARK 927      BINDING AFFINITY PREDICTED BY RF-SCORE:    0.00 PKD
ROOT
HETATM    1  O   UNL     1     -13.166  12.427  63.786  1.00  0.00    -0.690 OA 
HETATM    2  C   UNL     1     -12.237  13.449  63.422  1.00  0.00    -0.349 C  
HETATM    3  H   UNL     1     -13.549  12.024  63.016  1.00  0.00     0.000 HD 
ENDROOT
BRANCH   2   4
HETATM    4  C   UNL     1     -11.629  14.087  64.644  1.00  0.00    -0.400 A  
HETATM    5  C   UNL     1     -11.390  15.462  64.756  1.00  0.00    -0.376 A  
HETATM    6  O   UNL     1     -11.764  16.341  63.778  1.00  0.00    -1.511 OA 
HETATM    7  C   UNL     1     -10.761  16.001  65.874  1.00  0.00    -0.287 A  
HETATM    8  C   UNL     1     -10.362  15.167  66.916  1.00  0.00    -0.272 A  
HETATM    9  H   UNL     1     -11.602  17.274  63.854  1.00  0.00     0.000 HD 
HETATM   10  C   UNL     1     -10.584  13.785  66.845  1.00  0.00    -0.276 A  
HETATM   11  C   UNL     1     -11.205  13.258  65.698  1.00  0.00    -0.304 A  
BRANCH  10  12
HETATM   12  C   UNL     1     -10.082  12.887  67.956  1.00  0.00    -0.235 C  
HETATM   13  O   UNL     1      -9.137  13.592  68.773  1.00  0.00    -0.373 OA 
HETATM   14  H   UNL     1      -8.822  13.029  69.470  1.00  0.00     0.000 HD 
BRANCH  12  15
HETATM   15  C   UNL     1     -11.260  12.403  68.828  1.00  0.00    -0.273 C  
BRANCH  15  16
HETATM   16  N   UNL     1     -11.579  13.376  69.886  1.00  0.00    -0.478 NA 
HETATM   17  H   UNL     1     -11.921  14.258  69.503  1.00  0.00     0.000 HD 
BRANCH  16  18
HETATM   18  C   UNL     1     -12.521  12.793  70.836  1.00  0.00    -0.283 C  
BRANCH  18  19
HETATM   19  C   UNL     1     -12.408  11.271  70.822  1.00  0.00    -0.495 C  
BRANCH  19  20
HETATM   20  C   UNL     1     -13.250  10.671  71.947  1.00  0.00    -0.528 C  
BRANCH  20  21
HETATM   21  C   UNL     1     -13.587   9.212  71.663  1.00  0.00    -0.451 C  
BRANCH  21  22
HETATM   22  C   UNL     1     -12.331   8.346  71.665  1.00  0.00    -0.359 C  
BRANCH  22  23
HETATM   23  C   UNL     1     -12.676   6.900  71.346  1.00  0.00    -0.334 C  
BRANCH  23  24
HETATM   24  O   UNL     1     -11.725   6.051  71.978  1.00  0.00    -0.307 OA 
BRANCH  24  25
HETATM   25  C   UNL     1     -10.973   6.773  72.951  1.00  0.00    -0.263 C  
BRANCH  25  26
HETATM   26  C   UNL     1      -9.511   6.365  72.874  1.00  0.00    -0.145 C  
BRANCH  26  27
HETATM   27  O   UNL     1      -8.812   7.307  72.060  1.00  0.00    -0.124 OA 
BRANCH  27  28
HETATM   28  C   UNL     1      -8.326   6.703  70.870  1.00  0.00    -0.125 C  
BRANCH  28  29
HETATM   29  C   UNL     1      -9.264   7.036  69.742  1.00  0.00    -0.147 A  
HETATM   30  C   UNL     1      -9.589   8.368  69.431  1.00  0.00    -0.170 A  
HETATM   31 CL   UNL     1      -8.992   9.704  70.354  1.00  0.00    -0.280 Cl 
HETATM   32  C   UNL     1     -10.423   8.674  68.347  1.00  0.00    -0.220 A  
HETATM   33  C   UNL     1     -10.966   7.656  67.571  1.00  0.00    -0.086 A  
HETATM   34  C   UNL     1     -10.701   6.330  67.895  1.00  0.00    -0.380 A  
HETATM   35  C   UNL     1      -9.868   6.021  68.978  1.00  0.00    -0.148 A  
HETATM   36 CL   UNL     1      -9.625   4.341  69.319  1.00  0.00    -0.255 Cl 
ENDBRANCH  28  29
ENDBRANCH  27  28
ENDBRANCH  26  27
ENDBRANCH  25  26
ENDBRANCH  24  25
ENDBRANCH  23  24
ENDBRANCH  22  23
ENDBRANCH  21  22
ENDBRANCH  20  21
ENDBRANCH  19  20
ENDBRANCH  18  19
ENDBRANCH  16  18
ENDBRANCH  15  16
ENDBRANCH  12  15
ENDBRANCH  10  12
ENDBRANCH   2   4
TORSDOF 16
ENDMDL
MODEL       77
REMARK 921   NORMALIZED FREE ENERGY PREDICTED BY IDOCK:   -5.55 KCAL/MOL
REMARK 922        TOTAL FREE ENERGY PREDICTED BY IDOCK:  -12.81 KCAL/MOL
REMARK 923 INTER-LIGAND FREE ENERGY PREDICTED BY IDOCK:  -10.93 KCAL/MOL
REMARK 924 INTRA-LIGAND FREE ENERGY PREDICTED BY IDOCK:   -1.88 KCAL/MOL
REMARK 927      BINDING AFFINITY PREDICTED BY RF-SCORE:    0.00 PKD
ROOT
HETATM    1  O   UNL     1     -12.656  14.170  63.025  1.00  0.00    -1.002 OA 
HETATM    2  C   UNL     1     -11.684  13.553  63.870  1.00  0.00    -0.368 C  
HETATM    3  H   UNL     1     -12.846  13.627  62.269  1.00  0.00     0.000 HD 
ENDROOT
BRANCH   2   4
HETATM    4  C   UNL     1     -11.384  14.415  65.068  1.00  0.00    -0.373 A  
HETATM    5  C   UNL     1     -11.144  15.791  64.985  1.00  0.00    -0.370 A  
HETATM    6  O   UNL     1     -11.241  16.470  63.802  1.00  0.00    -1.389 OA 
HETATM    7  C   UNL     1     -10.799  16.538  66.108  1.00  0.00    -0.050 A  
HETATM    8  C   UNL     1     -10.694  15.916  67.350  1.00  0.00    -0.313 A  
HETATM    9  H   UNL     1     -11.078  17.404  63.746  1.00  0.00     0.000 HD 
HETATM   10  C   UNL     1     -10.927  14.540  67.477  1.00  0.00    -0.297 A  
HETATM   11  C   UNL     1     -11.257  13.801  66.327  1.00  0.00    -0.310 A  
BRANCH  10  12
HETATM   12  C   UNL     1     -10.741  13.869  68.822  1.00  0.00    -0.262 C  
HETATM   13  O   UNL     1     -10.998  14.803  69.880  1.00  0.00    -0.313 OA 
HETATM   14  H   UNL     1     -10.881  14.383  70.724  1.00  0.00     0.000 HD 
BRANCH  12  15
HETATM   15  C   UNL     1     -11.692  12.661  68.956  1.00  0.00    -0.318 C  
BRANCH  15  16
HETATM   16  N   UNL     1     -11.970  12.352  70.368  1.00  0.00    -0.514 NA 
HETATM   17  H   UNL     1     -12.689  12.961  70.758  1.00  0.00     0.000 HD 
BRANCH  16  18
HETATM   18  C   UNL     1     -12.310  10.941  70.516  1.00  0.00    -0.374 C  
BRANCH  18  19
HETATM   19  C   UNL     1     -13.125  10.727  71.789  1.00  0.00    -0.573 C  
BRANCH  19  20
HETATM   20  C   UNL     1     -13.257   9.234  72.085  1.00  0.00    -0.535 C  
BRANCH  20  21
HETATM   21  C   UNL     1     -12.186   8.432  71.355  1.00  0.00    -0.335 C  
BRANCH  21  22
HETATM   22  C   UNL     1     -12.272   6.950  71.706  1.00  0.00    -0.396 C  
BRANCH  22  23
HETATM   23  C   UNL     1     -11.121   6.182  71.076  1.00  0.00    -0.297 C  
BRANCH  23  24
HETATM   24  O   UNL     1     -11.324   6.125  69.668  1.00  0.00    -0.414 OA 
BRANCH  24  25
HETATM   25  C   UNL     1     -10.296   5.361  69.041  1.00  0.00    -0.212 C  
BRANCH  25  26
HETATM   26  C   UNL     1      -8.976   6.108  69.130  1.00  0.00    -0.126 C  
BRANCH  26  27
HETATM   27  O   UNL     1      -8.504   6.369  67.809  1.00  0.00    -0.117 OA 
BRANCH  27  28
HETATM   28  C   UNL     1      -7.762   7.579  67.753  1.00  0.00    -0.115 C  
BRANCH  28  29
HETATM   29  C   UNL     1      -8.533   8.582  66.940  1.00  0.00    -0.113 A  
HETATM   30  C   UNL     1      -8.475   8.584  65.535  1.00  0.00    -0.167 A  
HETATM   31 CL   UNL     1      -7.469   7.487  64.651  1.00  0.00    -0.082 Cl 
HETATM   32  C   UNL     1      -9.236   9.487  64.781  1.00  0.00    -0.267 A  
HETATM   33  C   UNL     1     -10.049  10.420  65.416  1.00  0.00    -0.354 A  
HETATM   34  C   UNL     1     -10.080  10.471  66.805  1.00  0.00    -0.270 A  
HETATM   35  C   UNL     1      -9.320   9.568  67.562  1.00  0.00    -0.126 A  
HETATM   36 CL   UNL     1      -9.402   9.734  69.283  1.00  0.00    -0.182 Cl 
ENDBRANCH  28  29
ENDBRANCH  27  28
ENDBRANCH  26  27
ENDBRANCH  25  26
ENDBRANCH  24  25
ENDBRANCH  23  24
ENDBRANCH  22  23
ENDBRANCH  21  22
ENDBRANCH  20  21
ENDBRANCH  19  20
ENDBRANCH  18  19
ENDBRANCH  16  18
ENDBRANCH  15  16
ENDBRANCH  12  15
ENDBRANCH  10  12
ENDBRANCH   2   4
TORSDOF 16
ENDMDL
MODEL       78
REMARK 921   NORMALIZED FREE ENERGY PREDICTED BY IDOCK:   -5.55 KCAL/MOL
REMARK 922        TOTAL FREE ENERGY PREDICTED BY IDOCK:  -12.80 KCAL/MOL
REMARK 923 INTER-LIGAND FREE ENERGY PREDICTED BY IDOCK:   -9.58 KCAL/MOL
REMARK 924 INTRA-LIGAND FREE ENERGY PREDICTED BY IDOCK:   -3.23 KCAL/MOL
REMARK 927      BINDING AFFINITY PREDICTED BY RF-SCORE:    0.00 PKD
ROOT
HETATM    1  O   UNL     1     -12.771  13.721  63.444  1.00  0.00    -0.840 OA 
HETATM    2  C   UNL     1     -12.805  13.133  64.744  1.00  0.00    -0.229 C  
HETATM    3  H   UNL     1     -13.406  13.313  62.867  1.00  0.00     0.000 HD 
ENDROOT
BRANCH   2   4
HETATM    4  C   UNL     1     -11.798  13.781  65.658  1.00  0.00    -0.383 A  
HETATM    5  C   UNL     1     -10.444  13.923  65.333  1.00  0.00    -0.345 A  
HETATM    6  O   UNL     1      -9.950  13.543  64.117  1.00  0.00    -0.766 OA 
HETATM    7  C   UNL     1      -9.533  14.463  66.237  1.00  0.00    -0.297 A  
HETATM    8  C   UNL     1      -9.966  14.884  67.492  1.00  0.00    -0.219 A  
HETATM    9  H   UNL     1      -9.032  13.639  63.896  1.00  0.00     0.000 HD 
HETATM   10  C   UNL     1     -11.314  14.761  67.856  1.00  0.00    -0.331 A  
HETATM   11  C   UNL     1     -12.215  14.196  66.935  1.00  0.00    -0.400 A  
BRANCH  10  12
HETATM   12  C   UNL     1     -11.753  15.160  69.250  1.00  0.00    -0.329 C  
HETATM   13  O   UNL     1     -12.636  16.289  69.186  1.00  0.00    -0.269 OA 
HETATM   14  H   UNL     1     -12.911  16.539  70.060  1.00  0.00     0.000 HD 
BRANCH  12  15
HETATM   15  C   UNL     1     -12.467  13.982  69.945  1.00  0.00    -0.246 C  
BRANCH  15  16
HETATM   16  N   UNL     1     -11.512  12.931  70.333  1.00  0.00    -0.428 NA 
HETATM   17  H   UNL     1     -10.888  13.238  71.079  1.00  0.00     0.000 HD 
BRANCH  16  18
HETATM   18  C   UNL     1     -12.227  11.709  70.688  1.00  0.00    -0.366 C  
BRANCH  18  19
HETATM   19  C   UNL     1     -11.984  10.632  69.635  1.00  0.00    -0.340 C  
BRANCH  19  20
HETATM   20  C   UNL     1     -10.722  10.954  68.835  1.00  0.00    -0.252 C  
BRANCH  20  21
HETATM   21  C   UNL     1     -10.946  10.736  67.343  1.00  0.00    -0.361 C  
BRANCH  21  22
HETATM   22  C   UNL     1      -9.626  10.748  66.579  1.00  0.00    -0.217 C  
BRANCH  22  23
HETATM   23  C   UNL     1      -9.702   9.839  65.363  1.00  0.00    -0.313 C  
BRANCH  23  24
HETATM   24  O   UNL     1      -9.182   8.560  65.714  1.00  0.00    -0.198 OA 
BRANCH  24  25
HETATM   25  C   UNL     1      -8.090   8.692  66.621  1.00  0.00    -0.100 C  
BRANCH  25  26
HETATM   26  C   UNL     1      -7.568   7.316  66.998  1.00  0.00    -0.106 C  
BRANCH  26  27
HETATM   27  O   UNL     1      -7.898   7.055  68.363  1.00  0.00    -0.117 OA 
BRANCH  27  28
HETATM   28  C   UNL     1      -8.515   8.181  68.970  1.00  0.00    -0.129 C  
BRANCH  28  29
HETATM   29  C   UNL     1      -9.587   7.697  69.908  1.00  0.00    -0.160 A  
HETATM   30  C   UNL     1     -10.769   7.108  69.424  1.00  0.00    -0.231 A  
HETATM   31 CL   UNL     1     -11.101   6.959  67.732  1.00  0.00    -0.261 Cl 
HETATM   32  C   UNL     1     -11.741   6.611  70.303  1.00  0.00    -0.432 A  
HETATM   33  C   UNL     1     -11.563   6.717  71.678  1.00  0.00    -0.350 A  
HETATM   34  C   UNL     1     -10.426   7.345  72.177  1.00  0.00    -0.243 A  
HETATM   35  C   UNL     1      -9.452   7.841  71.300  1.00  0.00    -0.153 A  
HETATM   36 CL   UNL     1      -8.091   8.634  72.018  1.00  0.00    -0.167 Cl 
ENDBRANCH  28  29
ENDBRANCH  27  28
ENDBRANCH  26  27
ENDBRANCH  25  26
ENDBRANCH  24  25
ENDBRANCH  23  24
ENDBRANCH  22  23
ENDBRANCH  21  22
ENDBRANCH  20  21
ENDBRANCH  19  20
ENDBRANCH  18  19
ENDBRANCH  16  18
ENDBRANCH  15  16
ENDBRANCH  12  15
ENDBRANCH  10  12
ENDBRANCH   2   4
TORSDOF 16
ENDMDL
MODEL       79
REMARK 921   NORMALIZED FREE ENERGY PREDICTED BY IDOCK:   -5.54 KCAL/MOL
REMARK 922        TOTAL FREE ENERGY PREDICTED BY IDOCK:  -12.80 KCAL/MOL
REMARK 923 INTER-LIGAND FREE ENERGY PREDICTED BY IDOCK:  -10.74 KCAL/MOL
REMARK 924 INTRA-LIGAND FREE ENERGY PREDICTED BY IDOCK:   -2.06 KCAL/MOL
REMARK 927      BINDING AFFINITY PREDICTED BY RF-SCORE:    0.00 PKD
ROOT
HETATM    1  O   UNL     1      -6.597  18.294  68.616  1.00  0.00    -0.213 OA 
HETATM    2  C   UNL     1      -6.848  17.578  67.406  1.00  0.00    -0.164 C  
HETATM    3  H   UNL     1      -5.760  18.048  68.991  1.00  0.00     0.000 HD 
ENDROOT
BRANCH   2   4
HETATM    4  C   UNL     1      -8.176  17.969  66.812  1.00  0.00    -0.272 A  
HETATM    5  C   UNL     1      -8.670  19.279  66.826  1.00  0.00    -0.313 A  
HETATM    6  O   UNL     1      -7.937  20.321  67.321  1.00  0.00    -0.315 OA 
HETATM    7  C   UNL     1      -9.934  19.584  66.330  1.00  0.00    -0.532 A  
HETATM    8  C   UNL     1     -10.733  18.575  65.798  1.00  0.00    -0.193 A  
HETATM    9  H   UNL     1      -8.271  21.209  67.331  1.00  0.00     0.000 HD 
HETATM   10  C   UNL     1     -10.276  17.250  65.763  1.00  0.00    -0.212 A  
HETATM   11  C   UNL     1      -9.003  16.961  66.286  1.00  0.00    -0.305 A  
BRANCH  10  12
HETATM   12  C   UNL     1     -11.186  16.157  65.244  1.00  0.00    -0.069 C  
HETATM   13  O   UNL     1     -11.499  16.387  63.864  1.00  0.00    -1.569 OA 
HETATM   14  H   UNL     1     -12.070  15.701  63.538  1.00  0.00     0.000 HD 
BRANCH  12  15
HETATM   15  C   UNL     1     -10.510  14.778  65.399  1.00  0.00    -0.380 C  
BRANCH  15  16
HETATM   16  N   UNL     1     -10.301  14.135  64.091  1.00  0.00    -0.480 NA 
HETATM   17  H   UNL     1      -9.373  14.329  63.714  1.00  0.00     0.000 HD 
BRANCH  16  18
HETATM   18  C   UNL     1     -10.561  12.702  64.188  1.00  0.00    -0.407 C  
BRANCH  18  19
HETATM   19  C   UNL     1     -11.554  12.424  65.313  1.00  0.00    -0.419 C  
BRANCH  19  20
HETATM   20  C   UNL     1     -11.159  11.151  66.061  1.00  0.00    -0.117 C  
BRANCH  20  21
HETATM   21  C   UNL     1     -10.122  10.353  65.278  1.00  0.00    -0.370 C  
BRANCH  21  22
HETATM   22  C   UNL     1      -9.292   9.470  66.205  1.00  0.00    -0.254 C  
BRANCH  22  23
HETATM   23  C   UNL     1      -8.897  10.232  67.459  1.00  0.00    -0.128 C  
BRANCH  23  24
HETATM   24  O   UNL     1      -7.968  11.250  67.104  1.00  0.00    -0.136 OA 
BRANCH  24  25
HETATM   25  C   UNL     1      -7.880  12.234  68.133  1.00  0.00    -0.148 C  
BRANCH  25  26
HETATM   26  C   UNL     1      -9.002  13.246  67.972  1.00  0.00    -0.191 C  
BRANCH  26  27
HETATM   27  O   UNL     1      -9.794  13.249  69.160  1.00  0.00     0.162 OA 
BRANCH  27  28
HETATM   28  C   UNL     1     -11.177  13.125  68.861  1.00  0.00    -0.277 C  
BRANCH  28  29
HETATM   29  C   UNL     1     -11.971  13.699  70.002  1.00  0.00    -0.413 A  
HETATM   30  C   UNL     1     -12.144  15.087  70.147  1.00  0.00    -0.331 A  
HETATM   31 CL   UNL     1     -11.409  16.226  69.072  1.00  0.00    -0.325 Cl 
HETATM   32  C   UNL     1     -12.927  15.613  71.183  1.00  0.00    -0.539 A  
HETATM   33  C   UNL     1     -13.531  14.766  72.106  1.00  0.00    -0.491 A  
HETATM   34  C   UNL     1     -13.328  13.393  72.013  1.00  0.00    -0.569 A  
HETATM   35  C   UNL     1     -12.545  12.864  70.978  1.00  0.00    -0.287 A  
HETATM   36 CL   UNL     1     -12.327  11.147  70.968  1.00  0.00    -0.487 Cl 
ENDBRANCH  28  29
ENDBRANCH  27  28
ENDBRANCH  26  27
ENDBRANCH  25  26
ENDBRANCH  24  25
ENDBRANCH  23  24
ENDBRANCH  22  23
ENDBRANCH  21  22
ENDBRANCH  20  21
ENDBRANCH  19  20
ENDBRANCH  18  19
ENDBRANCH  16  18
ENDBRANCH  15  16
ENDBRANCH  12  15
ENDBRANCH  10  12
ENDBRANCH   2   4
TORSDOF 16
ENDMDL
MODEL       80
REMARK 921   NORMALIZED FREE ENERGY PREDICTED BY IDOCK:   -5.54 KCAL/MOL
REMARK 922        TOTAL FREE ENERGY PREDICTED BY IDOCK:  -12.80 KCAL/MOL
REMARK 923 INTER-LIGAND FREE ENERGY PREDICTED BY IDOCK:  -11.64 KCAL/MOL
REMARK 924 INTRA-LIGAND FREE ENERGY PREDICTED BY IDOCK:   -1.16 KCAL/MOL
REMARK 927      BINDING AFFINITY PREDICTED BY RF-SCORE:    0.00 PKD
ROOT
HETATM    1  O   UNL     1      -8.273  20.321  65.988  1.00  0.00    -0.534 OA 
HETATM    2  C   UNL     1      -9.316  19.711  66.749  1.00  0.00    -0.364 C  
HETATM    3  H   UNL     1      -8.256  21.261  66.125  1.00  0.00     0.000 HD 
ENDROOT
BRANCH   2   4
HETATM    4  C   UNL     1      -9.343  18.220  66.531  1.00  0.00    -0.306 A  
HETATM    5  C   UNL     1      -8.292  17.371  66.893  1.00  0.00    -0.235 A  
HETATM    6  O   UNL     1      -7.182  17.832  67.545  1.00  0.00    -0.185 OA 
HETATM    7  C   UNL     1      -8.327  16.009  66.608  1.00  0.00    -0.331 A  
HETATM    8  C   UNL     1      -9.431  15.464  65.955  1.00  0.00    -0.381 A  
HETATM    9  H   UNL     1      -6.469  17.256  67.791  1.00  0.00     0.000 HD 
HETATM   10  C   UNL     1     -10.506  16.281  65.577  1.00  0.00    -0.383 A  
HETATM   11  C   UNL     1     -10.442  17.657  65.859  1.00  0.00    -0.247 A  
BRANCH  10  12
HETATM   12  C   UNL     1     -11.666  15.683  64.808  1.00  0.00    -0.134 C  
HETATM   13  O   UNL     1     -11.898  16.428  63.605  1.00  0.00    -1.406 OA 
HETATM   14  H   UNL     1     -12.626  16.053  63.122  1.00  0.00     0.000 HD 
BRANCH  12  15
HETATM   15  C   UNL     1     -11.374  14.209  64.456  1.00  0.00    -0.348 C  
BRANCH  15  16
HETATM   16  N   UNL     1     -12.187  13.760  63.314  1.00  0.00    -1.096 NA 
HETATM   17  H   UNL     1     -11.815  14.095  62.425  1.00  0.00     0.000 HD 
BRANCH  16  18
HETATM   18  C   UNL     1     -12.323  12.307  63.335  1.00  0.00    -0.517 C  
BRANCH  18  19
HETATM   19  C   UNL     1     -11.401  11.708  64.393  1.00  0.00    -0.334 C  
BRANCH  19  20
HETATM   20  C   UNL     1     -10.259  10.945  63.724  1.00  0.00    -0.407 C  
BRANCH  20  21
HETATM   21  C   UNL     1      -9.133  10.662  64.713  1.00  0.00    -0.236 C  
BRANCH  21  22
HETATM   22  C   UNL     1      -8.246   9.520  64.226  1.00  0.00    -0.157 C  
BRANCH  22  23
HETATM   23  C   UNL     1      -8.460   8.277  65.075  1.00  0.00    -0.123 C  
BRANCH  23  24
HETATM   24  O   UNL     1      -9.260   8.622  66.201  1.00  0.00    -0.184 OA 
BRANCH  24  25
HETATM   25  C   UNL     1      -8.969   7.771  67.307  1.00  0.00    -0.127 C  
BRANCH  25  26
HETATM   26  C   UNL     1     -10.000   7.984  68.403  1.00  0.00    -0.185 C  
BRANCH  26  27
HETATM   27  O   UNL     1      -9.345   7.922  69.670  1.00  0.00    -0.153 OA 
BRANCH  27  28
HETATM   28  C   UNL     1      -9.348   9.187  70.317  1.00  0.00    -0.220 C  
BRANCH  28  29
HETATM   29  C   UNL     1     -10.721   9.438  70.878  1.00  0.00    -0.393 A  
HETATM   30  C   UNL     1     -11.551  10.444  70.355  1.00  0.00    -0.337 A  
HETATM   31 CL   UNL     1     -11.034  11.501  69.085  1.00  0.00    -0.270 Cl 
HETATM   32  C   UNL     1     -12.849  10.640  70.848  1.00  0.00    -0.473 A  
HETATM   33  C   UNL     1     -13.331   9.851  71.887  1.00  0.00    -0.524 A  
HETATM   34  C   UNL     1     -12.506   8.885  72.455  1.00  0.00    -0.405 A  
HETATM   35  C   UNL     1     -11.209   8.688  71.964  1.00  0.00    -0.364 A  
HETATM   36 CL   UNL     1     -10.251   7.485  72.758  1.00  0.00    -0.278 Cl 
ENDBRANCH  28  29
ENDBRANCH  27  28
ENDBRANCH  26  27
ENDBRANCH  25  26
ENDBRANCH  24  25
ENDBRANCH  23  24
ENDBRANCH  22  23
ENDBRANCH  21  22
ENDBRANCH  20  21
ENDBRANCH  19  20
ENDBRANCH  18  19
ENDBRANCH  16  18
ENDBRANCH  15  16
ENDBRANCH  12  15
ENDBRANCH  10  12
ENDBRANCH   2   4
TORSDOF 16
ENDMDL
MODEL       81
REMARK 921   NORMALIZED FREE ENERGY PREDICTED BY IDOCK:   -5.53 KCAL/MOL
REMARK 922        TOTAL FREE ENERGY PREDICTED BY IDOCK:  -12.78 KCAL/MOL
REMARK 923 INTER-LIGAND FREE ENERGY PREDICTED BY IDOCK:  -11.05 KCAL/MOL
REMARK 924 INTRA-LIGAND FREE ENERGY PREDICTED BY IDOCK:   -1.74 KCAL/MOL
REMARK 927      BINDING AFFINITY PREDICTED BY RF-SCORE:    0.00 PKD
ROOT
HETATM    1  O   UNL     1      -9.796  20.184  67.248  1.00  0.00    -0.387 OA 
HETATM    2  C   UNL     1     -10.305  19.342  66.213  1.00  0.00    -0.480 C  
HETATM    3  H   UNL     1     -10.100  21.077  67.141  1.00  0.00     0.000 HD 
ENDROOT
BRANCH   2   4
HETATM    4  C   UNL     1      -9.823  17.925  66.383  1.00  0.00    -0.339 A  
HETATM    5  C   UNL     1      -8.470  17.568  66.391  1.00  0.00    -0.252 A  
HETATM    6  O   UNL     1      -7.476  18.504  66.318  1.00  0.00    -0.236 OA 
HETATM    7  C   UNL     1      -8.070  16.238  66.479  1.00  0.00    -0.337 A  
HETATM    8  C   UNL     1      -9.026  15.229  66.569  1.00  0.00    -0.340 A  
HETATM    9  H   UNL     1      -6.558  18.263  66.324  1.00  0.00     0.000 HD 
HETATM   10  C   UNL     1     -10.392  15.544  66.565  1.00  0.00    -0.293 A  
HETATM   11  C   UNL     1     -10.775  16.893  66.458  1.00  0.00    -0.087 A  
BRANCH  10  12
HETATM   12  C   UNL     1     -11.417  14.429  66.594  1.00  0.00    -0.363 C  
HETATM   13  O   UNL     1     -12.167  14.478  67.816  1.00  0.00    -0.602 OA 
HETATM   14  H   UNL     1     -12.811  13.780  67.834  1.00  0.00     0.000 HD 
BRANCH  12  15
HETATM   15  C   UNL     1     -12.377  14.552  65.392  1.00  0.00    -0.284 C  
BRANCH  15  16
HETATM   16  N   UNL     1     -11.660  14.392  64.116  1.00  0.00    -0.646 NA 
HETATM   17  H   UNL     1     -10.660  14.246  64.255  1.00  0.00     0.000 HD 
BRANCH  16  18
HETATM   18  C   UNL     1     -12.263  13.319  63.332  1.00  0.00    -0.403 C  
BRANCH  18  19
HETATM   19  C   UNL     1     -11.680  11.971  63.751  1.00  0.00    -0.575 C  
BRANCH  19  20
HETATM   20  C   UNL     1     -10.171  11.954  63.512  1.00  0.00    -0.485 C  
BRANCH  20  21
HETATM   21  C   UNL     1      -9.547  10.663  64.030  1.00  0.00    -0.351 C  
BRANCH  21  22
HETATM   22  C   UNL     1      -9.624  10.586  65.552  1.00  0.00    -0.282 C  
BRANCH  22  23
HETATM   23  C   UNL     1      -9.691   9.139  66.012  1.00  0.00    -0.287 C  
BRANCH  23  24
HETATM   24  O   UNL     1     -10.737   9.010  66.970  1.00  0.00    -0.242 OA 
BRANCH  24  25
HETATM   25  C   UNL     1     -10.461   7.944  67.876  1.00  0.00    -0.198 C  
BRANCH  25  26
HETATM   26  C   UNL     1      -9.236   8.283  68.709  1.00  0.00    -0.143 C  
BRANCH  26  27
HETATM   27  O   UNL     1      -9.479   7.901  70.063  1.00  0.00    -0.157 OA 
BRANCH  27  28
HETATM   28  C   UNL     1      -9.492   9.029  70.925  1.00  0.00    -0.267 C  
BRANCH  28  29
HETATM   29  C   UNL     1     -10.919   9.360  71.265  1.00  0.00    -0.440 A  
HETATM   30  C   UNL     1     -11.648   8.589  72.188  1.00  0.00    -0.377 A  
HETATM   31 CL   UNL     1     -10.985   7.179  72.941  1.00  0.00    -0.335 Cl 
HETATM   32  C   UNL     1     -12.961   8.932  72.540  1.00  0.00    -0.415 A  
HETATM   33  C   UNL     1     -13.577  10.036  71.959  1.00  0.00    -0.366 A  
HETATM   34  C   UNL     1     -12.892  10.780  71.004  1.00  0.00    -0.480 A  
HETATM   35  C   UNL     1     -11.580  10.439  70.651  1.00  0.00    -0.349 A  
HETATM   36 CL   UNL     1     -10.826  11.407  69.430  1.00  0.00    -0.248 Cl 
ENDBRANCH  28  29
ENDBRANCH  27  28
ENDBRANCH  26  27
ENDBRANCH  25  26
ENDBRANCH  24  25
ENDBRANCH  23  24
ENDBRANCH  22  23
ENDBRANCH  21  22
ENDBRANCH  20  21
ENDBRANCH  19  20
ENDBRANCH  18  19
ENDBRANCH  16  18
ENDBRANCH  15  16
ENDBRANCH  12  15
ENDBRANCH  10  12
ENDBRANCH   2   4
TORSDOF 16
ENDMDL
MODEL       82
REMARK 921   NORMALIZED FREE ENERGY PREDICTED BY IDOCK:   -5.52 KCAL/MOL
REMARK 922        TOTAL FREE ENERGY PREDICTED BY IDOCK:  -12.76 KCAL/MOL
REMARK 923 INTER-LIGAND FREE ENERGY PREDICTED BY IDOCK:  -10.72 KCAL/MOL
REMARK 924 INTRA-LIGAND FREE ENERGY PREDICTED BY IDOCK:   -2.04 KCAL/MOL
REMARK 927      BINDING AFFINITY PREDICTED BY RF-SCORE:    0.00 PKD
ROOT
HETATM    1  O   UNL     1      -9.123  10.025  67.557  1.00  0.00    -0.134 OA 
HETATM    2  C   UNL     1     -10.142   9.543  66.679  1.00  0.00    -0.252 C  
HETATM    3  H   UNL     1      -9.067   9.491  68.340  1.00  0.00     0.000 HD 
ENDROOT
BRANCH   2   4
HETATM    4  C   UNL     1     -10.230  10.390  65.437  1.00  0.00    -0.329 A  
HETATM    5  C   UNL     1      -9.592  10.063  64.235  1.00  0.00    -0.235 A  
HETATM    6  O   UNL     1      -8.893   8.898  64.083  1.00  0.00    -0.404 OA 
HETATM    7  C   UNL     1      -9.640  10.911  63.133  1.00  0.00    -0.384 A  
HETATM    8  C   UNL     1     -10.344  12.111  63.210  1.00  0.00    -0.352 A  
HETATM    9  H   UNL     1      -8.460   8.676  63.268  1.00  0.00     0.000 HD 
HETATM   10  C   UNL     1     -10.999  12.475  64.394  1.00  0.00    -0.378 A  
HETATM   11  C   UNL     1     -10.922  11.613  65.502  1.00  0.00    -0.327 A  
BRANCH  10  12
HETATM   12  C   UNL     1     -11.701  13.815  64.480  1.00  0.00    -0.407 C  
HETATM   13  O   UNL     1     -12.402  14.086  63.259  1.00  0.00    -1.133 OA 
HETATM   14  H   UNL     1     -12.842  14.926  63.313  1.00  0.00     0.000 HD 
BRANCH  12  15
HETATM   15  C   UNL     1     -12.695  13.824  65.660  1.00  0.00    -0.478 C  
BRANCH  15  16
HETATM   16  N   UNL     1     -12.161  14.583  66.804  1.00  0.00    -0.474 NA 
HETATM   17  H   UNL     1     -12.717  15.415  67.004  1.00  0.00     0.000 HD 
BRANCH  16  18
HETATM   18  C   UNL     1     -12.041  13.715  67.971  1.00  0.00    -0.274 C  
BRANCH  18  19
HETATM   19  C   UNL     1     -11.905  14.553  69.239  1.00  0.00    -0.361 C  
BRANCH  19  20
HETATM   20  C   UNL     1     -11.610  16.009  68.877  1.00  0.00    -0.354 C  
BRANCH  20  21
HETATM   21  C   UNL     1     -10.265  16.453  69.442  1.00  0.00    -0.273 C  
BRANCH  21  22
HETATM   22  C   UNL     1      -9.449  15.260  69.928  1.00  0.00    -0.020 C  
BRANCH  22  23
HETATM   23  C   UNL     1      -8.185  15.102  69.098  1.00  0.00    -0.214 C  
BRANCH  23  24
HETATM   24  O   UNL     1      -7.337  16.219  69.338  1.00  0.00    -0.230 OA 
BRANCH  24  25
HETATM   25  C   UNL     1      -5.972  15.874  69.110  1.00  0.00    -0.121 C  
BRANCH  25  26
HETATM   26  C   UNL     1      -5.518  16.437  67.773  1.00  0.00    -0.131 C  
BRANCH  26  27
HETATM   27  O   UNL     1      -6.020  17.766  67.638  1.00  0.00    -0.144 OA 
BRANCH  27  28
HETATM   28  C   UNL     1      -6.580  17.981  66.351  1.00  0.00    -0.221 C  
BRANCH  28  29
HETATM   29  C   UNL     1      -7.966  18.543  66.514  1.00  0.00    -0.295 A  
HETATM   30  C   UNL     1      -8.172  19.871  66.925  1.00  0.00    -0.318 A  
HETATM   31 CL   UNL     1      -6.862  20.926  67.332  1.00  0.00    -0.408 Cl 
HETATM   32  C   UNL     1      -9.465  20.404  67.026  1.00  0.00    -0.544 A  
HETATM   33  C   UNL     1     -10.573  19.614  66.743  1.00  0.00    -0.602 A  
HETATM   34  C   UNL     1     -10.394  18.282  66.387  1.00  0.00    -0.418 A  
HETATM   35  C   UNL     1      -9.103  17.746  66.285  1.00  0.00    -0.175 A  
HETATM   36 CL   UNL     1      -8.986  16.071  65.868  1.00  0.00    -0.331 Cl 
ENDBRANCH  28  29
ENDBRANCH  27  28
ENDBRANCH  26  27
ENDBRANCH  25  26
ENDBRANCH  24  25
ENDBRANCH  23  24
ENDBRANCH  22  23
ENDBRANCH  21  22
ENDBRANCH  20  21
ENDBRANCH  19  20
ENDBRANCH  18  19
ENDBRANCH  16  18
ENDBRANCH  15  16
ENDBRANCH  12  15
ENDBRANCH  10  12
ENDBRANCH   2   4
TORSDOF 16
ENDMDL
MODEL       83
REMARK 921   NORMALIZED FREE ENERGY PREDICTED BY IDOCK:   -5.52 KCAL/MOL
REMARK 922        TOTAL FREE ENERGY PREDICTED BY IDOCK:  -12.75 KCAL/MOL
REMARK 923 INTER-LIGAND FREE ENERGY PREDICTED BY IDOCK:   -9.71 KCAL/MOL
REMARK 924 INTRA-LIGAND FREE ENERGY PREDICTED BY IDOCK:   -3.04 KCAL/MOL
REMARK 927      BINDING AFFINITY PREDICTED BY RF-SCORE:    0.00 PKD
ROOT
HETATM    1  O   UNL     1     -10.197  10.360  62.405  1.00  0.00    -0.722 OA 
HETATM    2  C   UNL     1      -9.679  11.565  62.971  1.00  0.00    -0.359 C  
HETATM    3  H   UNL     1      -9.553   9.941  61.846  1.00  0.00     0.000 HD 
ENDROOT
BRANCH   2   4
HETATM    4  C   UNL     1     -10.701  12.228  63.857  1.00  0.00    -0.463 A  
HETATM    5  C   UNL     1     -12.082  12.086  63.680  1.00  0.00    -0.527 A  
HETATM    6  O   UNL     1     -12.605  11.265  62.720  1.00  0.00    -0.912 OA 
HETATM    7  C   UNL     1     -12.991  12.775  64.477  1.00  0.00    -0.210 A  
HETATM    8  C   UNL     1     -12.531  13.621  65.484  1.00  0.00    -0.544 A  
HETATM    9  H   UNL     1     -13.542  11.168  62.600  1.00  0.00     0.000 HD 
HETATM   10  C   UNL     1     -11.156  13.790  65.696  1.00  0.00    -0.297 A  
HETATM   11  C   UNL     1     -10.254  13.099  64.867  1.00  0.00    -0.306 A  
BRANCH  10  12
HETATM   12  C   UNL     1     -10.675  14.766  66.749  1.00  0.00    -0.309 C  
HETATM   13  O   UNL     1     -10.231  15.982  66.131  1.00  0.00    -0.288 OA 
HETATM   14  H   UNL     1      -9.930  16.595  66.791  1.00  0.00     0.000 HD 
BRANCH  12  15
HETATM   15  C   UNL     1     -11.808  15.077  67.749  1.00  0.00    -0.204 C  
BRANCH  15  16
HETATM   16  N   UNL     1     -11.289  15.739  68.958  1.00  0.00    -0.329 NA 
HETATM   17  H   UNL     1     -11.871  16.527  69.242  1.00  0.00     0.000 HD 
BRANCH  16  18
HETATM   18  C   UNL     1     -11.126  14.766  70.033  1.00  0.00    -0.204 C  
BRANCH  18  19
HETATM   19  C   UNL     1     -12.237  13.721  69.968  1.00  0.00    -0.407 C  
BRANCH  19  20
HETATM   20  C   UNL     1     -11.640  12.315  70.019  1.00  0.00    -0.236 C  
BRANCH  20  21
HETATM   21  C   UNL     1     -12.154  11.458  68.868  1.00  0.00    -0.285 C  
BRANCH  21  22
HETATM   22  C   UNL     1     -11.030  10.630  68.252  1.00  0.00    -0.314 C  
BRANCH  22  23
HETATM   23  C   UNL     1      -9.709  11.379  68.330  1.00  0.00    -0.203 C  
BRANCH  23  24
HETATM   24  O   UNL     1      -8.730  10.659  67.588  1.00  0.00    -0.121 OA 
BRANCH  24  25
HETATM   25  C   UNL     1      -9.351   9.771  66.662  1.00  0.00    -0.158 C  
BRANCH  25  26
HETATM   26  C   UNL     1      -8.630   8.434  66.671  1.00  0.00    -0.120 C  
BRANCH  26  27
HETATM   27  O   UNL     1      -7.807   8.362  67.836  1.00  0.00    -0.104 OA 
BRANCH  27  28
HETATM   28  C   UNL     1      -8.146   7.244  68.643  1.00  0.00    -0.125 C  
BRANCH  28  29
HETATM   29  C   UNL     1      -9.215   7.659  69.617  1.00  0.00    -0.146 A  
HETATM   30  C   UNL     1      -8.974   8.644  70.591  1.00  0.00    -0.171 A  
HETATM   31 CL   UNL     1      -7.426   9.394  70.782  1.00  0.00    -0.144 Cl 
HETATM   32  C   UNL     1      -9.989   9.063  71.462  1.00  0.00    -0.391 A  
HETATM   33  C   UNL     1     -11.254   8.490  71.392  1.00  0.00    -0.327 A  
HETATM   34  C   UNL     1     -11.499   7.476  70.471  1.00  0.00    -0.259 A  
HETATM   35  C   UNL     1     -10.486   7.056  69.599  1.00  0.00    -0.223 A  
HETATM   36 CL   UNL     1     -10.880   5.767  68.513  1.00  0.00    -0.301 Cl 
ENDBRANCH  28  29
ENDBRANCH  27  28
ENDBRANCH  26  27
ENDBRANCH  25  26
ENDBRANCH  24  25
ENDBRANCH  23  24
ENDBRANCH  22  23
ENDBRANCH  21  22
ENDBRANCH  20  21
ENDBRANCH  19  20
ENDBRANCH  18  19
ENDBRANCH  16  18
ENDBRANCH  15  16
ENDBRANCH  12  15
ENDBRANCH  10  12
ENDBRANCH   2   4
TORSDOF 16
ENDMDL
MODEL       84
REMARK 921   NORMALIZED FREE ENERGY PREDICTED BY IDOCK:   -5.51 KCAL/MOL
REMARK 922        TOTAL FREE ENERGY PREDICTED BY IDOCK:  -12.73 KCAL/MOL
REMARK 923 INTER-LIGAND FREE ENERGY PREDICTED BY IDOCK:  -11.13 KCAL/MOL
REMARK 924 INTRA-LIGAND FREE ENERGY PREDICTED BY IDOCK:   -1.60 KCAL/MOL
REMARK 927      BINDING AFFINITY PREDICTED BY RF-SCORE:    0.00 PKD
ROOT
HETATM    1  O   UNL     1      -7.836   9.182  71.693  1.00  0.00    -0.340 OA 
HETATM    2  C   UNL     1      -8.115   8.892  70.322  1.00  0.00    -0.123 C  
HETATM    3  H   UNL     1      -7.051   9.710  71.777  1.00  0.00     0.000 HD 
ENDROOT
BRANCH   2   4
HETATM    4  C   UNL     1      -9.361   8.055  70.190  1.00  0.00    -0.156 A  
HETATM    5  C   UNL     1      -9.528   7.076  69.204  1.00  0.00    -0.143 A  
HETATM    6  O   UNL     1      -8.529   6.758  68.326  1.00  0.00    -0.124 OA 
HETATM    7  C   UNL     1     -10.723   6.374  69.072  1.00  0.00    -0.339 A  
HETATM    8  C   UNL     1     -11.781   6.635  69.939  1.00  0.00    -0.333 A  
HETATM    9  H   UNL     1      -8.642   6.094  67.656  1.00  0.00     0.000 HD 
HETATM   10  C   UNL     1     -11.654   7.607  70.942  1.00  0.00    -0.299 A  
HETATM   11  C   UNL     1     -10.445   8.317  71.046  1.00  0.00    -0.241 A  
BRANCH  10  12
HETATM   12  C   UNL     1     -12.838   7.925  71.830  1.00  0.00    -0.328 C  
HETATM   13  O   UNL     1     -12.392   8.244  73.155  1.00  0.00    -0.622 OA 
HETATM   14  H   UNL     1     -13.135   8.444  73.712  1.00  0.00     0.000 HD 
BRANCH  12  15
HETATM   15  C   UNL     1     -13.638   9.113  71.253  1.00  0.00    -0.213 C  
BRANCH  15  16
HETATM   16  N   UNL     1     -13.204  10.389  71.847  1.00  0.00    -0.451 NA 
HETATM   17  H   UNL     1     -12.752  10.255  72.751  1.00  0.00     0.000 HD 
BRANCH  16  18
HETATM   18  C   UNL     1     -12.350  11.113  70.911  1.00  0.00    -0.399 C  
BRANCH  18  19
HETATM   19  C   UNL     1     -12.563  12.617  71.062  1.00  0.00    -0.354 C  
BRANCH  19  20
HETATM   20  C   UNL     1     -13.439  12.905  72.280  1.00  0.00    -0.631 C  
BRANCH  20  21
HETATM   21  C   UNL     1     -13.396  14.383  72.652  1.00  0.00    -0.599 C  
BRANCH  21  22
HETATM   22  C   UNL     1     -13.232  15.258  71.413  1.00  0.00    -0.555 C  
BRANCH  22  23
HETATM   23  C   UNL     1     -11.916  16.016  71.463  1.00  0.00    -0.475 C  
BRANCH  23  24
HETATM   24  O   UNL     1     -11.310  15.968  70.176  1.00  0.00    -0.328 OA 
BRANCH  24  25
HETATM   25  C   UNL     1     -12.201  15.399  69.220  1.00  0.00    -0.188 C  
BRANCH  25  26
HETATM   26  C   UNL     1     -11.457  15.128  67.923  1.00  0.00    -0.332 C  
BRANCH  26  27
HETATM   27  O   UNL     1     -11.058  13.758  67.898  1.00  0.00    -0.252 OA 
BRANCH  27  28
HETATM   28  C   UNL     1     -12.018  12.950  67.233  1.00  0.00    -0.309 C  
BRANCH  28  29
HETATM   29  C   UNL     1     -11.349  12.258  66.077  1.00  0.00    -0.398 A  
HETATM   30  C   UNL     1     -10.650  11.050  66.253  1.00  0.00    -0.237 A  
HETATM   31 CL   UNL     1     -10.454  10.316  67.808  1.00  0.00    -0.248 Cl 
HETATM   32  C   UNL     1     -10.073  10.383  65.164  1.00  0.00    -0.379 A  
HETATM   33  C   UNL     1     -10.162  10.922  63.885  1.00  0.00    -0.418 A  
HETATM   34  C   UNL     1     -10.802  12.142  63.697  1.00  0.00    -0.523 A  
HETATM   35  C   UNL     1     -11.380  12.811  64.784  1.00  0.00    -0.309 A  
HETATM   36 CL   UNL     1     -12.125  14.337  64.451  1.00  0.00    -0.491 Cl 
ENDBRANCH  28  29
ENDBRANCH  27  28
ENDBRANCH  26  27
ENDBRANCH  25  26
ENDBRANCH  24  25
ENDBRANCH  23  24
ENDBRANCH  22  23
ENDBRANCH  21  22
ENDBRANCH  20  21
ENDBRANCH  19  20
ENDBRANCH  18  19
ENDBRANCH  16  18
ENDBRANCH  15  16
ENDBRANCH  12  15
ENDBRANCH  10  12
ENDBRANCH   2   4
TORSDOF 16
ENDMDL
MODEL       85
REMARK 921   NORMALIZED FREE ENERGY PREDICTED BY IDOCK:   -5.51 KCAL/MOL
REMARK 922        TOTAL FREE ENERGY PREDICTED BY IDOCK:  -12.73 KCAL/MOL
REMARK 923 INTER-LIGAND FREE ENERGY PREDICTED BY IDOCK:  -10.54 KCAL/MOL
REMARK 924 INTRA-LIGAND FREE ENERGY PREDICTED BY IDOCK:   -2.19 KCAL/MOL
REMARK 927      BINDING AFFINITY PREDICTED BY RF-SCORE:    0.00 PKD
ROOT
HETATM    1  O   UNL     1      -9.641  20.351  65.708  1.00  0.00    -0.634 OA 
HETATM    2  C   UNL     1     -10.621  19.416  66.163  1.00  0.00    -0.477 C  
HETATM    3  H   UNL     1     -10.006  21.226  65.651  1.00  0.00     0.000 HD 
ENDROOT
BRANCH   2   4
HETATM    4  C   UNL     1     -10.042  18.028  66.252  1.00  0.00    -0.363 A  
HETATM    5  C   UNL     1      -8.792  17.750  66.818  1.00  0.00    -0.260 A  
HETATM    6  O   UNL     1      -8.032  18.724  67.402  1.00  0.00    -0.238 OA 
HETATM    7  C   UNL     1      -8.264  16.462  66.815  1.00  0.00    -0.286 A  
HETATM    8  C   UNL     1      -8.988  15.416  66.249  1.00  0.00    -0.341 A  
HETATM    9  H   UNL     1      -7.184  18.536  67.786  1.00  0.00     0.000 HD 
HETATM   10  C   UNL     1     -10.244  15.651  65.673  1.00  0.00    -0.402 A  
HETATM   11  C   UNL     1     -10.751  16.962  65.670  1.00  0.00    -0.173 A  
BRANCH  10  12
HETATM   12  C   UNL     1     -10.985  14.513  65.001  1.00  0.00    -0.398 C  
HETATM   13  O   UNL     1     -10.117  13.831  64.086  1.00  0.00    -0.729 OA 
HETATM   14  H   UNL     1     -10.582  13.117  63.664  1.00  0.00     0.000 HD 
BRANCH  12  15
HETATM   15  C   UNL     1     -11.510  13.518  66.057  1.00  0.00    -0.325 C  
BRANCH  15  16
HETATM   16  N   UNL     1     -12.169  14.218  67.172  1.00  0.00    -0.589 NA 
HETATM   17  H   UNL     1     -13.176  14.298  67.032  1.00  0.00     0.000 HD 
BRANCH  16  18
HETATM   18  C   UNL     1     -11.845  13.565  68.436  1.00  0.00    -0.373 C  
BRANCH  18  19
HETATM   19  C   UNL     1     -11.061  12.281  68.179  1.00  0.00    -0.285 C  
BRANCH  19  20
HETATM   20  C   UNL     1     -11.636  11.137  69.013  1.00  0.00    -0.392 C  
BRANCH  20  21
HETATM   21  C   UNL     1     -12.239  11.654  70.314  1.00  0.00    -0.401 C  
BRANCH  21  22
HETATM   22  C   UNL     1     -12.037  10.657  71.450  1.00  0.00    -0.342 C  
BRANCH  22  23
HETATM   23  C   UNL     1     -13.372  10.097  71.915  1.00  0.00    -0.402 C  
BRANCH  23  24
HETATM   24  O   UNL     1     -13.313   8.675  71.871  1.00  0.00    -0.342 OA 
BRANCH  24  25
HETATM   25  C   UNL     1     -12.118   8.201  72.489  1.00  0.00    -0.318 C  
BRANCH  25  26
HETATM   26  C   UNL     1     -11.586   7.001  71.723  1.00  0.00    -0.280 C  
BRANCH  26  27
HETATM   27  O   UNL     1     -11.401   7.372  70.357  1.00  0.00    -0.276 OA 
BRANCH  27  28
HETATM   28  C   UNL     1     -10.129   6.963  69.877  1.00  0.00    -0.188 C  
BRANCH  28  29
HETATM   29  C   UNL     1      -9.698   7.907  68.788  1.00  0.00    -0.159 A  
HETATM   30  C   UNL     1      -8.874   9.012  69.063  1.00  0.00    -0.136 A  
HETATM   31 CL   UNL     1      -8.356   9.401  70.668  1.00  0.00    -0.230 Cl 
HETATM   32  C   UNL     1      -8.433   9.859  68.037  1.00  0.00    -0.117 A  
HETATM   33  C   UNL     1      -8.826   9.632  66.723  1.00  0.00    -0.148 A  
HETATM   34  C   UNL     1      -9.685   8.576  66.436  1.00  0.00    -0.328 A  
HETATM   35  C   UNL     1     -10.127   7.728  67.460  1.00  0.00    -0.209 A  
HETATM   36 CL   UNL     1     -11.218   6.463  67.006  1.00  0.00    -0.402 Cl 
ENDBRANCH  28  29
ENDBRANCH  27  28
ENDBRANCH  26  27
ENDBRANCH  25  26
ENDBRANCH  24  25
ENDBRANCH  23  24
ENDBRANCH  22  23
ENDBRANCH  21  22
ENDBRANCH  20  21
ENDBRANCH  19  20
ENDBRANCH  18  19
ENDBRANCH  16  18
ENDBRANCH  15  16
ENDBRANCH  12  15
ENDBRANCH  10  12
ENDBRANCH   2   4
TORSDOF 16
ENDMDL
MODEL       86
REMARK 921   NORMALIZED FREE ENERGY PREDICTED BY IDOCK:   -5.50 KCAL/MOL
REMARK 922        TOTAL FREE ENERGY PREDICTED BY IDOCK:  -12.72 KCAL/MOL
REMARK 923 INTER-LIGAND FREE ENERGY PREDICTED BY IDOCK:   -9.91 KCAL/MOL
REMARK 924 INTRA-LIGAND FREE ENERGY PREDICTED BY IDOCK:   -2.81 KCAL/MOL
REMARK 927      BINDING AFFINITY PREDICTED BY RF-SCORE:    0.00 PKD
ROOT
HETATM    1  O   UNL     1     -14.115   6.236  72.416  1.00  0.00    -0.593 OA 
HETATM    2  C   UNL     1     -13.505   7.218  71.577  1.00  0.00    -0.363 C  
HETATM    3  H   UNL     1     -14.975   6.519  72.702  1.00  0.00     0.000 HD 
ENDROOT
BRANCH   2   4
HETATM    4  C   UNL     1     -12.141   6.769  71.123  1.00  0.00    -0.422 A  
HETATM    5  C   UNL     1     -11.103   6.449  72.005  1.00  0.00    -0.265 A  
HETATM    6  O   UNL     1     -11.281   6.453  73.360  1.00  0.00    -0.467 OA 
HETATM    7  C   UNL     1      -9.835   6.108  71.542  1.00  0.00    -0.190 A  
HETATM    8  C   UNL     1      -9.583   6.071  70.173  1.00  0.00    -0.192 A  
HETATM    9  H   UNL     1     -10.577   6.236  73.959  1.00  0.00     0.000 HD 
HETATM   10  C   UNL     1     -10.595   6.383  69.255  1.00  0.00    -0.311 A  
HETATM   11  C   UNL     1     -11.864   6.743  69.744  1.00  0.00    -0.128 A  
BRANCH  10  12
HETATM   12  C   UNL     1     -10.283   6.405  67.773  1.00  0.00    -0.162 C  
HETATM   13  O   UNL     1     -11.493   6.531  67.014  1.00  0.00    -0.752 OA 
HETATM   14  H   UNL     1     -11.297   6.545  66.084  1.00  0.00     0.000 HD 
BRANCH  12  15
HETATM   15  C   UNL     1      -9.338   7.579  67.442  1.00  0.00    -0.140 C  
BRANCH  15  16
HETATM   16  N   UNL     1      -9.827   8.350  66.287  1.00  0.00    -0.418 NA 
HETATM   17  H   UNL     1     -10.605   8.960  66.537  1.00  0.00     0.000 HD 
BRANCH  16  18
HETATM   18  C   UNL     1      -8.729   9.091  65.675  1.00  0.00    -0.175 C  
BRANCH  18  19
HETATM   19  C   UNL     1      -9.159   9.645  64.320  1.00  0.00    -0.267 C  
BRANCH  19  20
HETATM   20  C   UNL     1     -10.278  10.669  64.501  1.00  0.00    -0.399 C  
BRANCH  20  21
HETATM   21  C   UNL     1     -10.141  11.815  63.506  1.00  0.00    -0.463 C  
BRANCH  21  22
HETATM   22  C   UNL     1     -11.471  12.537  63.309  1.00  0.00    -0.409 C  
BRANCH  22  23
HETATM   23  C   UNL     1     -11.574  13.734  64.241  1.00  0.00    -0.369 C  
BRANCH  23  24
HETATM   24  O   UNL     1     -12.800  13.651  64.960  1.00  0.00    -0.690 OA 
BRANCH  24  25
HETATM   25  C   UNL     1     -12.667  14.239  66.252  1.00  0.00    -0.044 C  
BRANCH  25  26
HETATM   26  C   UNL     1     -11.220  14.153  66.708  1.00  0.00    -0.323 C  
BRANCH  26  27
HETATM   27  O   UNL     1     -11.176  13.515  67.984  1.00  0.00    -0.250 OA 
BRANCH  27  28
HETATM   28  C   UNL     1     -11.485  12.133  67.884  1.00  0.00    -0.328 C  
BRANCH  28  29
HETATM   29  C   UNL     1     -10.496  11.356  68.710  1.00  0.00    -0.228 A  
HETATM   30  C   UNL     1     -10.911  10.569  69.798  1.00  0.00    -0.281 A  
HETATM   31 CL   UNL     1     -12.564  10.491  70.304  1.00  0.00    -0.351 Cl 
HETATM   32  C   UNL     1      -9.991   9.808  70.532  1.00  0.00    -0.258 A  
HETATM   33  C   UNL     1      -8.639   9.837  70.208  1.00  0.00    -0.169 A  
HETATM   34  C   UNL     1      -8.200  10.651  69.169  1.00  0.00    -0.142 A  
HETATM   35  C   UNL     1      -9.117  11.413  68.433  1.00  0.00    -0.179 A  
HETATM   36 CL   UNL     1      -8.468  12.417  67.182  1.00  0.00    -0.181 Cl 
ENDBRANCH  28  29
ENDBRANCH  27  28
ENDBRANCH  26  27
ENDBRANCH  25  26
ENDBRANCH  24  25
ENDBRANCH  23  24
ENDBRANCH  22  23
ENDBRANCH  21  22
ENDBRANCH  20  21
ENDBRANCH  19  20
ENDBRANCH  18  19
ENDBRANCH  16  18
ENDBRANCH  15  16
ENDBRANCH  12  15
ENDBRANCH  10  12
ENDBRANCH   2   4
TORSDOF 16
ENDMDL
MODEL       87
REMARK 921   NORMALIZED FREE ENERGY PREDICTED BY IDOCK:   -5.49 KCAL/MOL
REMARK 922        TOTAL FREE ENERGY PREDICTED BY IDOCK:  -12.70 KCAL/MOL
REMARK 923 INTER-LIGAND FREE ENERGY PREDICTED BY IDOCK:  -11.03 KCAL/MOL
REMARK 924 INTRA-LIGAND FREE ENERGY PREDICTED BY IDOCK:   -1.66 KCAL/MOL
REMARK 927      BINDING AFFINITY PREDICTED BY RF-SCORE:    0.00 PKD
ROOT
HETATM    1  O   UNL     1     -11.482  16.391  63.712  1.00  0.00    -1.590 OA 
HETATM    2  C   UNL     1     -12.490  15.414  63.974  1.00  0.00     0.239 C  
HETATM    3  H   UNL     1     -11.827  17.106  63.190  1.00  0.00     0.000 HD 
ENDROOT
BRANCH   2   4
HETATM    4  C   UNL     1     -11.943  14.280  64.801  1.00  0.00    -0.449 A  
HETATM    5  C   UNL     1     -11.627  13.024  64.271  1.00  0.00    -0.385 A  
HETATM    6  O   UNL     1     -11.728  12.759  62.933  1.00  0.00    -0.762 OA 
HETATM    7  C   UNL     1     -11.192  11.981  65.083  1.00  0.00    -0.368 A  
HETATM    8  C   UNL     1     -11.053  12.181  66.455  1.00  0.00    -0.352 A  
HETATM    9  H   UNL     1     -11.514  11.907  62.574  1.00  0.00     0.000 HD 
HETATM   10  C   UNL     1     -11.357  13.425  67.026  1.00  0.00    -0.346 A  
HETATM   11  C   UNL     1     -11.813  14.459  66.189  1.00  0.00    -0.391 A  
BRANCH  10  12
HETATM   12  C   UNL     1     -11.266  13.602  68.527  1.00  0.00    -0.280 C  
HETATM   13  O   UNL     1     -12.453  14.236  69.023  1.00  0.00    -0.559 OA 
HETATM   14  H   UNL     1     -12.397  14.347  69.965  1.00  0.00     0.000 HD 
BRANCH  12  15
HETATM   15  C   UNL     1     -11.081  12.235  69.218  1.00  0.00    -0.158 C  
BRANCH  15  16
HETATM   16  N   UNL     1     -11.835  12.167  70.482  1.00  0.00    -0.512 NA 
HETATM   17  H   UNL     1     -12.401  13.002  70.634  1.00  0.00     0.000 HD 
BRANCH  16  18
HETATM   18  C   UNL     1     -12.637  10.950  70.523  1.00  0.00    -0.324 C  
BRANCH  18  19
HETATM   19  C   UNL     1     -13.242  10.766  71.912  1.00  0.00    -0.524 C  
BRANCH  19  20
HETATM   20  C   UNL     1     -13.509   9.285  72.179  1.00  0.00    -0.539 C  
BRANCH  20  21
HETATM   21  C   UNL     1     -12.244   8.456  71.988  1.00  0.00    -0.419 C  
BRANCH  21  22
HETATM   22  C   UNL     1     -12.573   7.060  71.468  1.00  0.00    -0.426 C  
BRANCH  22  23
HETATM   23  C   UNL     1     -11.979   5.996  72.378  1.00  0.00    -0.179 C  
BRANCH  23  24
HETATM   24  O   UNL     1     -10.843   6.541  73.040  1.00  0.00    -0.246 OA 
BRANCH  24  25
HETATM   25  C   UNL     1      -9.646   5.910  72.591  1.00  0.00    -0.152 C  
BRANCH  25  26
HETATM   26  C   UNL     1      -9.988   4.608  71.886  1.00  0.00    -0.189 C  
BRANCH  26  27
HETATM   27  O   UNL     1      -9.877   4.805  70.476  1.00  0.00    -0.195 OA 
BRANCH  27  28
HETATM   28  C   UNL     1      -8.907   5.795  70.166  1.00  0.00    -0.140 C  
BRANCH  28  29
HETATM   29  C   UNL     1      -9.477   6.719  69.124  1.00  0.00    -0.141 A  
HETATM   30  C   UNL     1      -9.890   6.239  67.870  1.00  0.00    -0.124 A  
HETATM   31 CL   UNL     1      -9.714   4.579  67.412  1.00  0.00    -0.214 Cl 
HETATM   32  C   UNL     1     -10.468   7.095  66.922  1.00  0.00    -0.364 A  
HETATM   33  C   UNL     1     -10.620   8.449  67.201  1.00  0.00    -0.326 A  
HETATM   34  C   UNL     1     -10.168   8.954  68.415  1.00  0.00    -0.231 A  
HETATM   35  C   UNL     1      -9.590   8.101  69.364  1.00  0.00    -0.167 A  
HETATM   36 CL   UNL     1      -9.031   8.831  70.830  1.00  0.00    -0.220 Cl 
ENDBRANCH  28  29
ENDBRANCH  27  28
ENDBRANCH  26  27
ENDBRANCH  25  26
ENDBRANCH  24  25
ENDBRANCH  23  24
ENDBRANCH  22  23
ENDBRANCH  21  22
ENDBRANCH  20  21
ENDBRANCH  19  20
ENDBRANCH  18  19
ENDBRANCH  16  18
ENDBRANCH  15  16
ENDBRANCH  12  15
ENDBRANCH  10  12
ENDBRANCH   2   4
TORSDOF 16
ENDMDL
MODEL       88
REMARK 921   NORMALIZED FREE ENERGY PREDICTED BY IDOCK:   -5.49 KCAL/MOL
REMARK 922        TOTAL FREE ENERGY PREDICTED BY IDOCK:  -12.69 KCAL/MOL
REMARK 923 INTER-LIGAND FREE ENERGY PREDICTED BY IDOCK:  -10.62 KCAL/MOL
REMARK 924 INTRA-LIGAND FREE ENERGY PREDICTED BY IDOCK:   -2.07 KCAL/MOL
REMARK 927      BINDING AFFINITY PREDICTED BY RF-SCORE:    0.00 PKD
ROOT
HETATM    1  O   UNL     1      -9.755   7.479  65.871  1.00  0.00    -0.417 OA 
HETATM    2  C   UNL     1     -10.631   7.206  66.965  1.00  0.00    -0.343 C  
HETATM    3  H   UNL     1     -10.011   6.988  65.099  1.00  0.00     0.000 HD 
ENDROOT
BRANCH   2   4
HETATM    4  C   UNL     1     -10.226   7.985  68.189  1.00  0.00    -0.251 A  
HETATM    5  C   UNL     1     -10.673   7.678  69.480  1.00  0.00    -0.209 A  
HETATM    6  O   UNL     1     -11.461   6.590  69.731  1.00  0.00    -0.457 OA 
HETATM    7  C   UNL     1     -10.331   8.468  70.574  1.00  0.00    -0.226 A  
HETATM    8  C   UNL     1      -9.520   9.587  70.396  1.00  0.00    -0.317 A  
HETATM    9  H   UNL     1     -11.765   6.382  70.606  1.00  0.00     0.000 HD 
HETATM   10  C   UNL     1      -9.049   9.928  69.121  1.00  0.00    -0.175 A  
HETATM   11  C   UNL     1      -9.421   9.127  68.026  1.00  0.00    -0.157 A  
BRANCH  10  12
HETATM   12  C   UNL     1      -8.226  11.186  68.938  1.00  0.00    -0.104 C  
HETATM   13  O   UNL     1      -7.060  11.139  69.771  1.00  0.00    -0.294 OA 
HETATM   14  H   UNL     1      -6.543  11.928  69.656  1.00  0.00     0.000 HD 
BRANCH  12  15
HETATM   15  C   UNL     1      -7.802  11.339  67.462  1.00  0.00    -0.123 C  
BRANCH  15  16
HETATM   16  N   UNL     1      -7.270  12.686  67.195  1.00  0.00    -0.347 NA 
HETATM   17  H   UNL     1      -7.024  12.812  66.213  1.00  0.00     0.000 HD 
BRANCH  16  18
HETATM   18  C   UNL     1      -8.215  13.699  67.654  1.00  0.00    -0.178 C  
BRANCH  18  19
HETATM   19  C   UNL     1      -7.649  15.095  67.408  1.00  0.00    -0.232 C  
BRANCH  19  20
HETATM   20  C   UNL     1      -8.665  15.948  66.648  1.00  0.00    -0.324 C  
BRANCH  20  21
HETATM   21  C   UNL     1      -9.575  15.082  65.786  1.00  0.00    -0.327 C  
BRANCH  21  22
HETATM   22  C   UNL     1     -10.774  15.877  65.278  1.00  0.00    -0.442 C  
BRANCH  22  23
HETATM   23  C   UNL     1     -11.801  14.951  64.645  1.00  0.00    -0.407 C  
BRANCH  23  24
HETATM   24  O   UNL     1     -11.372  13.605  64.818  1.00  0.00    -0.329 OA 
BRANCH  24  25
HETATM   25  C   UNL     1     -12.304  12.877  65.615  1.00  0.00    -0.423 C  
BRANCH  25  26
HETATM   26  C   UNL     1     -11.607  12.338  66.853  1.00  0.00    -0.361 C  
BRANCH  26  27
HETATM   27  O   UNL     1     -12.371  12.696  68.005  1.00  0.00    -0.179 OA 
BRANCH  27  28
HETATM   28  C   UNL     1     -11.593  12.612  69.190  1.00  0.00    -0.320 C  
BRANCH  28  29
HETATM   29  C   UNL     1     -12.321  13.325  70.297  1.00  0.00    -0.334 A  
HETATM   30  C   UNL     1     -12.419  14.727  70.323  1.00  0.00    -0.340 A  
HETATM   31 CL   UNL     1     -11.660  15.728  69.132  1.00  0.00    -0.378 Cl 
HETATM   32  C   UNL     1     -13.142  15.383  71.328  1.00  0.00    -0.564 A  
HETATM   33  C   UNL     1     -13.759  14.653  72.338  1.00  0.00    -0.575 A  
HETATM   34  C   UNL     1     -13.629  13.268  72.361  1.00  0.00    -0.694 A  
HETATM   35  C   UNL     1     -12.907  12.610  71.357  1.00  0.00    -0.261 A  
HETATM   36 CL   UNL     1     -12.776  10.889  71.493  1.00  0.00    -0.532 Cl 
ENDBRANCH  28  29
ENDBRANCH  27  28
ENDBRANCH  26  27
ENDBRANCH  25  26
ENDBRANCH  24  25
ENDBRANCH  23  24
ENDBRANCH  22  23
ENDBRANCH  21  22
ENDBRANCH  20  21
ENDBRANCH  19  20
ENDBRANCH  18  19
ENDBRANCH  16  18
ENDBRANCH  15  16
ENDBRANCH  12  15
ENDBRANCH  10  12
ENDBRANCH   2   4
TORSDOF 16
ENDMDL
MODEL       89
REMARK 921   NORMALIZED FREE ENERGY PREDICTED BY IDOCK:   -5.49 KCAL/MOL
REMARK 922        TOTAL FREE ENERGY PREDICTED BY IDOCK:  -12.69 KCAL/MOL
REMARK 923 INTER-LIGAND FREE ENERGY PREDICTED BY IDOCK:  -11.01 KCAL/MOL
REMARK 924 INTRA-LIGAND FREE ENERGY PREDICTED BY IDOCK:   -1.68 KCAL/MOL
REMARK 927      BINDING AFFINITY PREDICTED BY RF-SCORE:    0.00 PKD
ROOT
HETATM    1  O   UNL     1     -14.130  14.616  72.672  1.00  0.00    -0.491 OA 
HETATM    2  C   UNL     1     -13.189  13.684  72.138  1.00  0.00    -0.449 C  
HETATM    3  H   UNL     1     -14.589  14.248  73.418  1.00  0.00     0.000 HD 
ENDROOT
BRANCH   2   4
HETATM    4  C   UNL     1     -12.461  14.268  70.955  1.00  0.00    -0.432 A  
HETATM    5  C   UNL     1     -11.976  15.581  70.922  1.00  0.00    -0.375 A  
HETATM    6  O   UNL     1     -12.067  16.411  72.004  1.00  0.00    -0.596 OA 
HETATM    7  C   UNL     1     -11.373  16.103  69.782  1.00  0.00    -0.323 A  
HETATM    8  C   UNL     1     -11.234  15.312  68.644  1.00  0.00    -0.303 A  
HETATM    9  H   UNL     1     -11.738  17.301  71.982  1.00  0.00     0.000 HD 
HETATM   10  C   UNL     1     -11.705  13.991  68.636  1.00  0.00    -0.389 A  
HETATM   11  C   UNL     1     -12.328  13.489  69.793  1.00  0.00    -0.249 A  
BRANCH  10  12
HETATM   12  C   UNL     1     -11.608  13.169  67.368  1.00  0.00    -0.356 C  
HETATM   13  O   UNL     1     -12.134  11.853  67.590  1.00  0.00    -0.568 OA 
HETATM   14  H   UNL     1     -12.074  11.338  66.794  1.00  0.00     0.000 HD 
BRANCH  12  15
HETATM   15  C   UNL     1     -12.385  13.853  66.224  1.00  0.00    -0.449 C  
BRANCH  15  16
HETATM   16  N   UNL     1     -11.525  14.077  65.051  1.00  0.00    -0.330 NA 
HETATM   17  H   UNL     1     -10.623  13.609  65.143  1.00  0.00     0.000 HD 
BRANCH  16  18
HETATM   18  C   UNL     1     -12.223  13.680  63.833  1.00  0.00    -0.374 C  
BRANCH  18  19
HETATM   19  C   UNL     1     -12.103  12.172  63.626  1.00  0.00    -0.648 C  
BRANCH  19  20
HETATM   20  C   UNL     1     -10.634  11.777  63.476  1.00  0.00    -0.499 C  
BRANCH  20  21
HETATM   21  C   UNL     1     -10.275  10.629  64.412  1.00  0.00    -0.400 C  
BRANCH  21  22
HETATM   22  C   UNL     1      -9.286  11.079  65.483  1.00  0.00    -0.242 C  
BRANCH  22  23
HETATM   23  C   UNL     1      -9.131  10.010  66.552  1.00  0.00    -0.148 C  
BRANCH  23  24
HETATM   24  O   UNL     1      -9.981   8.914  66.231  1.00  0.00    -0.282 OA 
BRANCH  24  25
HETATM   25  C   UNL     1     -10.423   8.255  67.416  1.00  0.00    -0.283 C  
BRANCH  25  26
HETATM   26  C   UNL     1      -9.988   9.049  68.636  1.00  0.00    -0.172 C  
BRANCH  26  27
HETATM   27  O   UNL     1      -9.991   8.186  69.773  1.00  0.00    -0.185 OA 
BRANCH  27  28
HETATM   28  C   UNL     1     -10.948   7.146  69.631  1.00  0.00    -0.212 C  
BRANCH  28  29
HETATM   29  C   UNL     1     -10.778   6.175  70.767  1.00  0.00    -0.326 A  
HETATM   30  C   UNL     1     -10.217   4.902  70.563  1.00  0.00    -0.218 A  
HETATM   31 CL   UNL     1      -9.749   4.340  68.994  1.00  0.00    -0.236 Cl 
HETATM   32  C   UNL     1     -10.013   4.021  71.634  1.00  0.00    -0.232 A  
HETATM   33  C   UNL     1     -10.387   4.386  72.923  1.00  0.00    -0.240 A  
HETATM   34  C   UNL     1     -10.993   5.619  73.138  1.00  0.00    -0.326 A  
HETATM   35  C   UNL     1     -11.198   6.501  72.070  1.00  0.00    -0.273 A  
HETATM   36 CL   UNL     1     -11.988   7.997  72.436  1.00  0.00    -0.405 Cl 
ENDBRANCH  28  29
ENDBRANCH  27  28
ENDBRANCH  26  27
ENDBRANCH  25  26
ENDBRANCH  24  25
ENDBRANCH  23  24
ENDBRANCH  22  23
ENDBRANCH  21  22
ENDBRANCH  20  21
ENDBRANCH  19  20
ENDBRANCH  18  19
ENDBRANCH  16  18
ENDBRANCH  15  16
ENDBRANCH  12  15
ENDBRANCH  10  12
ENDBRANCH   2   4
TORSDOF 16
ENDMDL
MODEL       90
REMARK 921   NORMALIZED FREE ENERGY PREDICTED BY IDOCK:   -5.48 KCAL/MOL
REMARK 922        TOTAL FREE ENERGY PREDICTED BY IDOCK:  -12.68 KCAL/MOL
REMARK 923 INTER-LIGAND FREE ENERGY PREDICTED BY IDOCK:  -10.67 KCAL/MOL
REMARK 924 INTRA-LIGAND FREE ENERGY PREDICTED BY IDOCK:   -2.01 KCAL/MOL
REMARK 927      BINDING AFFINITY PREDICTED BY RF-SCORE:    0.00 PKD
ROOT
HETATM    1  O   UNL     1      -8.770   6.258  68.124  1.00  0.00    -0.116 OA 
HETATM    2  C   UNL     1      -9.319   6.521  66.832  1.00  0.00    -0.146 C  
HETATM    3  H   UNL     1      -8.551   5.339  68.221  1.00  0.00     0.000 HD 
ENDROOT
BRANCH   2   4
HETATM    4  C   UNL     1      -9.667   7.979  66.679  1.00  0.00    -0.313 A  
HETATM    5  C   UNL     1     -10.390   8.701  67.634  1.00  0.00    -0.254 A  
HETATM    6  O   UNL     1     -10.773   8.145  68.823  1.00  0.00    -0.371 OA 
HETATM    7  C   UNL     1     -10.753  10.028  67.420  1.00  0.00    -0.336 A  
HETATM    8  C   UNL     1     -10.388  10.666  66.237  1.00  0.00    -0.296 A  
HETATM    9  H   UNL     1     -11.263   8.635  69.471  1.00  0.00     0.000 HD 
HETATM   10  C   UNL     1      -9.661   9.978  65.255  1.00  0.00    -0.373 A  
HETATM   11  C   UNL     1      -9.321   8.633  65.483  1.00  0.00    -0.105 A  
BRANCH  10  12
HETATM   12  C   UNL     1      -9.333  10.667  63.946  1.00  0.00    -0.267 C  
HETATM   13  O   UNL     1      -9.689   9.825  62.841  1.00  0.00    -0.539 OA 
HETATM   14  H   UNL     1      -9.483  10.257  62.020  1.00  0.00     0.000 HD 
BRANCH  12  15
HETATM   15  C   UNL     1     -10.090  12.007  63.841  1.00  0.00    -0.369 C  
BRANCH  15  16
HETATM   16  N   UNL     1     -11.268  11.890  62.965  1.00  0.00    -0.654 NA 
HETATM   17  H   UNL     1     -11.654  10.946  62.968  1.00  0.00     0.000 HD 
BRANCH  16  18
HETATM   18  C   UNL     1     -12.267  12.888  63.330  1.00  0.00    -0.490 C  
BRANCH  18  19
HETATM   19  C   UNL     1     -12.759  12.643  64.754  1.00  0.00    -0.460 C  
BRANCH  19  20
HETATM   20  C   UNL     1     -12.655  13.928  65.575  1.00  0.00    -0.560 C  
BRANCH  20  21
HETATM   21  C   UNL     1     -12.072  13.653  66.956  1.00  0.00    -0.423 C  
BRANCH  21  22
HETATM   22  C   UNL     1     -10.619  14.111  67.042  1.00  0.00    -0.276 C  
BRANCH  22  23
HETATM   23  C   UNL     1     -10.367  15.274  66.097  1.00  0.00    -0.302 C  
BRANCH  23  24
HETATM   24  O   UNL     1      -8.969  15.537  66.056  1.00  0.00    -0.324 OA 
BRANCH  24  25
HETATM   25  C   UNL     1      -8.296  14.852  67.110  1.00  0.00    -0.221 C  
BRANCH  25  26
HETATM   26  C   UNL     1      -7.213  15.745  67.692  1.00  0.00    -0.166 C  
BRANCH  26  27
HETATM   27  O   UNL     1      -7.699  16.332  68.900  1.00  0.00    -0.193 OA 
BRANCH  27  28
HETATM   28  C   UNL     1      -7.451  17.730  68.932  1.00  0.00    -0.235 C  
BRANCH  28  29
HETATM   29  C   UNL     1      -8.448  18.418  68.040  1.00  0.00    -0.291 A  
HETATM   30  C   UNL     1      -9.831  18.243  68.218  1.00  0.00    -0.350 A  
HETATM   31 CL   UNL     1     -10.480  17.182  69.422  1.00  0.00    -0.286 Cl 
HETATM   32  C   UNL     1     -10.756  18.927  67.417  1.00  0.00    -0.519 A  
HETATM   33  C   UNL     1     -10.316  19.777  66.409  1.00  0.00    -0.619 A  
HETATM   34  C   UNL     1      -8.952  19.923  66.180  1.00  0.00    -0.373 A  
HETATM   35  C   UNL     1      -8.026  19.241  66.980  1.00  0.00    -0.257 A  
HETATM   36 CL   UNL     1      -6.353  19.463  66.595  1.00  0.00    -0.186 Cl 
ENDBRANCH  28  29
ENDBRANCH  27  28
ENDBRANCH  26  27
ENDBRANCH  25  26
ENDBRANCH  24  25
ENDBRANCH  23  24
ENDBRANCH  22  23
ENDBRANCH  21  22
ENDBRANCH  20  21
ENDBRANCH  19  20
ENDBRANCH  18  19
ENDBRANCH  16  18
ENDBRANCH  15  16
ENDBRANCH  12  15
ENDBRANCH  10  12
ENDBRANCH   2   4
TORSDOF 16
ENDMDL
MODEL       91
REMARK 921   NORMALIZED FREE ENERGY PREDICTED BY IDOCK:   -5.48 KCAL/MOL
REMARK 922        TOTAL FREE ENERGY PREDICTED BY IDOCK:  -12.67 KCAL/MOL
REMARK 923 INTER-LIGAND FREE ENERGY PREDICTED BY IDOCK:   -9.98 KCAL/MOL
REMARK 924 INTRA-LIGAND FREE ENERGY PREDICTED BY IDOCK:   -2.69 KCAL/MOL
REMARK 927      BINDING AFFINITY PREDICTED BY RF-SCORE:    0.00 PKD
ROOT
HETATM    1  O   UNL     1     -13.754   9.494  71.196  1.00  0.00    -0.484 OA 
HETATM    2  C   UNL     1     -12.676   9.202  72.086  1.00  0.00    -0.395 C  
HETATM    3  H   UNL     1     -14.479   9.896  71.659  1.00  0.00     0.000 HD 
ENDROOT
BRANCH   2   4
HETATM    4  C   UNL     1     -11.526   8.564  71.351  1.00  0.00    -0.344 A  
HETATM    5  C   UNL     1     -11.628   7.345  70.672  1.00  0.00    -0.268 A  
HETATM    6  O   UNL     1     -12.816   6.676  70.566  1.00  0.00    -0.329 OA 
HETATM    7  C   UNL     1     -10.522   6.756  70.066  1.00  0.00    -0.241 A  
HETATM    8  C   UNL     1      -9.281   7.386  70.122  1.00  0.00    -0.151 A  
HETATM    9  H   UNL     1     -12.886   5.849  70.105  1.00  0.00     0.000 HD 
HETATM   10  C   UNL     1      -9.136   8.609  70.792  1.00  0.00    -0.214 A  
HETATM   11  C   UNL     1     -10.262   9.178  71.412  1.00  0.00    -0.402 A  
BRANCH  10  12
HETATM   12  C   UNL     1      -7.766   9.244  70.901  1.00  0.00    -0.103 C  
HETATM   13  O   UNL     1      -6.797   8.266  71.301  1.00  0.00    -0.050 OA 
HETATM   14  H   UNL     1      -5.937   8.664  71.370  1.00  0.00     0.000 HD 
BRANCH  12  15
HETATM   15  C   UNL     1      -7.351   9.861  69.549  1.00  0.00    -0.102 C  
BRANCH  15  16
HETATM   16  N   UNL     1      -8.068  11.121  69.292  1.00  0.00    -0.371 NA 
HETATM   17  H   UNL     1      -7.472  11.936  69.435  1.00  0.00     0.000 HD 
BRANCH  16  18
HETATM   18  C   UNL     1      -8.654  11.102  67.955  1.00  0.00    -0.140 C  
BRANCH  18  19
HETATM   19  C   UNL     1      -8.553   9.702  67.357  1.00  0.00    -0.125 C  
BRANCH  19  20
HETATM   20  C   UNL     1      -9.786   9.403  66.505  1.00  0.00    -0.325 C  
BRANCH  20  21
HETATM   21  C   UNL     1     -10.354  10.679  65.894  1.00  0.00    -0.291 C  
BRANCH  21  22
HETATM   22  C   UNL     1      -9.816  10.901  64.483  1.00  0.00    -0.356 C  
BRANCH  22  23
HETATM   23  C   UNL     1     -10.874  11.545  63.602  1.00  0.00    -0.415 C  
BRANCH  23  24
HETATM   24  O   UNL     1     -10.841  12.954  63.802  1.00  0.00    -0.401 OA 
BRANCH  24  25
HETATM   25  C   UNL     1     -12.141  13.449  64.118  1.00  0.00    -0.433 C  
BRANCH  25  26
HETATM   26  C   UNL     1     -12.032  14.540  65.169  1.00  0.00    -0.369 C  
BRANCH  26  27
HETATM   27  O   UNL     1     -12.436  14.007  66.431  1.00  0.00    -0.452 OA 
BRANCH  27  28
HETATM   28  C   UNL     1     -11.317  13.743  67.264  1.00  0.00    -0.321 C  
BRANCH  28  29
HETATM   29  C   UNL     1     -11.730  13.931  68.699  1.00  0.00    -0.396 A  
HETATM   30  C   UNL     1     -11.753  15.205  69.292  1.00  0.00    -0.329 A  
HETATM   31 CL   UNL     1     -11.249  16.627  68.443  1.00  0.00    -0.316 Cl 
HETATM   32  C   UNL     1     -12.187  15.381  70.613  1.00  0.00    -0.431 A  
HETATM   33  C   UNL     1     -12.582  14.285  71.372  1.00  0.00    -0.434 A  
HETATM   34  C   UNL     1     -12.516  13.009  70.823  1.00  0.00    -0.384 A  
HETATM   35  C   UNL     1     -12.082  12.831  69.502  1.00  0.00    -0.205 A  
HETATM   36 CL   UNL     1     -12.005  11.202  68.921  1.00  0.00    -0.402 Cl 
ENDBRANCH  28  29
ENDBRANCH  27  28
ENDBRANCH  26  27
ENDBRANCH  25  26
ENDBRANCH  24  25
ENDBRANCH  23  24
ENDBRANCH  22  23
ENDBRANCH  21  22
ENDBRANCH  20  21
ENDBRANCH  19  20
ENDBRANCH  18  19
ENDBRANCH  16  18
ENDBRANCH  15  16
ENDBRANCH  12  15
ENDBRANCH  10  12
ENDBRANCH   2   4
TORSDOF 16
ENDMDL
MODEL       92
REMARK 921   NORMALIZED FREE ENERGY PREDICTED BY IDOCK:   -5.47 KCAL/MOL
REMARK 922        TOTAL FREE ENERGY PREDICTED BY IDOCK:  -12.67 KCAL/MOL
REMARK 923 INTER-LIGAND FREE ENERGY PREDICTED BY IDOCK:   -9.60 KCAL/MOL
REMARK 924 INTRA-LIGAND FREE ENERGY PREDICTED BY IDOCK:   -3.07 KCAL/MOL
REMARK 927      BINDING AFFINITY PREDICTED BY RF-SCORE:    0.00 PKD
ROOT
HETATM    1  O   UNL     1     -12.785  14.934  69.562  1.00  0.00    -0.582 OA 
HETATM    2  C   UNL     1     -12.226  13.744  69.005  1.00  0.00    -0.224 C  
HETATM    3  H   UNL     1     -13.223  14.753  70.386  1.00  0.00     0.000 HD 
ENDROOT
BRANCH   2   4
HETATM    4  C   UNL     1     -11.532  14.032  67.700  1.00  0.00    -0.362 A  
HETATM    5  C   UNL     1     -10.605  15.067  67.534  1.00  0.00    -0.265 A  
HETATM    6  O   UNL     1     -10.205  15.852  68.579  1.00  0.00    -0.217 OA 
HETATM    7  C   UNL     1     -10.041  15.345  66.292  1.00  0.00    -0.309 A  
HETATM    8  C   UNL     1     -10.391  14.578  65.183  1.00  0.00    -0.438 A  
HETATM    9  H   UNL     1      -9.575  16.555  68.466  1.00  0.00     0.000 HD 
HETATM   10  C   UNL     1     -11.315  13.531  65.306  1.00  0.00    -0.304 A  
HETATM   11  C   UNL     1     -11.887  13.279  66.566  1.00  0.00    -0.450 A  
BRANCH  10  12
HETATM   12  C   UNL     1     -11.736  12.754  64.076  1.00  0.00    -0.426 C  
HETATM   13  O   UNL     1     -12.495  13.594  63.196  1.00  0.00    -1.033 OA 
HETATM   14  H   UNL     1     -12.758  13.107  62.424  1.00  0.00     0.000 HD 
BRANCH  12  15
HETATM   15  C   UNL     1     -10.496  12.212  63.335  1.00  0.00    -0.412 C  
BRANCH  15  16
HETATM   16  N   UNL     1     -10.370  10.754  63.496  1.00  0.00    -0.521 NA 
HETATM   17  H   UNL     1     -10.224  10.282  62.604  1.00  0.00     0.000 HD 
BRANCH  16  18
HETATM   18  C   UNL     1      -9.316  10.444  64.456  1.00  0.00    -0.264 C  
BRANCH  18  19
HETATM   19  C   UNL     1      -9.916   9.813  65.710  1.00  0.00    -0.349 C  
BRANCH  19  20
HETATM   20  C   UNL     1      -9.641  10.696  66.927  1.00  0.00    -0.200 C  
BRANCH  20  21
HETATM   21  C   UNL     1      -8.491  11.659  66.658  1.00  0.00    -0.165 C  
BRANCH  21  22
HETATM   22  C   UNL     1      -7.564  11.762  67.865  1.00  0.00    -0.121 C  
BRANCH  22  23
HETATM   23  C   UNL     1      -6.277  10.991  67.619  1.00  0.00    -0.052 C  
BRANCH  23  24
HETATM   24  O   UNL     1      -5.721  10.612  68.874  1.00  0.00    -0.041 OA 
BRANCH  24  25
HETATM   25  C   UNL     1      -6.694  10.725  69.910  1.00  0.00    -0.156 C  
BRANCH  25  26
HETATM   26  C   UNL     1      -6.676   9.471  70.768  1.00  0.00    -0.105 C  
BRANCH  26  27
HETATM   27  O   UNL     1      -7.969   9.289  71.346  1.00  0.00    -0.335 OA 
BRANCH  27  28
HETATM   28  C   UNL     1      -8.999   9.539  70.400  1.00  0.00    -0.243 C  
BRANCH  28  29
HETATM   29  C   UNL     1      -9.652   8.232  70.041  1.00  0.00    -0.168 A  
HETATM   30  C   UNL     1     -10.726   7.721  70.792  1.00  0.00    -0.226 A  
HETATM   31 CL   UNL     1     -11.323   8.517  72.208  1.00  0.00    -0.440 Cl 
HETATM   32  C   UNL     1     -11.364   6.529  70.422  1.00  0.00    -0.443 A  
HETATM   33  C   UNL     1     -10.926   5.815  69.313  1.00  0.00    -0.330 A  
HETATM   34  C   UNL     1      -9.832   6.275  68.588  1.00  0.00    -0.152 A  
HETATM   35  C   UNL     1      -9.193   7.466  68.955  1.00  0.00    -0.142 A  
HETATM   36 CL   UNL     1      -7.821   7.937  68.009  1.00  0.00    -0.124 Cl 
ENDBRANCH  28  29
ENDBRANCH  27  28
ENDBRANCH  26  27
ENDBRANCH  25  26
ENDBRANCH  24  25
ENDBRANCH  23  24
ENDBRANCH  22  23
ENDBRANCH  21  22
ENDBRANCH  20  21
ENDBRANCH  19  20
ENDBRANCH  18  19
ENDBRANCH  16  18
ENDBRANCH  15  16
ENDBRANCH  12  15
ENDBRANCH  10  12
ENDBRANCH   2   4
TORSDOF 16
ENDMDL
MODEL       93
REMARK 921   NORMALIZED FREE ENERGY PREDICTED BY IDOCK:   -5.47 KCAL/MOL
REMARK 922        TOTAL FREE ENERGY PREDICTED BY IDOCK:  -12.66 KCAL/MOL
REMARK 923 INTER-LIGAND FREE ENERGY PREDICTED BY IDOCK:   -9.95 KCAL/MOL
REMARK 924 INTRA-LIGAND FREE ENERGY PREDICTED BY IDOCK:   -2.71 KCAL/MOL
REMARK 927      BINDING AFFINITY PREDICTED BY RF-SCORE:    0.00 PKD
ROOT
HETATM    1  O   UNL     1     -10.930  10.974  62.756  1.00  0.00    -0.765 OA 
HETATM    2  C   UNL     1     -10.108  11.680  63.687  1.00  0.00    -0.402 C  
HETATM    3  H   UNL     1     -10.407  10.595  62.060  1.00  0.00     0.000 HD 
ENDROOT
BRANCH   2   4
HETATM    4  C   UNL     1     -10.937  12.282  64.792  1.00  0.00    -0.346 A  
HETATM    5  C   UNL     1     -11.932  13.242  64.572  1.00  0.00    -0.400 A  
HETATM    6  O   UNL     1     -12.273  13.652  63.313  1.00  0.00    -0.959 OA 
HETATM    7  C   UNL     1     -12.625  13.825  65.629  1.00  0.00    -0.551 A  
HETATM    8  C   UNL     1     -12.339  13.448  66.939  1.00  0.00    -0.262 A  
HETATM    9  H   UNL     1     -12.948  14.303  63.164  1.00  0.00     0.000 HD 
HETATM   10  C   UNL     1     -11.352  12.489  67.202  1.00  0.00    -0.381 A  
HETATM   11  C   UNL     1     -10.651  11.925  66.121  1.00  0.00    -0.295 A  
BRANCH  10  12
HETATM   12  C   UNL     1     -11.008  12.143  68.636  1.00  0.00    -0.245 C  
HETATM   13  O   UNL     1     -10.710  13.335  69.376  1.00  0.00    -0.439 OA 
HETATM   14  H   UNL     1     -10.495  13.118  70.275  1.00  0.00     0.000 HD 
BRANCH  12  15
HETATM   15  C   UNL     1     -12.182  11.398  69.305  1.00  0.00    -0.204 C  
BRANCH  15  16
HETATM   16  N   UNL     1     -12.344  11.805  70.711  1.00  0.00    -0.374 NA 
HETATM   17  H   UNL     1     -13.013  12.568  70.813  1.00  0.00     0.000 HD 
BRANCH  16  18
HETATM   18  C   UNL     1     -12.703  10.652  71.529  1.00  0.00    -0.444 C  
BRANCH  18  19
HETATM   19  C   UNL     1     -11.979   9.406  71.028  1.00  0.00    -0.389 C  
BRANCH  19  20
HETATM   20  C   UNL     1     -11.204   8.752  72.172  1.00  0.00    -0.408 C  
BRANCH  20  21
HETATM   21  C   UNL     1      -9.702   8.810  71.922  1.00  0.00    -0.386 C  
BRANCH  21  22
HETATM   22  C   UNL     1      -9.396   9.307  70.512  1.00  0.00    -0.316 C  
BRANCH  22  23
HETATM   23  C   UNL     1      -7.895   9.349  70.273  1.00  0.00    -0.156 C  
BRANCH  23  24
HETATM   24  O   UNL     1      -7.635  10.171  69.140  1.00  0.00    -0.084 OA 
BRANCH  24  25
HETATM   25  C   UNL     1      -6.507   9.687  68.414  1.00  0.00    -0.052 C  
BRANCH  25  26
HETATM   26  C   UNL     1      -6.585   8.174  68.296  1.00  0.00    -0.060 C  
BRANCH  26  27
HETATM   27  O   UNL     1      -7.710   7.832  67.486  1.00  0.00    -0.112 OA 
BRANCH  27  28
HETATM   28  C   UNL     1      -7.930   6.429  67.469  1.00  0.00    -0.116 C  
BRANCH  28  29
HETATM   29  C   UNL     1      -8.962   6.090  68.510  1.00  0.00    -0.114 A  
HETATM   30  C   UNL     1      -8.612   5.426  69.698  1.00  0.00    -0.103 A  
HETATM   31 CL   UNL     1      -6.995   4.897  70.018  1.00  0.00    -0.048 Cl 
HETATM   32  C   UNL     1      -9.569   5.159  70.687  1.00  0.00    -0.242 A  
HETATM   33  C   UNL     1     -10.896   5.527  70.496  1.00  0.00    -0.266 A  
HETATM   34  C   UNL     1     -11.274   6.137  69.304  1.00  0.00    -0.438 A  
HETATM   35  C   UNL     1     -10.319   6.405  68.315  1.00  0.00    -0.191 A  
HETATM   36 CL   UNL     1     -10.895   7.137  66.855  1.00  0.00    -0.401 Cl 
ENDBRANCH  28  29
ENDBRANCH  27  28
ENDBRANCH  26  27
ENDBRANCH  25  26
ENDBRANCH  24  25
ENDBRANCH  23  24
ENDBRANCH  22  23
ENDBRANCH  21  22
ENDBRANCH  20  21
ENDBRANCH  19  20
ENDBRANCH  18  19
ENDBRANCH  16  18
ENDBRANCH  15  16
ENDBRANCH  12  15
ENDBRANCH  10  12
ENDBRANCH   2   4
TORSDOF 16
ENDMDL
MODEL       94
REMARK 921   NORMALIZED FREE ENERGY PREDICTED BY IDOCK:   -5.47 KCAL/MOL
REMARK 922        TOTAL FREE ENERGY PREDICTED BY IDOCK:  -12.66 KCAL/MOL
REMARK 923 INTER-LIGAND FREE ENERGY PREDICTED BY IDOCK:   -9.88 KCAL/MOL
REMARK 924 INTRA-LIGAND FREE ENERGY PREDICTED BY IDOCK:   -2.77 KCAL/MOL
REMARK 927      BINDING AFFINITY PREDICTED BY RF-SCORE:    0.00 PKD
ROOT
HETATM    1  O   UNL     1      -8.285  10.800  63.953  1.00  0.00    -0.356 OA 
HETATM    2  C   UNL     1      -9.513  10.337  64.516  1.00  0.00    -0.298 C  
HETATM    3  H   UNL     1      -8.390  11.007  63.032  1.00  0.00     0.000 HD 
ENDROOT
BRANCH   2   4
HETATM    4  C   UNL     1      -9.347  10.009  65.977  1.00  0.00    -0.224 A  
HETATM    5  C   UNL     1      -8.502  10.722  66.835  1.00  0.00    -0.131 A  
HETATM    6  O   UNL     1      -7.814  11.826  66.416  1.00  0.00    -0.364 OA 
HETATM    7  C   UNL     1      -8.323  10.340  68.162  1.00  0.00    -0.118 A  
HETATM    8  C   UNL     1      -9.001   9.231  68.663  1.00  0.00    -0.132 A  
HETATM    9  H   UNL     1      -7.240  12.310  66.998  1.00  0.00     0.000 HD 
HETATM   10  C   UNL     1      -9.859   8.491  67.838  1.00  0.00    -0.208 A  
HETATM   11  C   UNL     1     -10.011   8.882  66.495  1.00  0.00    -0.358 A  
BRANCH  10  12
HETATM   12  C   UNL     1     -10.533   7.249  68.381  1.00  0.00    -0.195 C  
HETATM   13  O   UNL     1      -9.805   6.077  67.988  1.00  0.00    -0.116 OA 
HETATM   14  H   UNL     1     -10.228   5.298  68.330  1.00  0.00     0.000 HD 
BRANCH  12  15
HETATM   15  C   UNL     1     -10.617   7.314  69.921  1.00  0.00    -0.231 C  
BRANCH  15  16
HETATM   16  N   UNL     1     -12.014   7.416  70.377  1.00  0.00    -0.525 NA 
HETATM   17  H   UNL     1     -12.441   6.500  70.509  1.00  0.00     0.000 HD 
BRANCH  16  18
HETATM   18  C   UNL     1     -12.089   8.231  71.586  1.00  0.00    -0.306 C  
BRANCH  18  19
HETATM   19  C   UNL     1     -11.363   9.557  71.371  1.00  0.00    -0.462 C  
BRANCH  19  20
HETATM   20  C   UNL     1     -12.322  10.593  70.787  1.00  0.00    -0.472 C  
BRANCH  20  21
HETATM   21  C   UNL     1     -11.588  11.568  69.874  1.00  0.00    -0.387 C  
BRANCH  21  22
HETATM   22  C   UNL     1     -12.010  11.384  68.419  1.00  0.00    -0.270 C  
BRANCH  22  23
HETATM   23  C   UNL     1     -11.603  12.590  67.587  1.00  0.00    -0.355 C  
BRANCH  23  24
HETATM   24  O   UNL     1     -12.019  12.380  66.242  1.00  0.00    -0.553 OA 
BRANCH  24  25
HETATM   25  C   UNL     1     -11.936  13.591  65.494  1.00  0.00    -0.390 C  
BRANCH  25  26
HETATM   26  C   UNL     1     -10.479  13.934  65.234  1.00  0.00    -0.371 C  
BRANCH  26  27
HETATM   27  O   UNL     1     -10.251  15.293  65.608  1.00  0.00    -0.315 OA 
BRANCH  27  28
HETATM   28  C   UNL     1      -9.226  15.395  66.586  1.00  0.00    -0.275 C  
BRANCH  28  29
HETATM   29  C   UNL     1      -9.286  16.765  67.206  1.00  0.00    -0.234 A  
HETATM   30  C   UNL     1      -8.313  17.739  66.921  1.00  0.00    -0.238 A  
HETATM   31 CL   UNL     1      -6.953  17.416  65.901  1.00  0.00    -0.240 Cl 
HETATM   32  C   UNL     1      -8.403  19.030  67.461  1.00  0.00    -0.303 A  
HETATM   33  C   UNL     1      -9.451  19.363  68.312  1.00  0.00    -0.433 A  
HETATM   34  C   UNL     1     -10.394  18.398  68.650  1.00  0.00    -0.286 A  
HETATM   35  C   UNL     1     -10.307  17.107  68.112  1.00  0.00    -0.350 A  
HETATM   36 CL   UNL     1     -11.510  15.970  68.618  1.00  0.00    -0.387 Cl 
ENDBRANCH  28  29
ENDBRANCH  27  28
ENDBRANCH  26  27
ENDBRANCH  25  26
ENDBRANCH  24  25
ENDBRANCH  23  24
ENDBRANCH  22  23
ENDBRANCH  21  22
ENDBRANCH  20  21
ENDBRANCH  19  20
ENDBRANCH  18  19
ENDBRANCH  16  18
ENDBRANCH  15  16
ENDBRANCH  12  15
ENDBRANCH  10  12
ENDBRANCH   2   4
TORSDOF 16
ENDMDL
MODEL       95
REMARK 921   NORMALIZED FREE ENERGY PREDICTED BY IDOCK:   -5.46 KCAL/MOL
REMARK 922        TOTAL FREE ENERGY PREDICTED BY IDOCK:  -12.64 KCAL/MOL
REMARK 923 INTER-LIGAND FREE ENERGY PREDICTED BY IDOCK:  -10.57 KCAL/MOL
REMARK 924 INTRA-LIGAND FREE ENERGY PREDICTED BY IDOCK:   -2.07 KCAL/MOL
REMARK 927      BINDING AFFINITY PREDICTED BY RF-SCORE:    0.00 PKD
ROOT
HETATM    1  O   UNL     1     -11.310   8.581  69.284  1.00  0.00    -0.413 OA 
HETATM    2  C   UNL     1     -10.351   9.477  68.722  1.00  0.00    -0.208 C  
HETATM    3  H   UNL     1     -11.646   8.913  70.108  1.00  0.00     0.000 HD 
ENDROOT
BRANCH   2   4
HETATM    4  C   UNL     1      -9.820   8.950  67.415  1.00  0.00    -0.247 A  
HETATM    5  C   UNL     1      -9.238   7.684  67.275  1.00  0.00    -0.131 A  
HETATM    6  O   UNL     1      -9.178   6.799  68.315  1.00  0.00    -0.125 OA 
HETATM    7  C   UNL     1      -8.695   7.264  66.064  1.00  0.00    -0.168 A  
HETATM    8  C   UNL     1      -8.730   8.108  64.957  1.00  0.00    -0.004 A  
HETATM    9  H   UNL     1      -8.784   5.940  68.220  1.00  0.00     0.000 HD 
HETATM   10  C   UNL     1      -9.305   9.383  65.054  1.00  0.00    -0.258 A  
HETATM   11  C   UNL     1      -9.832   9.795  66.291  1.00  0.00    -0.315 A  
BRANCH  10  12
HETATM   12  C   UNL     1      -9.273  10.312  63.858  1.00  0.00    -0.274 C  
HETATM   13  O   UNL     1      -9.675   9.609  62.674  1.00  0.00    -0.543 OA 
HETATM   14  H   UNL     1      -9.655  10.192  61.924  1.00  0.00     0.000 HD 
BRANCH  12  15
HETATM   15  C   UNL     1     -10.210  11.516  64.089  1.00  0.00    -0.325 C  
BRANCH  15  16
HETATM   16  N   UNL     1     -11.338  11.506  63.141  1.00  0.00    -0.848 NA 
HETATM   17  H   UNL     1     -11.685  10.562  62.970  1.00  0.00     0.000 HD 
BRANCH  16  18
HETATM   18  C   UNL     1     -12.393  12.399  63.607  1.00  0.00    -0.548 C  
BRANCH  18  19
HETATM   19  C   UNL     1     -12.401  12.452  65.133  1.00  0.00    -0.403 C  
BRANCH  19  20
HETATM   20  C   UNL     1     -12.629  13.887  65.608  1.00  0.00    -0.553 C  
BRANCH  20  21
HETATM   21  C   UNL     1     -12.226  14.053  67.068  1.00  0.00    -0.387 C  
BRANCH  21  22
HETATM   22  C   UNL     1     -11.770  12.726  67.669  1.00  0.00    -0.422 C  
BRANCH  22  23
HETATM   23  C   UNL     1     -11.595  12.852  69.174  1.00  0.00    -0.322 C  
BRANCH  23  24
HETATM   24  O   UNL     1     -12.279  14.018  69.619  1.00  0.00    -0.334 OA 
BRANCH  24  25
HETATM   25  C   UNL     1     -11.601  14.608  70.726  1.00  0.00    -0.236 C  
BRANCH  25  26
HETATM   26  C   UNL     1     -11.386  16.090  70.465  1.00  0.00    -0.401 C  
BRANCH  26  27
HETATM   27  O   UNL     1     -10.302  16.244  69.549  1.00  0.00    -0.266 OA 
BRANCH  27  28
HETATM   28  C   UNL     1     -10.717  16.897  68.358  1.00  0.00    -0.368 C  
BRANCH  28  29
HETATM   29  C   UNL     1      -9.501  17.428  67.650  1.00  0.00    -0.251 A  
HETATM   30  C   UNL     1      -9.204  18.802  67.640  1.00  0.00    -0.285 A  
HETATM   31 CL   UNL     1     -10.240  19.977  68.376  1.00  0.00    -0.553 Cl 
HETATM   32  C   UNL     1      -8.042  19.286  67.023  1.00  0.00    -0.284 A  
HETATM   33  C   UNL     1      -7.170  18.411  66.384  1.00  0.00    -0.276 A  
HETATM   34  C   UNL     1      -7.473  17.054  66.336  1.00  0.00    -0.336 A  
HETATM   35  C   UNL     1      -8.634  16.568  66.953  1.00  0.00    -0.207 A  
HETATM   36 CL   UNL     1      -8.938  14.870  66.810  1.00  0.00    -0.279 Cl 
ENDBRANCH  28  29
ENDBRANCH  27  28
ENDBRANCH  26  27
ENDBRANCH  25  26
ENDBRANCH  24  25
ENDBRANCH  23  24
ENDBRANCH  22  23
ENDBRANCH  21  22
ENDBRANCH  20  21
ENDBRANCH  19  20
ENDBRANCH  18  19
ENDBRANCH  16  18
ENDBRANCH  15  16
ENDBRANCH  12  15
ENDBRANCH  10  12
ENDBRANCH   2   4
TORSDOF 16
ENDMDL
MODEL       96
REMARK 921   NORMALIZED FREE ENERGY PREDICTED BY IDOCK:   -5.45 KCAL/MOL
REMARK 922        TOTAL FREE ENERGY PREDICTED BY IDOCK:  -12.63 KCAL/MOL
REMARK 923 INTER-LIGAND FREE ENERGY PREDICTED BY IDOCK:  -10.11 KCAL/MOL
REMARK 924 INTRA-LIGAND FREE ENERGY PREDICTED BY IDOCK:   -2.52 KCAL/MOL
REMARK 927      BINDING AFFINITY PREDICTED BY RF-SCORE:    0.00 PKD
ROOT
HETATM    1  O   UNL     1     -11.981  14.743  63.959  1.00  0.00    -0.753 OA 
HETATM    2  C   UNL     1     -12.417  13.385  63.903  1.00  0.00    -0.243 C  
HETATM    3  H   UNL     1     -12.565  15.310  63.469  1.00  0.00     0.000 HD 
ENDROOT
BRANCH   2   4
HETATM    4  C   UNL     1     -11.490  12.487  64.681  1.00  0.00    -0.377 A  
HETATM    5  C   UNL     1     -10.851  11.374  64.124  1.00  0.00    -0.365 A  
HETATM    6  O   UNL     1     -10.968  11.062  62.798  1.00  0.00    -0.765 OA 
HETATM    7  C   UNL     1     -10.059  10.529  64.896  1.00  0.00    -0.403 A  
HETATM    8  C   UNL     1      -9.883  10.790  66.253  1.00  0.00    -0.262 A  
HETATM    9  H   UNL     1     -10.535  10.307  62.420  1.00  0.00     0.000 HD 
HETATM   10  C   UNL     1     -10.504  11.896  66.850  1.00  0.00    -0.253 A  
HETATM   11  C   UNL     1     -11.315  12.726  66.055  1.00  0.00    -0.363 A  
BRANCH  10  12
HETATM   12  C   UNL     1     -10.357  12.124  68.340  1.00  0.00    -0.229 C  
HETATM   13  O   UNL     1      -9.170  12.883  68.609  1.00  0.00    -0.377 OA 
HETATM   14  H   UNL     1      -9.078  13.027  69.544  1.00  0.00     0.000 HD 
BRANCH  12  15
HETATM   15  C   UNL     1     -11.588  12.873  68.892  1.00  0.00    -0.315 C  
BRANCH  15  16
HETATM   16  N   UNL     1     -11.880  12.474  70.279  1.00  0.00    -0.538 NA 
HETATM   17  H   UNL     1     -12.751  12.881  70.618  1.00  0.00     0.000 HD 
BRANCH  16  18
HETATM   18  C   UNL     1     -11.876  11.020  70.395  1.00  0.00    -0.367 C  
BRANCH  18  19
HETATM   19  C   UNL     1     -12.679  10.588  71.619  1.00  0.00    -0.550 C  
BRANCH  19  20
HETATM   20  C   UNL     1     -13.755   9.581  71.214  1.00  0.00    -0.235 C  
BRANCH  20  21
HETATM   21  C   UNL     1     -13.674   8.318  72.064  1.00  0.00    -0.381 C  
BRANCH  21  22
HETATM   22  C   UNL     1     -12.960   7.196  71.318  1.00  0.00    -0.378 C  
BRANCH  22  23
HETATM   23  C   UNL     1     -11.911   6.546  72.205  1.00  0.00    -0.305 C  
BRANCH  23  24
HETATM   24  O   UNL     1     -11.167   7.568  72.860  1.00  0.00    -0.344 OA 
BRANCH  24  25
HETATM   25  C   UNL     1     -10.272   7.006  73.816  1.00  0.00    -0.363 C  
BRANCH  25  26
HETATM   26  C   UNL     1      -8.837   7.298  73.409  1.00  0.00    -0.154 C  
BRANCH  26  27
HETATM   27  O   UNL     1      -8.376   6.247  72.560  1.00  0.00    -0.114 OA 
BRANCH  27  28
HETATM   28  C   UNL     1      -7.779   6.761  71.378  1.00  0.00    -0.093 C  
BRANCH  28  29
HETATM   29  C   UNL     1      -8.819   6.803  70.291  1.00  0.00    -0.152 A  
HETATM   30  C   UNL     1      -9.318   5.623  69.711  1.00  0.00    -0.143 A  
HETATM   31 CL   UNL     1      -8.730   4.056  70.153  1.00  0.00    -0.107 Cl 
HETATM   32  C   UNL     1     -10.324   5.666  68.736  1.00  0.00    -0.288 A  
HETATM   33  C   UNL     1     -10.831   6.888  68.306  1.00  0.00    -0.244 A  
HETATM   34  C   UNL     1     -10.313   8.068  68.827  1.00  0.00    -0.223 A  
HETATM   35  C   UNL     1      -9.308   8.028  69.802  1.00  0.00    -0.159 A  
HETATM   36 CL   UNL     1      -8.707   9.551  70.365  1.00  0.00    -0.266 Cl 
ENDBRANCH  28  29
ENDBRANCH  27  28
ENDBRANCH  26  27
ENDBRANCH  25  26
ENDBRANCH  24  25
ENDBRANCH  23  24
ENDBRANCH  22  23
ENDBRANCH  21  22
ENDBRANCH  20  21
ENDBRANCH  19  20
ENDBRANCH  18  19
ENDBRANCH  16  18
ENDBRANCH  15  16
ENDBRANCH  12  15
ENDBRANCH  10  12
ENDBRANCH   2   4
TORSDOF 16
ENDMDL
MODEL       97
REMARK 921   NORMALIZED FREE ENERGY PREDICTED BY IDOCK:   -5.45 KCAL/MOL
REMARK 922        TOTAL FREE ENERGY PREDICTED BY IDOCK:  -12.62 KCAL/MOL
REMARK 923 INTER-LIGAND FREE ENERGY PREDICTED BY IDOCK:  -11.04 KCAL/MOL
REMARK 924 INTRA-LIGAND FREE ENERGY PREDICTED BY IDOCK:   -1.59 KCAL/MOL
REMARK 927      BINDING AFFINITY PREDICTED BY RF-SCORE:    0.00 PKD
ROOT
HETATM    1  O   UNL     1     -12.139   5.663  73.067  1.00  0.00    -0.531 OA 
HETATM    2  C   UNL     1     -10.954   5.477  72.293  1.00  0.00    -0.239 C  
HETATM    3  H   UNL     1     -12.232   4.979  73.720  1.00  0.00     0.000 HD 
ENDROOT
BRANCH   2   4
HETATM    4  C   UNL     1     -10.808   6.561  71.257  1.00  0.00    -0.294 A  
HETATM    5  C   UNL     1     -11.019   7.918  71.530  1.00  0.00    -0.231 A  
HETATM    6  O   UNL     1     -11.304   8.365  72.789  1.00  0.00    -0.346 OA 
HETATM    7  C   UNL     1     -10.944   8.880  70.527  1.00  0.00    -0.280 A  
HETATM    8  C   UNL     1     -10.645   8.500  69.220  1.00  0.00    -0.193 A  
HETATM    9  H   UNL     1     -11.447   9.286  72.974  1.00  0.00     0.000 HD 
HETATM   10  C   UNL     1     -10.425   7.152  68.906  1.00  0.00    -0.218 A  
HETATM   11  C   UNL     1     -10.524   6.193  69.930  1.00  0.00    -0.294 A  
BRANCH  10  12
HETATM   12  C   UNL     1     -10.170   6.750  67.468  1.00  0.00    -0.190 C  
HETATM   13  O   UNL     1     -11.325   7.026  66.664  1.00  0.00    -0.466 OA 
HETATM   14  H   UNL     1     -11.165   6.775  65.762  1.00  0.00     0.000 HD 
BRANCH  12  15
HETATM   15  C   UNL     1      -8.953   7.515  66.906  1.00  0.00    -0.135 C  
BRANCH  15  16
HETATM   16  N   UNL     1      -8.946   7.500  65.433  1.00  0.00    -0.379 NA 
HETATM   17  H   UNL     1      -9.875   7.333  65.048  1.00  0.00     0.000 HD 
BRANCH  16  18
HETATM   18  C   UNL     1      -8.359   8.735  64.922  1.00  0.00    -0.170 C  
BRANCH  18  19
HETATM   19  C   UNL     1      -9.206   9.933  65.342  1.00  0.00    -0.264 C  
BRANCH  19  20
HETATM   20  C   UNL     1      -9.291  10.944  64.198  1.00  0.00    -0.264 C  
BRANCH  20  21
HETATM   21  C   UNL     1     -10.726  11.103  63.711  1.00  0.00    -0.399 C  
BRANCH  21  22
HETATM   22  C   UNL     1     -11.210  12.540  63.881  1.00  0.00    -0.496 C  
BRANCH  22  23
HETATM   23  C   UNL     1     -12.427  12.592  64.789  1.00  0.00    -0.484 C  
BRANCH  23  24
HETATM   24  O   UNL     1     -12.098  11.980  66.032  1.00  0.00    -0.561 OA 
BRANCH  24  25
HETATM   25  C   UNL     1     -11.169  12.782  66.758  1.00  0.00    -0.295 C  
BRANCH  25  26
HETATM   26  C   UNL     1     -11.041  12.258  68.179  1.00  0.00    -0.240 C  
BRANCH  26  27
HETATM   27  O   UNL     1     -10.961  13.367  69.074  1.00  0.00    -0.258 OA 
BRANCH  27  28
HETATM   28  C   UNL     1     -12.245  13.916  69.336  1.00  0.00    -0.292 C  
BRANCH  28  29
HETATM   29  C   UNL     1     -12.228  14.553  70.699  1.00  0.00    -0.401 A  
HETATM   30  C   UNL     1     -11.664  15.824  70.904  1.00  0.00    -0.406 A  
HETATM   31 CL   UNL     1     -10.895  16.710  69.632  1.00  0.00    -0.334 Cl 
HETATM   32  C   UNL     1     -11.697  16.435  72.165  1.00  0.00    -0.453 A  
HETATM   33  C   UNL     1     -12.273  15.777  73.248  1.00  0.00    -0.619 A  
HETATM   34  C   UNL     1     -12.788  14.497  73.078  1.00  0.00    -0.550 A  
HETATM   35  C   UNL     1     -12.756  13.884  71.818  1.00  0.00    -0.304 A  
HETATM   36 CL   UNL     1     -13.394  12.278  71.717  1.00  0.00    -0.452 Cl 
ENDBRANCH  28  29
ENDBRANCH  27  28
ENDBRANCH  26  27
ENDBRANCH  25  26
ENDBRANCH  24  25
ENDBRANCH  23  24
ENDBRANCH  22  23
ENDBRANCH  21  22
ENDBRANCH  20  21
ENDBRANCH  19  20
ENDBRANCH  18  19
ENDBRANCH  16  18
ENDBRANCH  15  16
ENDBRANCH  12  15
ENDBRANCH  10  12
ENDBRANCH   2   4
TORSDOF 16
ENDMDL
MODEL       98
REMARK 921   NORMALIZED FREE ENERGY PREDICTED BY IDOCK:   -5.44 KCAL/MOL
REMARK 922        TOTAL FREE ENERGY PREDICTED BY IDOCK:  -12.60 KCAL/MOL
REMARK 923 INTER-LIGAND FREE ENERGY PREDICTED BY IDOCK:  -10.26 KCAL/MOL
REMARK 924 INTRA-LIGAND FREE ENERGY PREDICTED BY IDOCK:   -2.34 KCAL/MOL
REMARK 927      BINDING AFFINITY PREDICTED BY RF-SCORE:    0.00 PKD
ROOT
HETATM    1  O   UNL     1     -12.467  14.015  63.232  1.00  0.00    -1.139 OA 
HETATM    2  C   UNL     1     -11.855  14.285  64.494  1.00  0.00    -0.442 C  
HETATM    3  H   UNL     1     -12.805  14.811  62.840  1.00  0.00     0.000 HD 
ENDROOT
BRANCH   2   4
HETATM    4  C   UNL     1     -11.319  13.021  65.116  1.00  0.00    -0.320 A  
HETATM    5  C   UNL     1     -10.710  12.000  64.378  1.00  0.00    -0.323 A  
HETATM    6  O   UNL     1     -10.492  12.112  63.033  1.00  0.00    -0.582 OA 
HETATM    7  C   UNL     1     -10.293  10.817  64.982  1.00  0.00    -0.357 A  
HETATM    8  C   UNL     1     -10.471  10.636  66.352  1.00  0.00    -0.276 A  
HETATM    9  H   UNL     1     -10.078  11.419  62.533  1.00  0.00     0.000 HD 
HETATM   10  C   UNL     1     -11.076  11.636  67.127  1.00  0.00    -0.354 A  
HETATM   11  C   UNL     1     -11.506  12.815  66.494  1.00  0.00    -0.409 A  
BRANCH  10  12
HETATM   12  C   UNL     1     -11.323  11.393  68.601  1.00  0.00    -0.265 C  
HETATM   13  O   UNL     1     -12.656  10.904  68.805  1.00  0.00    -0.699 OA 
HETATM   14  H   UNL     1     -12.812  10.751  69.730  1.00  0.00     0.000 HD 
BRANCH  12  15
HETATM   15  C   UNL     1     -10.307  10.372  69.155  1.00  0.00    -0.222 C  
BRANCH  15  16
HETATM   16  N   UNL     1     -10.930   9.054  69.361  1.00  0.00    -0.408 NA 
HETATM   17  H   UNL     1     -11.616   8.838  68.638  1.00  0.00     0.000 HD 
BRANCH  16  18
HETATM   18  C   UNL     1      -9.902   8.023  69.463  1.00  0.00    -0.181 C  
BRANCH  18  19
HETATM   19  C   UNL     1      -9.332   7.712  68.082  1.00  0.00    -0.146 C  
BRANCH  19  20
HETATM   20  C   UNL     1      -7.809   7.846  68.100  1.00  0.00    -0.127 C  
BRANCH  20  21
HETATM   21  C   UNL     1      -7.339   8.904  67.108  1.00  0.00    -0.084 C  
BRANCH  21  22
HETATM   22  C   UNL     1      -6.899  10.176  67.826  1.00  0.00    -0.075 C  
BRANCH  22  23
HETATM   23  C   UNL     1      -6.877  11.354  66.865  1.00  0.00    -0.142 C  
BRANCH  23  24
HETATM   24  O   UNL     1      -7.706  12.387  67.386  1.00  0.00    -0.152 OA 
BRANCH  24  25
HETATM   25  C   UNL     1      -6.964  13.595  67.547  1.00  0.00    -0.143 C  
BRANCH  25  26
HETATM   26  C   UNL     1      -7.803  14.615  68.299  1.00  0.00    -0.128 C  
BRANCH  26  27
HETATM   27  O   UNL     1      -7.429  15.924  67.871  1.00  0.00    -0.121 OA 
BRANCH  27  28
HETATM   28  C   UNL     1      -7.973  16.227  66.594  1.00  0.00    -0.289 C  
BRANCH  28  29
HETATM   29  C   UNL     1      -8.643  17.572  66.662  1.00  0.00    -0.284 A  
HETATM   30  C   UNL     1      -7.955  18.750  66.322  1.00  0.00    -0.264 A  
HETATM   31 CL   UNL     1      -6.284  18.745  65.871  1.00  0.00    -0.229 Cl 
HETATM   32  C   UNL     1      -8.599  19.994  66.338  1.00  0.00    -0.350 A  
HETATM   33  C   UNL     1      -9.934  20.088  66.716  1.00  0.00    -0.585 A  
HETATM   34  C   UNL     1     -10.619  18.942  67.107  1.00  0.00    -0.531 A  
HETATM   35  C   UNL     1      -9.977  17.697  67.093  1.00  0.00    -0.316 A  
HETATM   36 CL   UNL     1     -10.904  16.337  67.628  1.00  0.00    -0.319 Cl 
ENDBRANCH  28  29
ENDBRANCH  27  28
ENDBRANCH  26  27
ENDBRANCH  25  26
ENDBRANCH  24  25
ENDBRANCH  23  24
ENDBRANCH  22  23
ENDBRANCH  21  22
ENDBRANCH  20  21
ENDBRANCH  19  20
ENDBRANCH  18  19
ENDBRANCH  16  18
ENDBRANCH  15  16
ENDBRANCH  12  15
ENDBRANCH  10  12
ENDBRANCH   2   4
TORSDOF 16
ENDMDL
MODEL       99
REMARK 921   NORMALIZED FREE ENERGY PREDICTED BY IDOCK:   -5.42 KCAL/MOL
REMARK 922        TOTAL FREE ENERGY PREDICTED BY IDOCK:  -12.57 KCAL/MOL
REMARK 923 INTER-LIGAND FREE ENERGY PREDICTED BY IDOCK:  -10.64 KCAL/MOL
REMARK 924 INTRA-LIGAND FREE ENERGY PREDICTED BY IDOCK:   -1.93 KCAL/MOL
REMARK 927      BINDING AFFINITY PREDICTED BY RF-SCORE:    0.00 PKD
ROOT
HETATM    1  O   UNL     1      -8.352  10.647  67.821  1.00  0.00    -0.114 OA 
HETATM    2  C   UNL     1      -8.155  11.828  67.042  1.00  0.00    -0.169 C  
HETATM    3  H   UNL     1      -7.645  10.527  68.443  1.00  0.00     0.000 HD 
ENDROOT
BRANCH   2   4
HETATM    4  C   UNL     1      -9.277  12.018  66.054  1.00  0.00    -0.152 A  
HETATM    5  C   UNL     1      -9.863  10.964  65.343  1.00  0.00    -0.255 A  
HETATM    6  O   UNL     1      -9.501   9.663  65.553  1.00  0.00    -0.227 OA 
HETATM    7  C   UNL     1     -10.848  11.192  64.387  1.00  0.00    -0.340 A  
HETATM    8  C   UNL     1     -11.277  12.492  64.128  1.00  0.00    -0.437 A  
HETATM    9  H   UNL     1      -9.898   8.948  65.071  1.00  0.00     0.000 HD 
HETATM   10  C   UNL     1     -10.717  13.576  64.820  1.00  0.00    -0.412 A  
HETATM   11  C   UNL     1      -9.710  13.324  65.768  1.00  0.00    -0.149 A  
BRANCH  10  12
HETATM   12  C   UNL     1     -11.146  14.986  64.475  1.00  0.00    -0.234 C  
HETATM   13  O   UNL     1     -12.507  14.993  64.020  1.00  0.00    -0.931 OA 
HETATM   14  H   UNL     1     -12.776  15.878  63.805  1.00  0.00     0.000 HD 
BRANCH  12  15
HETATM   15  C   UNL     1     -11.008  15.905  65.707  1.00  0.00    -0.177 C  
BRANCH  15  16
HETATM   16  N   UNL     1      -9.950  16.911  65.509  1.00  0.00    -0.584 NA 
HETATM   17  H   UNL     1      -9.606  16.918  64.549  1.00  0.00     0.000 HD 
BRANCH  16  18
HETATM   18  C   UNL     1     -10.423  18.226  65.929  1.00  0.00    -0.307 C  
BRANCH  18  19
HETATM   19  C   UNL     1     -10.680  18.236  67.433  1.00  0.00    -0.377 C  
BRANCH  19  20
HETATM   20  C   UNL     1      -9.714  19.198  68.125  1.00  0.00    -0.429 C  
BRANCH  20  21
HETATM   21  C   UNL     1      -8.349  19.188  67.449  1.00  0.00    -0.307 C  
BRANCH  21  22
HETATM   22  C   UNL     1      -7.276  18.634  68.381  1.00  0.00    -0.300 C  
BRANCH  22  23
HETATM   23  C   UNL     1      -7.200  17.119  68.271  1.00  0.00    -0.204 C  
BRANCH  23  24
HETATM   24  O   UNL     1      -7.755  16.546  69.450  1.00  0.00    -0.209 OA 
BRANCH  24  25
HETATM   25  C   UNL     1      -8.028  15.160  69.255  1.00  0.00    -0.213 C  
BRANCH  25  26
HETATM   26  C   UNL     1      -9.443  14.985  68.729  1.00  0.00    -0.210 C  
BRANCH  26  27
HETATM   27  O   UNL     1     -10.361  15.161  69.809  1.00  0.00    -0.245 OA 
BRANCH  27  28
HETATM   28  C   UNL     1     -11.691  14.855  69.413  1.00  0.00    -0.319 C  
BRANCH  28  29
HETATM   29  C   UNL     1     -12.247  13.819  70.351  1.00  0.00    -0.433 A  
HETATM   30  C   UNL     1     -12.039  12.446  70.130  1.00  0.00    -0.290 A  
HETATM   31 CL   UNL     1     -11.195  11.852  68.742  1.00  0.00    -0.284 Cl 
HETATM   32  C   UNL     1     -12.516  11.488  71.035  1.00  0.00    -0.458 A  
HETATM   33  C   UNL     1     -13.229  11.882  72.163  1.00  0.00    -0.366 A  
HETATM   34  C   UNL     1     -13.492  13.231  72.372  1.00  0.00    -0.670 A  
HETATM   35  C   UNL     1     -13.016  14.191  71.469  1.00  0.00    -0.344 A  
HETATM   36 CL   UNL     1     -13.424  15.840  71.800  1.00  0.00    -0.495 Cl 
ENDBRANCH  28  29
ENDBRANCH  27  28
ENDBRANCH  26  27
ENDBRANCH  25  26
ENDBRANCH  24  25
ENDBRANCH  23  24
ENDBRANCH  22  23
ENDBRANCH  21  22
ENDBRANCH  20  21
ENDBRANCH  19  20
ENDBRANCH  18  19
ENDBRANCH  16  18
ENDBRANCH  15  16
ENDBRANCH  12  15
ENDBRANCH  10  12
ENDBRANCH   2   4
TORSDOF 16
ENDMDL
MODEL      100
REMARK 921   NORMALIZED FREE ENERGY PREDICTED BY IDOCK:   -5.42 KCAL/MOL
REMARK 922        TOTAL FREE ENERGY PREDICTED BY IDOCK:  -12.57 KCAL/MOL
REMARK 923 INTER-LIGAND FREE ENERGY PREDICTED BY IDOCK:   -9.80 KCAL/MOL
REMARK 924 INTRA-LIGAND FREE ENERGY PREDICTED BY IDOCK:   -2.77 KCAL/MOL
REMARK 927      BINDING AFFINITY PREDICTED BY RF-SCORE:    0.00 PKD
ROOT
HETATM    1  O   UNL     1     -11.235   5.166  65.880  1.00  0.00    -0.794 OA 
HETATM    2  C   UNL     1     -10.905   6.284  66.705  1.00  0.00    -0.296 C  
HETATM    3  H   UNL     1     -11.404   5.440  64.986  1.00  0.00     0.000 HD 
ENDROOT
BRANCH   2   4
HETATM    4  C   UNL     1     -10.637   5.849  68.122  1.00  0.00    -0.312 A  
HETATM    5  C   UNL     1      -9.717   4.850  68.460  1.00  0.00    -0.155 A  
HETATM    6  O   UNL     1      -8.933   4.243  67.518  1.00  0.00    -0.107 OA 
HETATM    7  C   UNL     1      -9.552   4.429  69.776  1.00  0.00    -0.276 A  
HETATM    8  C   UNL     1     -10.308   5.011  70.791  1.00  0.00    -0.265 A  
HETATM    9  H   UNL     1      -8.308   3.566  67.747  1.00  0.00     0.000 HD 
HETATM   10  C   UNL     1     -11.239   6.015  70.496  1.00  0.00    -0.363 A  
HETATM   11  C   UNL     1     -11.403   6.414  69.158  1.00  0.00    -0.366 A  
BRANCH  10  12
HETATM   12  C   UNL     1     -12.100   6.587  71.604  1.00  0.00    -0.328 C  
HETATM   13  O   UNL     1     -12.096   5.708  72.737  1.00  0.00    -0.532 OA 
HETATM   14  H   UNL     1     -12.636   6.067  73.432  1.00  0.00     0.000 HD 
BRANCH  12  15
HETATM   15  C   UNL     1     -11.579   7.977  72.025  1.00  0.00    -0.316 C  
BRANCH  15  16
HETATM   16  N   UNL     1     -10.385   7.865  72.879  1.00  0.00    -0.325 NA 
HETATM   17  H   UNL     1     -10.117   6.894  73.036  1.00  0.00     0.000 HD 
BRANCH  16  18
HETATM   18  C   UNL     1      -9.289   8.648  72.316  1.00  0.00    -0.252 C  
BRANCH  18  19
HETATM   19  C   UNL     1      -8.106   7.739  71.993  1.00  0.00    -0.126 C  
BRANCH  19  20
HETATM   20  C   UNL     1      -7.847   7.728  70.486  1.00  0.00    -0.096 C  
BRANCH  20  21
HETATM   21  C   UNL     1      -8.595   8.861  69.792  1.00  0.00    -0.134 C  
BRANCH  21  22
HETATM   22  C   UNL     1      -8.404   8.801  68.279  1.00  0.00    -0.126 C  
BRANCH  22  23
HETATM   23  C   UNL     1      -9.369   9.746  67.581  1.00  0.00    -0.140 C  
BRANCH  23  24
HETATM   24  O   UNL     1     -10.645   9.640  68.202  1.00  0.00    -0.211 OA 
BRANCH  24  25
HETATM   25  C   UNL     1     -11.383  10.851  68.049  1.00  0.00    -0.312 C  
BRANCH  25  26
HETATM   26  C   UNL     1     -10.426  12.030  68.002  1.00  0.00    -0.207 C  
BRANCH  26  27
HETATM   27  O   UNL     1     -10.689  12.882  69.117  1.00  0.00    -0.151 OA 
BRANCH  27  28
HETATM   28  C   UNL     1     -12.078  12.938  69.409  1.00  0.00    -0.198 C  
BRANCH  28  29
HETATM   29  C   UNL     1     -12.290  13.874  70.568  1.00  0.00    -0.439 A  
HETATM   30  C   UNL     1     -12.905  13.439  71.755  1.00  0.00    -0.289 A  
HETATM   31 CL   UNL     1     -13.518  11.832  71.943  1.00  0.00    -0.397 Cl 
HETATM   32  C   UNL     1     -13.053  14.301  72.850  1.00  0.00    -0.589 A  
HETATM   33  C   UNL     1     -12.612  15.618  72.771  1.00  0.00    -0.536 A  
HETATM   34  C   UNL     1     -12.049  16.083  71.587  1.00  0.00    -0.537 A  
HETATM   35  C   UNL     1     -11.900  15.223  70.491  1.00  0.00    -0.324 A  
HETATM   36 CL   UNL     1     -11.219  15.906  69.054  1.00  0.00    -0.304 Cl 
ENDBRANCH  28  29
ENDBRANCH  27  28
ENDBRANCH  26  27
ENDBRANCH  25  26
ENDBRANCH  24  25
ENDBRANCH  23  24
ENDBRANCH  22  23
ENDBRANCH  21  22
ENDBRANCH  20  21
ENDBRANCH  19  20
ENDBRANCH  18  19
ENDBRANCH  16  18
ENDBRANCH  15  16
ENDBRANCH  12  15
ENDBRANCH  10  12
ENDBRANCH   2   4
TORSDOF 16
ENDMDL
MODEL      101
REMARK 921   NORMALIZED FREE ENERGY PREDICTED BY IDOCK:   -5.42 KCAL/MOL
REMARK 922        TOTAL FREE ENERGY PREDICTED BY IDOCK:  -12.56 KCAL/MOL
REMARK 923 INTER-LIGAND FREE ENERGY PREDICTED BY IDOCK:  -10.05 KCAL/MOL
REMARK 924 INTRA-LIGAND FREE ENERGY PREDICTED BY IDOCK:   -2.52 KCAL/MOL
REMARK 927      BINDING AFFINITY PREDICTED BY RF-SCORE:    0.00 PKD
ROOT
HETATM    1  O   UNL     1      -7.142  15.621  66.355  1.00  0.00    -0.096 OA 
HETATM    2  C   UNL     1      -8.422  16.236  66.506  1.00  0.00    -0.303 C  
HETATM    3  H   UNL     1      -6.468  16.271  66.197  1.00  0.00     0.000 HD 
ENDROOT
BRANCH   2   4
HETATM    4  C   UNL     1      -9.492  15.205  66.755  1.00  0.00    -0.260 A  
HETATM    5  C   UNL     1      -9.501  14.362  67.872  1.00  0.00    -0.214 A  
HETATM    6  O   UNL     1      -8.567  14.467  68.864  1.00  0.00    -0.262 OA 
HETATM    7  C   UNL     1     -10.469  13.373  68.027  1.00  0.00    -0.243 A  
HETATM    8  C   UNL     1     -11.461  13.215  67.062  1.00  0.00    -0.379 A  
HETATM    9  H   UNL     1      -8.573  13.894  69.622  1.00  0.00     0.000 HD 
HETATM   10  C   UNL     1     -11.489  14.040  65.930  1.00  0.00    -0.330 A  
HETATM   11  C   UNL     1     -10.491  15.020  65.783  1.00  0.00    -0.353 A  
BRANCH  10  12
HETATM   12  C   UNL     1     -12.533  13.808  64.859  1.00  0.00    -0.386 C  
HETATM   13  O   UNL     1     -12.449  14.829  63.855  1.00  0.00    -0.997 OA 
HETATM   14  H   UNL     1     -13.105  14.683  63.183  1.00  0.00     0.000 HD 
BRANCH  12  15
HETATM   15  C   UNL     1     -12.334  12.423  64.207  1.00  0.00    -0.455 C  
BRANCH  15  16
HETATM   16  N   UNL     1     -11.356  12.485  63.108  1.00  0.00    -0.747 NA 
HETATM   17  H   UNL     1     -11.160  13.445  62.824  1.00  0.00     0.000 HD 
BRANCH  16  18
HETATM   18  C   UNL     1     -10.140  11.767  63.477  1.00  0.00    -0.438 C  
BRANCH  18  19
HETATM   19  C   UNL     1     -10.463  10.673  64.490  1.00  0.00    -0.266 C  
BRANCH  19  20
HETATM   20  C   UNL     1      -9.305  10.508  65.475  1.00  0.00    -0.245 C  
BRANCH  20  21
HETATM   21  C   UNL     1      -9.165   9.058  65.922  1.00  0.00    -0.290 C  
BRANCH  21  22
HETATM   22  C   UNL     1     -10.262   8.678  66.912  1.00  0.00    -0.367 C  
BRANCH  22  23
HETATM   23  C   UNL     1     -10.595   7.199  66.800  1.00  0.00    -0.221 C  
BRANCH  23  24
HETATM   24  O   UNL     1     -10.479   6.604  68.088  1.00  0.00    -0.176 OA 
BRANCH  24  25
HETATM   25  C   UNL     1      -9.443   5.624  68.100  1.00  0.00    -0.110 C  
BRANCH  25  26
HETATM   26  C   UNL     1      -8.598   5.786  69.353  1.00  0.00    -0.111 C  
BRANCH  26  27
HETATM   27  O   UNL     1      -8.551   7.170  69.701  1.00  0.00    -0.135 OA 
BRANCH  27  28
HETATM   28  C   UNL     1      -8.970   7.381  71.042  1.00  0.00    -0.151 C  
BRANCH  28  29
HETATM   29  C   UNL     1     -10.161   8.299  71.036  1.00  0.00    -0.230 A  
HETATM   30  C   UNL     1     -10.093   9.582  70.464  1.00  0.00    -0.285 A  
HETATM   31 CL   UNL     1      -8.630  10.217  69.792  1.00  0.00    -0.184 Cl 
HETATM   32  C   UNL     1     -11.221  10.413  70.415  1.00  0.00    -0.399 A  
HETATM   33  C   UNL     1     -12.429   9.988  70.958  1.00  0.00    -0.460 A  
HETATM   34  C   UNL     1     -12.504   8.745  71.577  1.00  0.00    -0.374 A  
HETATM   35  C   UNL     1     -11.378   7.912  71.626  1.00  0.00    -0.258 A  
HETATM   36 CL   UNL     1     -11.565   6.399  72.446  1.00  0.00    -0.321 Cl 
ENDBRANCH  28  29
ENDBRANCH  27  28
ENDBRANCH  26  27
ENDBRANCH  25  26
ENDBRANCH  24  25
ENDBRANCH  23  24
ENDBRANCH  22  23
ENDBRANCH  21  22
ENDBRANCH  20  21
ENDBRANCH  19  20
ENDBRANCH  18  19
ENDBRANCH  16  18
ENDBRANCH  15  16
ENDBRANCH  12  15
ENDBRANCH  10  12
ENDBRANCH   2   4
TORSDOF 16
ENDMDL
MODEL      102
REMARK 921   NORMALIZED FREE ENERGY PREDICTED BY IDOCK:   -5.41 KCAL/MOL
REMARK 922        TOTAL FREE ENERGY PREDICTED BY IDOCK:  -12.55 KCAL/MOL
REMARK 923 INTER-LIGAND FREE ENERGY PREDICTED BY IDOCK:   -9.77 KCAL/MOL
REMARK 924 INTRA-LIGAND FREE ENERGY PREDICTED BY IDOCK:   -2.78 KCAL/MOL
REMARK 927      BINDING AFFINITY PREDICTED BY RF-SCORE:    0.00 PKD
ROOT
HETATM    1  O   UNL     1     -12.300  10.562  68.544  1.00  0.00    -0.765 OA 
HETATM    2  C   UNL     1     -11.584  10.928  69.724  1.00  0.00    -0.322 C  
HETATM    3  H   UNL     1     -12.288  11.264  67.905  1.00  0.00     0.000 HD 
ENDROOT
BRANCH   2   4
HETATM    4  C   UNL     1     -11.604   9.812  70.736  1.00  0.00    -0.417 A  
HETATM    5  C   UNL     1     -12.782   9.221  71.206  1.00  0.00    -0.299 A  
HETATM    6  O   UNL     1     -14.009   9.570  70.716  1.00  0.00    -0.495 OA 
HETATM    7  C   UNL     1     -12.759   8.242  72.195  1.00  0.00    -0.366 A  
HETATM    8  C   UNL     1     -11.543   7.827  72.733  1.00  0.00    -0.368 A  
HETATM    9  H   UNL     1     -14.809   9.169  71.035  1.00  0.00     0.000 HD 
HETATM   10  C   UNL     1     -10.339   8.393  72.290  1.00  0.00    -0.403 A  
HETATM   11  C   UNL     1     -10.386   9.393  71.302  1.00  0.00    -0.363 A  
BRANCH  10  12
HETATM   12  C   UNL     1      -9.034   7.978  72.935  1.00  0.00    -0.239 C  
HETATM   13  O   UNL     1      -9.283   7.363  74.206  1.00  0.00    -0.352 OA 
HETATM   14  H   UNL     1      -8.464   7.102  74.611  1.00  0.00     0.000 HD 
BRANCH  12  15
HETATM   15  C   UNL     1      -8.274   6.992  72.023  1.00  0.00    -0.101 C  
BRANCH  15  16
HETATM   16  N   UNL     1      -9.028   5.739  71.844  1.00  0.00    -0.139 NA 
HETATM   17  H   UNL     1      -9.912   5.749  72.353  1.00  0.00     0.000 HD 
BRANCH  16  18
HETATM   18  C   UNL     1      -9.221   5.468  70.423  1.00  0.00    -0.151 C  
BRANCH  18  19
HETATM   19  C   UNL     1     -10.689   5.651  70.048  1.00  0.00    -0.390 C  
BRANCH  19  20
HETATM   20  C   UNL     1     -10.817   6.642  68.891  1.00  0.00    -0.326 C  
BRANCH  20  21
HETATM   21  C   UNL     1      -9.485   6.825  68.174  1.00  0.00    -0.120 C  
BRANCH  21  22
HETATM   22  C   UNL     1      -9.170   8.303  67.966  1.00  0.00    -0.142 C  
BRANCH  22  23
HETATM   23  C   UNL     1      -7.798   8.642  68.526  1.00  0.00    -0.108 C  
BRANCH  23  24
HETATM   24  O   UNL     1      -7.328   9.831  67.900  1.00  0.00    -0.084 OA 
BRANCH  24  25
HETATM   25  C   UNL     1      -7.873  10.985  68.536  1.00  0.00    -0.129 C  
BRANCH  25  26
HETATM   26  C   UNL     1      -7.449  12.234  67.782  1.00  0.00    -0.126 C  
BRANCH  26  27
HETATM   27  O   UNL     1      -8.413  12.509  66.765  1.00  0.00    -0.163 OA 
BRANCH  27  28
HETATM   28  C   UNL     1      -9.697  12.019  67.124  1.00  0.00    -0.197 C  
BRANCH  28  29
HETATM   29  C   UNL     1     -10.615  12.159  65.940  1.00  0.00    -0.293 A  
HETATM   30  C   UNL     1     -11.689  13.066  65.951  1.00  0.00    -0.394 A  
HETATM   31 CL   UNL     1     -12.070  14.029  67.338  1.00  0.00    -0.428 Cl 
HETATM   32  C   UNL     1     -12.509  13.229  64.826  1.00  0.00    -0.439 A  
HETATM   33  C   UNL     1     -12.287  12.473  63.680  1.00  0.00    -0.618 A  
HETATM   34  C   UNL     1     -11.263  11.531  63.668  1.00  0.00    -0.451 A  
HETATM   35  C   UNL     1     -10.442  11.366  64.790  1.00  0.00    -0.308 A  
HETATM   36 CL   UNL     1      -9.218  10.147  64.687  1.00  0.00    -0.270 Cl 
ENDBRANCH  28  29
ENDBRANCH  27  28
ENDBRANCH  26  27
ENDBRANCH  25  26
ENDBRANCH  24  25
ENDBRANCH  23  24
ENDBRANCH  22  23
ENDBRANCH  21  22
ENDBRANCH  20  21
ENDBRANCH  19  20
ENDBRANCH  18  19
ENDBRANCH  16  18
ENDBRANCH  15  16
ENDBRANCH  12  15
ENDBRANCH  10  12
ENDBRANCH   2   4
TORSDOF 16
ENDMDL
MODEL      103
REMARK 921   NORMALIZED FREE ENERGY PREDICTED BY IDOCK:   -5.41 KCAL/MOL
REMARK 922        TOTAL FREE ENERGY PREDICTED BY IDOCK:  -12.54 KCAL/MOL
REMARK 923 INTER-LIGAND FREE ENERGY PREDICTED BY IDOCK:   -9.48 KCAL/MOL
REMARK 924 INTRA-LIGAND FREE ENERGY PREDICTED BY IDOCK:   -3.06 KCAL/MOL
REMARK 927      BINDING AFFINITY PREDICTED BY RF-SCORE:    0.00 PKD
ROOT
HETATM    1  O   UNL     1     -11.659   6.650  67.642  1.00  0.00    -0.664 OA 
HETATM    2  C   UNL     1     -10.878   5.970  68.625  1.00  0.00    -0.307 C  
HETATM    3  H   UNL     1     -11.889   6.068  66.927  1.00  0.00     0.000 HD 
ENDROOT
BRANCH   2   4
HETATM    4  C   UNL     1     -10.514   6.893  69.759  1.00  0.00    -0.240 A  
HETATM    5  C   UNL     1     -11.448   7.395  70.673  1.00  0.00    -0.282 A  
HETATM    6  O   UNL     1     -12.762   7.019  70.642  1.00  0.00    -0.600 OA 
HETATM    7  C   UNL     1     -11.081   8.303  71.662  1.00  0.00    -0.326 A  
HETATM    8  C   UNL     1      -9.757   8.723  71.763  1.00  0.00    -0.380 A  
HETATM    9  H   UNL     1     -13.396   7.359  71.261  1.00  0.00     0.000 HD 
HETATM   10  C   UNL     1      -8.790   8.243  70.868  1.00  0.00    -0.171 A  
HETATM   11  C   UNL     1      -9.185   7.341  69.865  1.00  0.00    -0.141 A  
BRANCH  10  12
HETATM   12  C   UNL     1      -7.370   8.764  70.950  1.00  0.00    -0.087 C  
HETATM   13  O   UNL     1      -7.051   9.120  72.302  1.00  0.00    -0.322 OA 
HETATM   14  H   UNL     1      -6.160   9.447  72.354  1.00  0.00     0.000 HD 
BRANCH  12  15
HETATM   15  C   UNL     1      -6.377   7.696  70.448  1.00  0.00    -0.038 C  
BRANCH  15  16
HETATM   16  N   UNL     1      -5.756   8.098  69.175  1.00  0.00    -0.034 NA 
HETATM   17  H   UNL     1      -5.897   7.401  68.444  1.00  0.00     0.000 HD 
BRANCH  16  18
HETATM   18  C   UNL     1      -6.241   9.415  68.773  1.00  0.00    -0.044 C  
BRANCH  18  19
HETATM   19  C   UNL     1      -6.831   9.351  67.367  1.00  0.00    -0.080 C  
BRANCH  19  20
HETATM   20  C   UNL     1      -8.298   9.778  67.392  1.00  0.00    -0.114 C  
BRANCH  20  21
HETATM   21  C   UNL     1      -9.128   8.954  66.415  1.00  0.00    -0.217 C  
BRANCH  21  22
HETATM   22  C   UNL     1      -9.984   9.850  65.525  1.00  0.00    -0.363 C  
BRANCH  22  23
HETATM   23  C   UNL     1      -9.517  11.294  65.612  1.00  0.00    -0.229 C  
BRANCH  23  24
HETATM   24  O   UNL     1     -10.642  12.150  65.450  1.00  0.00    -0.255 OA 
BRANCH  24  25
HETATM   25  C   UNL     1     -10.549  13.275  66.320  1.00  0.00    -0.289 C  
BRANCH  25  26
HETATM   26  C   UNL     1     -11.933  13.860  66.552  1.00  0.00    -0.439 C  
BRANCH  26  27
HETATM   27  O   UNL     1     -11.977  14.434  67.859  1.00  0.00    -0.353 OA 
BRANCH  27  28
HETATM   28  C   UNL     1     -11.069  13.789  68.739  1.00  0.00    -0.266 C  
BRANCH  28  29
HETATM   29  C   UNL     1     -11.842  13.220  69.898  1.00  0.00    -0.380 A  
HETATM   30  C   UNL     1     -12.382  14.050  70.895  1.00  0.00    -0.372 A  
HETATM   31 CL   UNL     1     -12.142  15.764  70.899  1.00  0.00    -0.432 Cl 
HETATM   32  C   UNL     1     -13.145  13.519  71.944  1.00  0.00    -0.475 A  
HETATM   33  C   UNL     1     -13.362  12.148  72.028  1.00  0.00    -0.470 A  
HETATM   34  C   UNL     1     -12.791  11.303  71.082  1.00  0.00    -0.452 A  
HETATM   35  C   UNL     1     -12.028  11.832  70.033  1.00  0.00    -0.344 A  
HETATM   36 CL   UNL     1     -11.335  10.696  68.926  1.00  0.00    -0.318 Cl 
ENDBRANCH  28  29
ENDBRANCH  27  28
ENDBRANCH  26  27
ENDBRANCH  25  26
ENDBRANCH  24  25
ENDBRANCH  23  24
ENDBRANCH  22  23
ENDBRANCH  21  22
ENDBRANCH  20  21
ENDBRANCH  19  20
ENDBRANCH  18  19
ENDBRANCH  16  18
ENDBRANCH  15  16
ENDBRANCH  12  15
ENDBRANCH  10  12
ENDBRANCH   2   4
TORSDOF 16
ENDMDL
MODEL      104
REMARK 921   NORMALIZED FREE ENERGY PREDICTED BY IDOCK:   -5.40 KCAL/MOL
REMARK 922        TOTAL FREE ENERGY PREDICTED BY IDOCK:  -12.53 KCAL/MOL
REMARK 923 INTER-LIGAND FREE ENERGY PREDICTED BY IDOCK:   -9.94 KCAL/MOL
REMARK 924 INTRA-LIGAND FREE ENERGY PREDICTED BY IDOCK:   -2.58 KCAL/MOL
REMARK 927      BINDING AFFINITY PREDICTED BY RF-SCORE:    0.00 PKD
ROOT
HETATM    1  O   UNL     1     -11.281   5.379  66.170  1.00  0.00    -0.761 OA 
HETATM    2  C   UNL     1     -11.111   6.453  67.096  1.00  0.00    -0.341 C  
HETATM    3  H   UNL     1     -11.511   5.705  65.308  1.00  0.00     0.000 HD 
ENDROOT
BRANCH   2   4
HETATM    4  C   UNL     1     -10.746   5.935  68.463  1.00  0.00    -0.327 A  
HETATM    5  C   UNL     1      -9.814   4.913  68.675  1.00  0.00    -0.152 A  
HETATM    6  O   UNL     1      -9.106   4.357  67.646  1.00  0.00    -0.113 OA 
HETATM    7  C   UNL     1      -9.560   4.415  69.950  1.00  0.00    -0.275 A  
HETATM    8  C   UNL     1     -10.235   4.942  71.049  1.00  0.00    -0.262 A  
HETATM    9  H   UNL     1      -8.473   3.664  67.790  1.00  0.00     0.000 HD 
HETATM   10  C   UNL     1     -11.176   5.967  70.879  1.00  0.00    -0.335 A  
HETATM   11  C   UNL     1     -11.431   6.443  69.581  1.00  0.00    -0.446 A  
BRANCH  10  12
HETATM   12  C   UNL     1     -11.949   6.479  72.077  1.00  0.00    -0.326 C  
HETATM   13  O   UNL     1     -12.196   5.410  73.000  1.00  0.00    -0.533 OA 
HETATM   14  H   UNL     1     -12.681   5.731  73.752  1.00  0.00     0.000 HD 
BRANCH  12  15
HETATM   15  C   UNL     1     -11.162   7.603  72.783  1.00  0.00    -0.377 C  
BRANCH  15  16
HETATM   16  N   UNL     1     -10.383   7.079  73.918  1.00  0.00    -0.372 NA 
HETATM   17  H   UNL     1     -10.403   6.060  73.957  1.00  0.00     0.000 HD 
BRANCH  16  18
HETATM   18  C   UNL     1      -9.018   7.594  73.870  1.00  0.00    -0.267 C  
BRANCH  18  19
HETATM   19  C   UNL     1      -8.029   6.447  73.688  1.00  0.00    -0.098 C  
BRANCH  19  20
HETATM   20  C   UNL     1      -7.269   6.611  72.372  1.00  0.00    -0.087 C  
BRANCH  20  21
HETATM   21  C   UNL     1      -7.535   7.977  71.751  1.00  0.00    -0.088 C  
BRANCH  21  22
HETATM   22  C   UNL     1      -7.656   7.878  70.233  1.00  0.00    -0.086 C  
BRANCH  22  23
HETATM   23  C   UNL     1      -8.311   9.127  69.666  1.00  0.00    -0.130 C  
BRANCH  23  24
HETATM   24  O   UNL     1      -9.588   9.290  70.272  1.00  0.00    -0.200 OA 
BRANCH  24  25
HETATM   25  C   UNL     1     -10.305  10.358  69.656  1.00  0.00    -0.226 C  
BRANCH  25  26
HETATM   26  C   UNL     1     -11.076   9.833  68.456  1.00  0.00    -0.087 C  
BRANCH  26  27
HETATM   27  O   UNL     1     -11.676  10.935  67.776  1.00  0.00    -0.569 OA 
BRANCH  27  28
HETATM   28  C   UNL     1     -10.694  11.818  67.253  1.00  0.00    -0.237 C  
BRANCH  28  29
HETATM   29  C   UNL     1     -11.144  12.294  65.898  1.00  0.00    -0.360 A  
HETATM   30  C   UNL     1     -10.881  11.547  64.737  1.00  0.00    -0.297 A  
HETATM   31 CL   UNL     1      -9.970  10.076  64.771  1.00  0.00    -0.348 Cl 
HETATM   32  C   UNL     1     -11.348  11.969  63.484  1.00  0.00    -0.528 A  
HETATM   33  C   UNL     1     -12.065  13.155  63.367  1.00  0.00    -0.558 A  
HETATM   34  C   UNL     1     -12.290  13.936  64.496  1.00  0.00    -0.408 A  
HETATM   35  C   UNL     1     -11.824  13.516  65.749  1.00  0.00    -0.372 A  
HETATM   36 CL   UNL     1     -12.127  14.573  67.086  1.00  0.00    -0.380 Cl 
ENDBRANCH  28  29
ENDBRANCH  27  28
ENDBRANCH  26  27
ENDBRANCH  25  26
ENDBRANCH  24  25
ENDBRANCH  23  24
ENDBRANCH  22  23
ENDBRANCH  21  22
ENDBRANCH  20  21
ENDBRANCH  19  20
ENDBRANCH  18  19
ENDBRANCH  16  18
ENDBRANCH  15  16
ENDBRANCH  12  15
ENDBRANCH  10  12
ENDBRANCH   2   4
TORSDOF 16
ENDMDL
MODEL      105
REMARK 921   NORMALIZED FREE ENERGY PREDICTED BY IDOCK:   -5.39 KCAL/MOL
REMARK 922        TOTAL FREE ENERGY PREDICTED BY IDOCK:  -12.51 KCAL/MOL
REMARK 923 INTER-LIGAND FREE ENERGY PREDICTED BY IDOCK:   -9.46 KCAL/MOL
REMARK 924 INTRA-LIGAND FREE ENERGY PREDICTED BY IDOCK:   -3.05 KCAL/MOL
REMARK 927      BINDING AFFINITY PREDICTED BY RF-SCORE:    0.00 PKD
ROOT
HETATM    1  O   UNL     1     -14.137   9.655  70.626  1.00  0.00    -0.384 OA 
HETATM    2  C   UNL     1     -12.957  10.429  70.844  1.00  0.00    -0.387 C  
HETATM    3  H   UNL     1     -14.857  10.203  70.336  1.00  0.00     0.000 HD 
ENDROOT
BRANCH   2   4
HETATM    4  C   UNL     1     -11.817   9.559  71.304  1.00  0.00    -0.450 A  
HETATM    5  C   UNL     1     -11.904   8.693  72.400  1.00  0.00    -0.331 A  
HETATM    6  O   UNL     1     -13.069   8.520  73.093  1.00  0.00    -0.694 OA 
HETATM    7  C   UNL     1     -10.803   7.960  72.835  1.00  0.00    -0.451 A  
HETATM    8  C   UNL     1      -9.585   8.075  72.170  1.00  0.00    -0.277 A  
HETATM    9  H   UNL     1     -13.128   7.933  73.836  1.00  0.00     0.000 HD 
HETATM   10  C   UNL     1      -9.456   8.930  71.067  1.00  0.00    -0.318 A  
HETATM   11  C   UNL     1     -10.575   9.675  70.655  1.00  0.00    -0.386 A  
BRANCH  10  12
HETATM   12  C   UNL     1      -8.106   9.094  70.400  1.00  0.00    -0.152 C  
HETATM   13  O   UNL     1      -7.881   8.026  69.469  1.00  0.00    -0.101 OA 
HETATM   14  H   UNL     1      -7.035   8.129  69.050  1.00  0.00     0.000 HD 
BRANCH  12  15
HETATM   15  C   UNL     1      -8.033  10.447  69.663  1.00  0.00    -0.118 C  
BRANCH  15  16
HETATM   16  N   UNL     1      -6.854  11.223  70.084  1.00  0.00    -0.467 NA 
HETATM   17  H   UNL     1      -6.036  10.631  70.221  1.00  0.00     0.000 HD 
BRANCH  16  18
HETATM   18  C   UNL     1      -6.595  12.299  69.133  1.00  0.00    -0.105 C  
BRANCH  18  19
HETATM   19  C   UNL     1      -7.158  11.935  67.762  1.00  0.00    -0.103 C  
BRANCH  19  20
HETATM   20  C   UNL     1      -7.899  13.131  67.163  1.00  0.00    -0.061 C  
BRANCH  20  21
HETATM   21  C   UNL     1      -8.990  13.629  68.103  1.00  0.00    -0.191 C  
BRANCH  21  22
HETATM   22  C   UNL     1      -9.059  15.153  68.109  1.00  0.00    -0.176 C  
BRANCH  22  23
HETATM   23  C   UNL     1     -10.214  15.639  67.248  1.00  0.00    -0.266 C  
BRANCH  23  24
HETATM   24  O   UNL     1     -11.246  14.658  67.268  1.00  0.00    -0.313 OA 
BRANCH  24  25
HETATM   25  C   UNL     1     -11.833  14.518  65.976  1.00  0.00    -0.334 C  
BRANCH  25  26
HETATM   26  C   UNL     1     -10.781  14.759  64.906  1.00  0.00    -0.417 C  
BRANCH  26  27
HETATM   27  O   UNL     1     -10.228  13.503  64.513  1.00  0.00    -0.396 OA 
BRANCH  27  28
HETATM   28  C   UNL     1     -11.166  12.450  64.678  1.00  0.00    -0.312 C  
BRANCH  28  29
HETATM   29  C   UNL     1     -10.422  11.193  65.038  1.00  0.00    -0.357 A  
HETATM   30  C   UNL     1      -9.609  10.531  64.101  1.00  0.00    -0.313 A  
HETATM   31 CL   UNL     1      -9.461  11.070  62.463  1.00  0.00    -0.300 Cl 
HETATM   32  C   UNL     1      -8.878   9.390  64.456  1.00  0.00    -0.235 A  
HETATM   33  C   UNL     1      -8.963   8.876  65.746  1.00  0.00    -0.249 A  
HETATM   34  C   UNL     1      -9.803   9.484  66.673  1.00  0.00    -0.293 A  
HETATM   35  C   UNL     1     -10.535  10.625  66.320  1.00  0.00    -0.203 A  
HETATM   36 CL   UNL     1     -11.575  11.288  67.534  1.00  0.00    -0.316 Cl 
ENDBRANCH  28  29
ENDBRANCH  27  28
ENDBRANCH  26  27
ENDBRANCH  25  26
ENDBRANCH  24  25
ENDBRANCH  23  24
ENDBRANCH  22  23
ENDBRANCH  21  22
ENDBRANCH  20  21
ENDBRANCH  19  20
ENDBRANCH  18  19
ENDBRANCH  16  18
ENDBRANCH  15  16
ENDBRANCH  12  15
ENDBRANCH  10  12
ENDBRANCH   2   4
TORSDOF 16
ENDMDL
MODEL      106
REMARK 921   NORMALIZED FREE ENERGY PREDICTED BY IDOCK:   -5.38 KCAL/MOL
REMARK 922        TOTAL FREE ENERGY PREDICTED BY IDOCK:  -12.48 KCAL/MOL
REMARK 923 INTER-LIGAND FREE ENERGY PREDICTED BY IDOCK:  -10.52 KCAL/MOL
REMARK 924 INTRA-LIGAND FREE ENERGY PREDICTED BY IDOCK:   -1.95 KCAL/MOL
REMARK 927      BINDING AFFINITY PREDICTED BY RF-SCORE:    0.00 PKD
ROOT
HETATM    1  O   UNL     1     -10.204  18.767  67.245  1.00  0.00    -0.347 OA 
HETATM    2  C   UNL     1      -9.598  17.934  68.234  1.00  0.00    -0.312 C  
HETATM    3  H   UNL     1      -9.669  19.531  67.068  1.00  0.00     0.000 HD 
ENDROOT
BRANCH   2   4
HETATM    4  C   UNL     1     -10.447  16.721  68.513  1.00  0.00    -0.335 A  
HETATM    5  C   UNL     1     -10.842  15.813  67.524  1.00  0.00    -0.315 A  
HETATM    6  O   UNL     1     -10.418  15.927  66.230  1.00  0.00    -0.301 OA 
HETATM    7  C   UNL     1     -11.687  14.746  67.813  1.00  0.00    -0.368 A  
HETATM    8  C   UNL     1     -12.150  14.559  69.114  1.00  0.00    -0.299 A  
HETATM    9  H   UNL     1     -10.686  15.311  65.558  1.00  0.00     0.000 HD 
HETATM   10  C   UNL     1     -11.777  15.444  70.134  1.00  0.00    -0.356 A  
HETATM   11  C   UNL     1     -10.938  16.527  69.817  1.00  0.00    -0.292 A  
BRANCH  10  12
HETATM   12  C   UNL     1     -12.346  15.265  71.526  1.00  0.00    -0.352 C  
HETATM   13  O   UNL     1     -12.209  16.479  72.278  1.00  0.00    -0.555 OA 
HETATM   14  H   UNL     1     -12.566  16.367  73.151  1.00  0.00     0.000 HD 
BRANCH  12  15
HETATM   15  C   UNL     1     -13.836  14.869  71.450  1.00  0.00    -0.459 C  
BRANCH  15  16
HETATM   16  N   UNL     1     -14.114  13.674  72.265  1.00  0.00    -0.612 NA 
HETATM   17  H   UNL     1     -14.964  13.197  71.964  1.00  0.00     0.000 HD 
BRANCH  16  18
HETATM   18  C   UNL     1     -12.959  12.784  72.262  1.00  0.00    -0.183 C  
BRANCH  18  19
HETATM   19  C   UNL     1     -13.404  11.346  72.009  1.00  0.00    -0.388 C  
BRANCH  19  20
HETATM   20  C   UNL     1     -12.505  10.694  70.958  1.00  0.00    -0.515 C  
BRANCH  20  21
HETATM   21  C   UNL     1     -11.715   9.535  71.553  1.00  0.00    -0.472 C  
BRANCH  21  22
HETATM   22  C   UNL     1     -10.586   9.101  70.623  1.00  0.00    -0.305 C  
BRANCH  22  23
HETATM   23  C   UNL     1     -10.736   7.636  70.246  1.00  0.00    -0.239 C  
BRANCH  23  24
HETATM   24  O   UNL     1      -9.616   7.249  69.457  1.00  0.00    -0.155 OA 
BRANCH  24  25
HETATM   25  C   UNL     1      -8.794   8.376  69.161  1.00  0.00    -0.142 C  
BRANCH  25  26
HETATM   26  C   UNL     1      -8.278   8.274  67.735  1.00  0.00    -0.127 C  
BRANCH  26  27
HETATM   27  O   UNL     1      -8.714   9.420  67.005  1.00  0.00    -0.126 OA 
BRANCH  27  28
HETATM   28  C   UNL     1      -9.677   9.072  66.021  1.00  0.00    -0.269 C  
BRANCH  28  29
HETATM   29  C   UNL     1     -10.189  10.333  65.379  1.00  0.00    -0.312 A  
HETATM   30  C   UNL     1     -11.015  11.227  66.081  1.00  0.00    -0.191 A  
HETATM   31 CL   UNL     1     -11.554  10.913  67.696  1.00  0.00    -0.281 Cl 
HETATM   32  C   UNL     1     -11.447  12.425  65.495  1.00  0.00    -0.404 A  
HETATM   33  C   UNL     1     -11.081  12.740  64.191  1.00  0.00    -0.432 A  
HETATM   34  C   UNL     1     -10.308  11.843  63.460  1.00  0.00    -0.495 A  
HETATM   35  C   UNL     1      -9.876  10.645  64.043  1.00  0.00    -0.338 A  
HETATM   36 CL   UNL     1      -8.946   9.583  63.041  1.00  0.00    -0.248 Cl 
ENDBRANCH  28  29
ENDBRANCH  27  28
ENDBRANCH  26  27
ENDBRANCH  25  26
ENDBRANCH  24  25
ENDBRANCH  23  24
ENDBRANCH  22  23
ENDBRANCH  21  22
ENDBRANCH  20  21
ENDBRANCH  19  20
ENDBRANCH  18  19
ENDBRANCH  16  18
ENDBRANCH  15  16
ENDBRANCH  12  15
ENDBRANCH  10  12
ENDBRANCH   2   4
TORSDOF 16
ENDMDL
MODEL      107
REMARK 921   NORMALIZED FREE ENERGY PREDICTED BY IDOCK:   -5.37 KCAL/MOL
REMARK 922        TOTAL FREE ENERGY PREDICTED BY IDOCK:  -12.46 KCAL/MOL
REMARK 923 INTER-LIGAND FREE ENERGY PREDICTED BY IDOCK:  -10.48 KCAL/MOL
REMARK 924 INTRA-LIGAND FREE ENERGY PREDICTED BY IDOCK:   -1.98 KCAL/MOL
REMARK 927      BINDING AFFINITY PREDICTED BY RF-SCORE:    0.00 PKD
ROOT
HETATM    1  O   UNL     1     -12.339  14.133  63.667  1.00  0.00    -0.998 OA 
HETATM    2  C   UNL     1     -13.018  13.835  64.888  1.00  0.00    -0.067 C  
HETATM    3  H   UNL     1     -12.954  14.384  62.988  1.00  0.00     0.000 HD 
ENDROOT
BRANCH   2   4
HETATM    4  C   UNL     1     -12.043  13.438  65.966  1.00  0.00    -0.487 A  
HETATM    5  C   UNL     1     -11.278  12.267  65.918  1.00  0.00    -0.340 A  
HETATM    6  O   UNL     1     -11.311  11.428  64.839  1.00  0.00    -0.176 OA 
HETATM    7  C   UNL     1     -10.442  11.901  66.969  1.00  0.00    -0.253 A  
HETATM    8  C   UNL     1     -10.348  12.714  68.096  1.00  0.00    -0.238 A  
HETATM    9  H   UNL     1     -10.792  10.633  64.806  1.00  0.00     0.000 HD 
HETATM   10  C   UNL     1     -11.096  13.896  68.184  1.00  0.00    -0.278 A  
HETATM   11  C   UNL     1     -11.948  14.238  67.119  1.00  0.00    -0.449 A  
BRANCH  10  12
HETATM   12  C   UNL     1     -11.033  14.730  69.446  1.00  0.00    -0.265 C  
HETATM   13  O   UNL     1      -9.740  15.338  69.574  1.00  0.00    -0.255 OA 
HETATM   14  H   UNL     1      -9.701  15.861  70.366  1.00  0.00     0.000 HD 
BRANCH  12  15
HETATM   15  C   UNL     1     -12.119  15.826  69.420  1.00  0.00    -0.227 C  
BRANCH  15  16
HETATM   16  N   UNL     1     -13.030  15.706  70.571  1.00  0.00    -0.670 NA 
HETATM   17  H   UNL     1     -13.989  15.513  70.280  1.00  0.00     0.000 HD 
BRANCH  16  18
HETATM   18  C   UNL     1     -12.531  14.701  71.503  1.00  0.00    -0.346 C  
BRANCH  18  19
HETATM   19  C   UNL     1     -13.696  14.018  72.214  1.00  0.00    -0.646 C  
BRANCH  19  20
HETATM   20  C   UNL     1     -13.530  12.500  72.158  1.00  0.00    -0.523 C  
BRANCH  20  21
HETATM   21  C   UNL     1     -12.515  12.097  71.095  1.00  0.00    -0.337 C  
BRANCH  21  22
HETATM   22  C   UNL     1     -12.895  10.770  70.444  1.00  0.00    -0.285 C  
BRANCH  22  23
HETATM   23  C   UNL     1     -13.351   9.770  71.495  1.00  0.00    -0.385 C  
BRANCH  23  24
HETATM   24  O   UNL     1     -12.291   9.567  72.424  1.00  0.00    -0.241 OA 
BRANCH  24  25
HETATM   25  C   UNL     1     -11.638   8.323  72.180  1.00  0.00    -0.364 C  
BRANCH  25  26
HETATM   26  C   UNL     1     -10.174   8.569  71.852  1.00  0.00    -0.299 C  
BRANCH  26  27
HETATM   27  O   UNL     1      -9.881   7.980  70.585  1.00  0.00    -0.183 OA 
BRANCH  27  28
HETATM   28  C   UNL     1     -10.963   7.187  70.119  1.00  0.00    -0.267 C  
BRANCH  28  29
HETATM   29  C   UNL     1     -10.431   6.166  69.151  1.00  0.00    -0.310 A  
HETATM   30  C   UNL     1     -10.050   4.882  69.578  1.00  0.00    -0.216 A  
HETATM   31 CL   UNL     1     -10.100   4.409  71.242  1.00  0.00    -0.238 Cl 
HETATM   32  C   UNL     1      -9.604   3.918  68.663  1.00  0.00    -0.181 A  
HETATM   33  C   UNL     1      -9.508   4.227  67.310  1.00  0.00    -0.209 A  
HETATM   34  C   UNL     1      -9.829   5.508  66.874  1.00  0.00    -0.181 A  
HETATM   35  C   UNL     1     -10.275   6.473  67.787  1.00  0.00    -0.167 A  
HETATM   36 CL   UNL     1     -10.618   8.046  67.151  1.00  0.00    -0.399 Cl 
ENDBRANCH  28  29
ENDBRANCH  27  28
ENDBRANCH  26  27
ENDBRANCH  25  26
ENDBRANCH  24  25
ENDBRANCH  23  24
ENDBRANCH  22  23
ENDBRANCH  21  22
ENDBRANCH  20  21
ENDBRANCH  19  20
ENDBRANCH  18  19
ENDBRANCH  16  18
ENDBRANCH  15  16
ENDBRANCH  12  15
ENDBRANCH  10  12
ENDBRANCH   2   4
TORSDOF 16
ENDMDL
MODEL      108
REMARK 921   NORMALIZED FREE ENERGY PREDICTED BY IDOCK:   -5.36 KCAL/MOL
REMARK 922        TOTAL FREE ENERGY PREDICTED BY IDOCK:  -12.45 KCAL/MOL
REMARK 923 INTER-LIGAND FREE ENERGY PREDICTED BY IDOCK:  -10.21 KCAL/MOL
REMARK 924 INTRA-LIGAND FREE ENERGY PREDICTED BY IDOCK:   -2.24 KCAL/MOL
REMARK 927      BINDING AFFINITY PREDICTED BY RF-SCORE:    0.00 PKD
ROOT
HETATM    1  O   UNL     1      -6.637   7.111  70.622  1.00  0.00    -0.046 OA 
HETATM    2  C   UNL     1      -7.586   7.277  71.676  1.00  0.00    -0.086 C  
HETATM    3  H   UNL     1      -5.748   7.199  70.945  1.00  0.00     0.000 HD 
ENDROOT
BRANCH   2   4
HETATM    4  C   UNL     1      -8.995   7.138  71.162  1.00  0.00    -0.145 A  
HETATM    5  C   UNL     1     -10.126   7.455  71.923  1.00  0.00    -0.178 A  
HETATM    6  O   UNL     1     -10.026   7.991  73.177  1.00  0.00    -0.293 OA 
HETATM    7  C   UNL     1     -11.412   7.244  71.435  1.00  0.00    -0.294 A  
HETATM    8  C   UNL     1     -11.593   6.713  70.160  1.00  0.00    -0.446 A  
HETATM    9  H   UNL     1     -10.793   8.206  73.693  1.00  0.00     0.000 HD 
HETATM   10  C   UNL     1     -10.486   6.382  69.365  1.00  0.00    -0.277 A  
HETATM   11  C   UNL     1      -9.196   6.587  69.884  1.00  0.00    -0.149 A  
BRANCH  10  12
HETATM   12  C   UNL     1     -10.702   5.742  68.009  1.00  0.00    -0.209 C  
HETATM   13  O   UNL     1     -11.740   6.429  67.297  1.00  0.00    -0.594 OA 
HETATM   14  H   UNL     1     -11.876   6.028  66.447  1.00  0.00     0.000 HD 
BRANCH  12  15
HETATM   15  C   UNL     1      -9.398   5.778  67.186  1.00  0.00    -0.115 C  
BRANCH  15  16
HETATM   16  N   UNL     1      -9.497   6.729  66.066  1.00  0.00    -0.391 NA 
HETATM   17  H   UNL     1     -10.400   7.203  66.046  1.00  0.00     0.000 HD 
BRANCH  16  18
HETATM   18  C   UNL     1      -8.387   7.675  66.110  1.00  0.00    -0.134 C  
BRANCH  18  19
HETATM   19  C   UNL     1      -8.911   9.092  66.322  1.00  0.00    -0.194 C  
BRANCH  19  20
HETATM   20  C   UNL     1      -9.445   9.658  65.007  1.00  0.00    -0.312 C  
BRANCH  20  21
HETATM   21  C   UNL     1     -10.407  10.814  65.255  1.00  0.00    -0.327 C  
BRANCH  21  22
HETATM   22  C   UNL     1     -10.243  11.905  64.202  1.00  0.00    -0.364 C  
BRANCH  22  23
HETATM   23  C   UNL     1     -11.596  12.473  63.804  1.00  0.00    -0.475 C  
BRANCH  23  24
HETATM   24  O   UNL     1     -11.696  13.805  64.297  1.00  0.00    -0.394 OA 
BRANCH  24  25
HETATM   25  C   UNL     1     -12.617  13.871  65.384  1.00  0.00    -0.507 C  
BRANCH  25  26
HETATM   26  C   UNL     1     -11.871  14.199  66.667  1.00  0.00    -0.424 C  
BRANCH  26  27
HETATM   27  O   UNL     1     -11.995  13.098  67.567  1.00  0.00    -0.358 OA 
BRANCH  27  28
HETATM   28  C   UNL     1     -11.202  13.287  68.730  1.00  0.00    -0.276 C  
BRANCH  28  29
HETATM   29  C   UNL     1     -11.924  12.692  69.908  1.00  0.00    -0.365 A  
HETATM   30  C   UNL     1     -12.578  13.504  70.851  1.00  0.00    -0.337 A  
HETATM   31 CL   UNL     1     -12.542  15.232  70.764  1.00  0.00    -0.432 Cl 
HETATM   32  C   UNL     1     -13.292  12.942  71.918  1.00  0.00    -0.530 A  
HETATM   33  C   UNL     1     -13.346  11.561  72.076  1.00  0.00    -0.397 A  
HETATM   34  C   UNL     1     -12.662  10.741  71.185  1.00  0.00    -0.532 A  
HETATM   35  C   UNL     1     -11.947  11.301  70.117  1.00  0.00    -0.369 A  
HETATM   36 CL   UNL     1     -11.103  10.198  69.083  1.00  0.00    -0.259 Cl 
ENDBRANCH  28  29
ENDBRANCH  27  28
ENDBRANCH  26  27
ENDBRANCH  25  26
ENDBRANCH  24  25
ENDBRANCH  23  24
ENDBRANCH  22  23
ENDBRANCH  21  22
ENDBRANCH  20  21
ENDBRANCH  19  20
ENDBRANCH  18  19
ENDBRANCH  16  18
ENDBRANCH  15  16
ENDBRANCH  12  15
ENDBRANCH  10  12
ENDBRANCH   2   4
TORSDOF 16
ENDMDL
MODEL      109
REMARK 921   NORMALIZED FREE ENERGY PREDICTED BY IDOCK:   -5.36 KCAL/MOL
REMARK 922        TOTAL FREE ENERGY PREDICTED BY IDOCK:  -12.45 KCAL/MOL
REMARK 923 INTER-LIGAND FREE ENERGY PREDICTED BY IDOCK:  -10.74 KCAL/MOL
REMARK 924 INTRA-LIGAND FREE ENERGY PREDICTED BY IDOCK:   -1.71 KCAL/MOL
REMARK 927      BINDING AFFINITY PREDICTED BY RF-SCORE:    0.00 PKD
ROOT
HETATM    1  O   UNL     1      -9.307  10.073  68.044  1.00  0.00    -0.131 OA 
HETATM    2  C   UNL     1     -10.304   9.668  67.106  1.00  0.00    -0.254 C  
HETATM    3  H   UNL     1      -9.199   9.423  68.728  1.00  0.00     0.000 HD 
ENDROOT
BRANCH   2   4
HETATM    4  C   UNL     1     -10.476  10.699  66.021  1.00  0.00    -0.250 A  
HETATM    5  C   UNL     1      -9.946  10.556  64.733  1.00  0.00    -0.345 A  
HETATM    6  O   UNL     1      -9.289   9.422  64.345  1.00  0.00    -0.432 OA 
HETATM    7  C   UNL     1     -10.066  11.566  63.782  1.00  0.00    -0.407 A  
HETATM    8  C   UNL     1     -10.733  12.746  64.103  1.00  0.00    -0.441 A  
HETATM    9  H   UNL     1      -8.930   9.325  63.471  1.00  0.00     0.000 HD 
HETATM   10  C   UNL     1     -11.280  12.928  65.380  1.00  0.00    -0.314 A  
HETATM   11  C   UNL     1     -11.132  11.903  66.332  1.00  0.00    -0.359 A  
BRANCH  10  12
HETATM   12  C   UNL     1     -11.941  14.245  65.731  1.00  0.00    -0.393 C  
HETATM   13  O   UNL     1     -13.359  14.068  65.859  1.00  0.00    -0.609 OA 
HETATM   14  H   UNL     1     -13.774  14.894  66.079  1.00  0.00     0.000 HD 
BRANCH  12  15
HETATM   15  C   UNL     1     -11.367  14.798  67.053  1.00  0.00    -0.353 C  
BRANCH  15  16
HETATM   16  N   UNL     1     -12.350  14.702  68.145  1.00  0.00    -0.592 NA 
HETATM   17  H   UNL     1     -13.014  13.941  67.996  1.00  0.00     0.000 HD 
BRANCH  16  18
HETATM   18  C   UNL     1     -11.666  14.584  69.428  1.00  0.00    -0.318 C  
BRANCH  18  19
HETATM   19  C   UNL     1     -12.275  13.449  70.247  1.00  0.00    -0.405 C  
BRANCH  19  20
HETATM   20  C   UNL     1     -11.563  12.134  69.934  1.00  0.00    -0.297 C  
BRANCH  20  21
HETATM   21  C   UNL     1     -12.484  10.942  70.165  1.00  0.00    -0.356 C  
BRANCH  21  22
HETATM   22  C   UNL     1     -12.978  10.899  71.608  1.00  0.00    -0.569 C  
BRANCH  22  23
HETATM   23  C   UNL     1     -13.497   9.513  71.955  1.00  0.00    -0.443 C  
BRANCH  23  24
HETATM   24  O   UNL     1     -12.568   8.881  72.829  1.00  0.00    -0.306 OA 
BRANCH  24  25
HETATM   25  C   UNL     1     -12.009   7.721  72.217  1.00  0.00    -0.309 C  
BRANCH  25  26
HETATM   26  C   UNL     1     -10.637   8.051  71.653  1.00  0.00    -0.227 C  
BRANCH  26  27
HETATM   27  O   UNL     1     -10.623   7.737  70.260  1.00  0.00    -0.221 OA 
BRANCH  27  28
HETATM   28  C   UNL     1     -11.469   6.633  69.970  1.00  0.00    -0.375 C  
BRANCH  28  29
HETATM   29  C   UNL     1     -10.632   5.524  69.393  1.00  0.00    -0.349 A  
HETATM   30  C   UNL     1     -10.051   4.542  70.216  1.00  0.00    -0.160 A  
HETATM   31 CL   UNL     1     -10.199   4.578  71.940  1.00  0.00    -0.261 Cl 
HETATM   32  C   UNL     1      -9.316   3.482  69.669  1.00  0.00    -0.244 A  
HETATM   33  C   UNL     1      -9.127   3.396  68.294  1.00  0.00    -0.206 A  
HETATM   34  C   UNL     1      -9.647   4.386  67.466  1.00  0.00    -0.213 A  
HETATM   35  C   UNL     1     -10.383   5.447  68.011  1.00  0.00    -0.152 A  
HETATM   36 CL   UNL     1     -10.961   6.644  66.902  1.00  0.00    -0.451 Cl 
ENDBRANCH  28  29
ENDBRANCH  27  28
ENDBRANCH  26  27
ENDBRANCH  25  26
ENDBRANCH  24  25
ENDBRANCH  23  24
ENDBRANCH  22  23
ENDBRANCH  21  22
ENDBRANCH  20  21
ENDBRANCH  19  20
ENDBRANCH  18  19
ENDBRANCH  16  18
ENDBRANCH  15  16
ENDBRANCH  12  15
ENDBRANCH  10  12
ENDBRANCH   2   4
TORSDOF 16
ENDMDL
MODEL      110
REMARK 921   NORMALIZED FREE ENERGY PREDICTED BY IDOCK:   -5.36 KCAL/MOL
REMARK 922        TOTAL FREE ENERGY PREDICTED BY IDOCK:  -12.45 KCAL/MOL
REMARK 923 INTER-LIGAND FREE ENERGY PREDICTED BY IDOCK:  -11.12 KCAL/MOL
REMARK 924 INTRA-LIGAND FREE ENERGY PREDICTED BY IDOCK:   -1.33 KCAL/MOL
REMARK 927      BINDING AFFINITY PREDICTED BY RF-SCORE:    0.00 PKD
ROOT
HETATM    1  O   UNL     1      -9.462   5.209  68.781  1.00  0.00    -0.119 OA 
HETATM    2  C   UNL     1      -9.919   4.593  69.986  1.00  0.00    -0.232 C  
HETATM    3  H   UNL     1      -9.263   4.557  68.119  1.00  0.00     0.000 HD 
ENDROOT
BRANCH   2   4
HETATM    4  C   UNL     1     -10.234   5.628  71.035  1.00  0.00    -0.281 A  
HETATM    5  C   UNL     1     -10.638   5.306  72.336  1.00  0.00    -0.225 A  
HETATM    6  O   UNL     1     -10.705   4.012  72.771  1.00  0.00    -0.165 OA 
HETATM    7  C   UNL     1     -10.989   6.293  73.252  1.00  0.00    -0.221 A  
HETATM    8  C   UNL     1     -10.934   7.635  72.884  1.00  0.00    -0.456 A  
HETATM    9  H   UNL     1     -10.979   3.793  73.654  1.00  0.00     0.000 HD 
HETATM   10  C   UNL     1     -10.533   8.000  71.591  1.00  0.00    -0.272 A  
HETATM   11  C   UNL     1     -10.200   6.986  70.674  1.00  0.00    -0.205 A  
BRANCH  10  12
HETATM   12  C   UNL     1     -10.545   9.459  71.187  1.00  0.00    -0.333 C  
HETATM   13  O   UNL     1      -9.224   9.884  70.824  1.00  0.00    -0.322 OA 
HETATM   14  H   UNL     1      -9.232  10.799  70.570  1.00  0.00     0.000 HD 
BRANCH  12  15
HETATM   15  C   UNL     1     -11.505   9.679  69.999  1.00  0.00    -0.145 C  
BRANCH  15  16
HETATM   16  N   UNL     1     -12.873   9.967  70.462  1.00  0.00    -0.556 NA 
HETATM   17  H   UNL     1     -13.410   9.114  70.621  1.00  0.00     0.000 HD 
BRANCH  16  18
HETATM   18  C   UNL     1     -12.834  10.815  71.648  1.00  0.00    -0.457 C  
BRANCH  18  19
HETATM   19  C   UNL     1     -12.931  12.285  71.247  1.00  0.00    -0.299 C  
BRANCH  19  20
HETATM   20  C   UNL     1     -13.568  13.097  72.375  1.00  0.00    -0.667 C  
BRANCH  20  21
HETATM   21  C   UNL     1     -13.961  14.489  71.895  1.00  0.00    -0.569 C  
BRANCH  21  22
HETATM   22  C   UNL     1     -13.319  15.572  72.757  1.00  0.00    -0.621 C  
BRANCH  22  23
HETATM   23  C   UNL     1     -11.835  15.692  72.449  1.00  0.00    -0.483 C  
BRANCH  23  24
HETATM   24  O   UNL     1     -11.676  16.443  71.249  1.00  0.00    -0.403 OA 
BRANCH  24  25
HETATM   25  C   UNL     1     -10.873  15.730  70.311  1.00  0.00    -0.351 C  
BRANCH  25  26
HETATM   26  C   UNL     1     -10.705  16.557  69.047  1.00  0.00    -0.332 C  
BRANCH  26  27
HETATM   27  O   UNL     1     -11.245  15.827  67.945  1.00  0.00    -0.341 OA 
BRANCH  27  28
HETATM   28  C   UNL     1     -10.217  15.299  67.120  1.00  0.00    -0.252 C  
BRANCH  28  29
HETATM   29  C   UNL     1     -10.806  14.230  66.240  1.00  0.00    -0.310 A  
HETATM   30  C   UNL     1     -10.777  12.876  66.615  1.00  0.00    -0.265 A  
HETATM   31 CL   UNL     1     -10.009  12.337  68.069  1.00  0.00    -0.196 Cl 
HETATM   32  C   UNL     1     -11.373  11.891  65.815  1.00  0.00    -0.354 A  
HETATM   33  C   UNL     1     -11.987  12.238  64.617  1.00  0.00    -0.437 A  
HETATM   34  C   UNL     1     -11.980  13.565  64.201  1.00  0.00    -0.498 A  
HETATM   35  C   UNL     1     -11.385  14.551  64.998  1.00  0.00    -0.377 A  
HETATM   36 CL   UNL     1     -11.400  16.167  64.378  1.00  0.00    -0.375 Cl 
ENDBRANCH  28  29
ENDBRANCH  27  28
ENDBRANCH  26  27
ENDBRANCH  25  26
ENDBRANCH  24  25
ENDBRANCH  23  24
ENDBRANCH  22  23
ENDBRANCH  21  22
ENDBRANCH  20  21
ENDBRANCH  19  20
ENDBRANCH  18  19
ENDBRANCH  16  18
ENDBRANCH  15  16
ENDBRANCH  12  15
ENDBRANCH  10  12
ENDBRANCH   2   4
TORSDOF 16
ENDMDL
MODEL      111
REMARK 921   NORMALIZED FREE ENERGY PREDICTED BY IDOCK:   -5.35 KCAL/MOL
REMARK 922        TOTAL FREE ENERGY PREDICTED BY IDOCK:  -12.43 KCAL/MOL
REMARK 923 INTER-LIGAND FREE ENERGY PREDICTED BY IDOCK:   -9.56 KCAL/MOL
REMARK 924 INTRA-LIGAND FREE ENERGY PREDICTED BY IDOCK:   -2.88 KCAL/MOL
REMARK 927      BINDING AFFINITY PREDICTED BY RF-SCORE:    0.00 PKD
ROOT
HETATM    1  O   UNL     1     -13.973  15.612  70.843  1.00  0.00    -0.827 OA 
HETATM    2  C   UNL     1     -12.591  15.331  70.618  1.00  0.00    -0.417 C  
HETATM    3  H   UNL     1     -14.093  16.496  71.168  1.00  0.00     0.000 HD 
ENDROOT
BRANCH   2   4
HETATM    4  C   UNL     1     -12.400  13.929  70.102  1.00  0.00    -0.400 A  
HETATM    5  C   UNL     1     -12.541  12.789  70.902  1.00  0.00    -0.255 A  
HETATM    6  O   UNL     1     -12.937  12.869  72.208  1.00  0.00    -0.320 OA 
HETATM    7  C   UNL     1     -12.285  11.515  70.403  1.00  0.00    -0.442 A  
HETATM    8  C   UNL     1     -11.889  11.355  69.077  1.00  0.00    -0.415 A  
HETATM    9  H   UNL     1     -13.032  12.095  72.751  1.00  0.00     0.000 HD 
HETATM   10  C   UNL     1     -11.739  12.470  68.242  1.00  0.00    -0.390 A  
HETATM   11  C   UNL     1     -11.984  13.750  68.771  1.00  0.00    -0.400 A  
BRANCH  10  12
HETATM   12  C   UNL     1     -11.241  12.282  66.824  1.00  0.00    -0.318 C  
HETATM   13  O   UNL     1     -11.005  10.892  66.562  1.00  0.00    -0.223 OA 
HETATM   14  H   UNL     1     -10.693  10.773  65.673  1.00  0.00     0.000 HD 
BRANCH  12  15
HETATM   15  C   UNL     1     -12.272  12.831  65.816  1.00  0.00    -0.408 C  
BRANCH  15  16
HETATM   16  N   UNL     1     -11.631  13.208  64.545  1.00  0.00    -0.346 NA 
HETATM   17  H   UNL     1     -12.285  13.659  63.906  1.00  0.00     0.000 HD 
BRANCH  16  18
HETATM   18  C   UNL     1     -10.458  14.037  64.800  1.00  0.00    -0.421 C  
BRANCH  18  19
HETATM   19  C   UNL     1     -10.888  15.440  65.220  1.00  0.00    -0.423 C  
BRANCH  19  20
HETATM   20  C   UNL     1     -10.127  15.870  66.474  1.00  0.00    -0.293 C  
BRANCH  20  21
HETATM   21  C   UNL     1      -8.901  14.994  66.701  1.00  0.00    -0.307 C  
BRANCH  21  22
HETATM   22  C   UNL     1      -8.660  14.758  68.189  1.00  0.00    -0.159 C  
BRANCH  22  23
HETATM   23  C   UNL     1      -8.195  13.332  68.437  1.00  0.00    -0.134 C  
BRANCH  23  24
HETATM   24  O   UNL     1      -7.260  12.973  67.425  1.00  0.00    -0.152 OA 
BRANCH  24  25
HETATM   25  C   UNL     1      -7.480  11.633  66.988  1.00  0.00    -0.150 C  
BRANCH  25  26
HETATM   26  C   UNL     1      -7.586  10.712  68.192  1.00  0.00    -0.092 C  
BRANCH  26  27
HETATM   27  O   UNL     1      -8.530   9.681  67.902  1.00  0.00    -0.121 OA 
BRANCH  27  28
HETATM   28  C   UNL     1      -8.102   8.428  68.416  1.00  0.00    -0.123 C  
BRANCH  28  29
HETATM   29  C   UNL     1      -9.274   7.750  69.071  1.00  0.00    -0.143 A  
HETATM   30  C   UNL     1      -9.547   7.921  70.440  1.00  0.00    -0.171 A  
HETATM   31 CL   UNL     1      -8.525   8.860  71.474  1.00  0.00    -0.221 Cl 
HETATM   32  C   UNL     1     -10.670   7.328  71.033  1.00  0.00    -0.247 A  
HETATM   33  C   UNL     1     -11.526   6.535  70.277  1.00  0.00    -0.474 A  
HETATM   34  C   UNL     1     -11.245   6.309  68.934  1.00  0.00    -0.387 A  
HETATM   35  C   UNL     1     -10.123   6.901  68.338  1.00  0.00    -0.168 A  
HETATM   36 CL   UNL     1      -9.843   6.533  66.670  1.00  0.00    -0.213 Cl 
ENDBRANCH  28  29
ENDBRANCH  27  28
ENDBRANCH  26  27
ENDBRANCH  25  26
ENDBRANCH  24  25
ENDBRANCH  23  24
ENDBRANCH  22  23
ENDBRANCH  21  22
ENDBRANCH  20  21
ENDBRANCH  19  20
ENDBRANCH  18  19
ENDBRANCH  16  18
ENDBRANCH  15  16
ENDBRANCH  12  15
ENDBRANCH  10  12
ENDBRANCH   2   4
TORSDOF 16
ENDMDL
MODEL      112
REMARK 921   NORMALIZED FREE ENERGY PREDICTED BY IDOCK:   -5.34 KCAL/MOL
REMARK 922        TOTAL FREE ENERGY PREDICTED BY IDOCK:  -12.41 KCAL/MOL
REMARK 923 INTER-LIGAND FREE ENERGY PREDICTED BY IDOCK:   -9.18 KCAL/MOL
REMARK 924 INTRA-LIGAND FREE ENERGY PREDICTED BY IDOCK:   -3.23 KCAL/MOL
REMARK 927      BINDING AFFINITY PREDICTED BY RF-SCORE:    0.00 PKD
ROOT
HETATM    1  O   UNL     1      -9.984   6.567  66.079  1.00  0.00    -0.403 OA 
HETATM    2  C   UNL     1     -11.125   6.510  66.936  1.00  0.00    -0.272 C  
HETATM    3  H   UNL     1     -10.208   6.951  65.239  1.00  0.00     0.000 HD 
ENDROOT
BRANCH   2   4
HETATM    4  C   UNL     1     -10.770   5.900  68.268  1.00  0.00    -0.319 A  
HETATM    5  C   UNL     1     -10.022   4.725  68.401  1.00  0.00    -0.086 A  
HETATM    6  O   UNL     1      -9.491   4.081  67.318  1.00  0.00    -0.171 OA 
HETATM    7  C   UNL     1      -9.778   4.157  69.648  1.00  0.00    -0.269 A  
HETATM    8  C   UNL     1     -10.276   4.765  70.798  1.00  0.00    -0.246 A  
HETATM    9  H   UNL     1      -8.983   3.284  67.409  1.00  0.00     0.000 HD 
HETATM   10  C   UNL     1     -11.029   5.944  70.709  1.00  0.00    -0.343 A  
HETATM   11  C   UNL     1     -11.279   6.492  69.438  1.00  0.00    -0.418 A  
BRANCH  10  12
HETATM   12  C   UNL     1     -11.620   6.552  71.963  1.00  0.00    -0.311 C  
HETATM   13  O   UNL     1     -12.456   5.596  72.630  1.00  0.00    -0.464 OA 
HETATM   14  H   UNL     1     -12.827   5.977  73.417  1.00  0.00     0.000 HD 
BRANCH  12  15
HETATM   15  C   UNL     1     -10.498   7.013  72.916  1.00  0.00    -0.254 C  
BRANCH  15  16
HETATM   16  N   UNL     1     -10.248   8.459  72.790  1.00  0.00    -0.257 NA 
HETATM   17  H   UNL     1      -9.970   8.877  73.678  1.00  0.00     0.000 HD 
BRANCH  16  18
HETATM   18  C   UNL     1      -9.267   8.709  71.740  1.00  0.00    -0.268 C  
BRANCH  18  19
HETATM   19  C   UNL     1      -8.051   7.806  71.930  1.00  0.00    -0.120 C  
BRANCH  19  20
HETATM   20  C   UNL     1      -7.070   7.992  70.773  1.00  0.00    -0.048 C  
BRANCH  20  21
HETATM   21  C   UNL     1      -7.224   6.885  69.737  1.00  0.00    -0.079 C  
BRANCH  21  22
HETATM   22  C   UNL     1      -7.401   7.461  68.336  1.00  0.00    -0.103 C  
BRANCH  22  23
HETATM   23  C   UNL     1      -7.774   8.933  68.405  1.00  0.00    -0.099 C  
BRANCH  23  24
HETATM   24  O   UNL     1      -8.954   9.144  67.638  1.00  0.00    -0.123 OA 
BRANCH  24  25
HETATM   25  C   UNL     1      -9.662  10.289  68.107  1.00  0.00    -0.143 C  
BRANCH  25  26
HETATM   26  C   UNL     1     -11.036  10.343  67.459  1.00  0.00    -0.267 C  
BRANCH  26  27
HETATM   27  O   UNL     1     -11.976  10.839  68.412  1.00  0.00    -0.508 OA 
BRANCH  27  28
HETATM   28  C   UNL     1     -11.404  10.920  69.710  1.00  0.00    -0.301 C  
BRANCH  28  29
HETATM   29  C   UNL     1     -12.092  12.018  70.473  1.00  0.00    -0.402 A  
HETATM   30  C   UNL     1     -11.891  13.371  70.148  1.00  0.00    -0.272 A  
HETATM   31 CL   UNL     1     -10.797  13.869  68.903  1.00  0.00    -0.272 Cl 
HETATM   32  C   UNL     1     -12.575  14.388  70.828  1.00  0.00    -0.426 A  
HETATM   33  C   UNL     1     -13.452  14.074  71.861  1.00  0.00    -0.506 A  
HETATM   34  C   UNL     1     -13.624  12.745  72.234  1.00  0.00    -0.563 A  
HETATM   35  C   UNL     1     -12.942  11.727  71.555  1.00  0.00    -0.341 A  
HETATM   36 CL   UNL     1     -13.200  10.110  72.116  1.00  0.00    -0.524 Cl 
ENDBRANCH  28  29
ENDBRANCH  27  28
ENDBRANCH  26  27
ENDBRANCH  25  26
ENDBRANCH  24  25
ENDBRANCH  23  24
ENDBRANCH  22  23
ENDBRANCH  21  22
ENDBRANCH  20  21
ENDBRANCH  19  20
ENDBRANCH  18  19
ENDBRANCH  16  18
ENDBRANCH  15  16
ENDBRANCH  12  15
ENDBRANCH  10  12
ENDBRANCH   2   4
TORSDOF 16
ENDMDL
MODEL      113
REMARK 921   NORMALIZED FREE ENERGY PREDICTED BY IDOCK:   -5.34 KCAL/MOL
REMARK 922        TOTAL FREE ENERGY PREDICTED BY IDOCK:  -12.40 KCAL/MOL
REMARK 923 INTER-LIGAND FREE ENERGY PREDICTED BY IDOCK:  -10.87 KCAL/MOL
REMARK 924 INTRA-LIGAND FREE ENERGY PREDICTED BY IDOCK:   -1.53 KCAL/MOL
REMARK 927      BINDING AFFINITY PREDICTED BY RF-SCORE:    0.00 PKD
ROOT
HETATM    1  O   UNL     1      -9.419  17.736  66.880  1.00  0.00    -0.255 OA 
HETATM    2  C   UNL     1     -10.224  17.432  65.740  1.00  0.00    -0.191 C  
HETATM    3  H   UNL     1      -9.127  18.639  66.860  1.00  0.00     0.000 HD 
ENDROOT
BRANCH   2   4
HETATM    4  C   UNL     1     -10.687  15.999  65.772  1.00  0.00    -0.310 A  
HETATM    5  C   UNL     1     -11.473  15.421  64.768  1.00  0.00    -0.336 A  
HETATM    6  O   UNL     1     -11.818  16.108  63.638  1.00  0.00    -1.370 OA 
HETATM    7  C   UNL     1     -11.939  14.114  64.872  1.00  0.00    -0.424 A  
HETATM    8  C   UNL     1     -11.617  13.348  65.990  1.00  0.00    -0.375 A  
HETATM    9  H   UNL     1     -12.351  15.717  62.956  1.00  0.00     0.000 HD 
HETATM   10  C   UNL     1     -10.831  13.888  67.018  1.00  0.00    -0.288 A  
HETATM   11  C   UNL     1     -10.385  15.217  66.902  1.00  0.00    -0.278 A  
BRANCH  10  12
HETATM   12  C   UNL     1     -10.549  13.064  68.257  1.00  0.00    -0.247 C  
HETATM   13  O   UNL     1      -9.929  13.878  69.262  1.00  0.00    -0.423 OA 
HETATM   14  H   UNL     1      -9.752  13.361  70.039  1.00  0.00     0.000 HD 
BRANCH  12  15
HETATM   15  C   UNL     1     -11.858  12.464  68.811  1.00  0.00    -0.311 C  
BRANCH  15  16
HETATM   16  N   UNL     1     -11.816  12.352  70.279  1.00  0.00    -0.534 NA 
HETATM   17  H   UNL     1     -12.530  12.927  70.726  1.00  0.00     0.000 HD 
BRANCH  16  18
HETATM   18  C   UNL     1     -11.915  10.952  70.679  1.00  0.00    -0.368 C  
BRANCH  18  19
HETATM   19  C   UNL     1     -13.124  10.749  71.587  1.00  0.00    -0.551 C  
BRANCH  19  20
HETATM   20  C   UNL     1     -13.069   9.367  72.236  1.00  0.00    -0.509 C  
BRANCH  20  21
HETATM   21  C   UNL     1     -14.084   8.421  71.605  1.00  0.00    -0.487 C  
BRANCH  21  22
HETATM   22  C   UNL     1     -13.477   7.044  71.359  1.00  0.00    -0.323 C  
BRANCH  22  23
HETATM   23  C   UNL     1     -12.021   7.168  70.940  1.00  0.00    -0.334 C  
BRANCH  23  24
HETATM   24  O   UNL     1     -11.813   6.387  69.768  1.00  0.00    -0.357 OA 
BRANCH  24  25
HETATM   25  C   UNL     1     -10.443   6.427  69.372  1.00  0.00    -0.228 C  
BRANCH  25  26
HETATM   26  C   UNL     1     -10.238   5.548  68.149  1.00  0.00    -0.177 C  
BRANCH  26  27
HETATM   27  O   UNL     1     -10.136   6.382  66.994  1.00  0.00    -0.145 OA 
BRANCH  27  28
HETATM   28  C   UNL     1      -8.905   7.090  66.974  1.00  0.00    -0.124 C  
BRANCH  28  29
HETATM   29  C   UNL     1      -9.001   8.195  65.957  1.00  0.00    -0.213 A  
HETATM   30  C   UNL     1      -8.238   8.169  64.776  1.00  0.00    -0.133 A  
HETATM   31 CL   UNL     1      -7.096   6.912  64.442  1.00  0.00    -0.058 Cl 
HETATM   32  C   UNL     1      -8.370   9.174  63.808  1.00  0.00    -0.183 A  
HETATM   33  C   UNL     1      -9.246  10.234  64.013  1.00  0.00    -0.311 A  
HETATM   34  C   UNL     1      -9.970  10.307  65.199  1.00  0.00    -0.395 A  
HETATM   35  C   UNL     1      -9.841   9.303  66.167  1.00  0.00    -0.293 A  
HETATM   36 CL   UNL     1     -10.759   9.502  67.621  1.00  0.00    -0.338 Cl 
ENDBRANCH  28  29
ENDBRANCH  27  28
ENDBRANCH  26  27
ENDBRANCH  25  26
ENDBRANCH  24  25
ENDBRANCH  23  24
ENDBRANCH  22  23
ENDBRANCH  21  22
ENDBRANCH  20  21
ENDBRANCH  19  20
ENDBRANCH  18  19
ENDBRANCH  16  18
ENDBRANCH  15  16
ENDBRANCH  12  15
ENDBRANCH  10  12
ENDBRANCH   2   4
TORSDOF 16
ENDMDL
MODEL      114
REMARK 921   NORMALIZED FREE ENERGY PREDICTED BY IDOCK:   -5.33 KCAL/MOL
REMARK 922        TOTAL FREE ENERGY PREDICTED BY IDOCK:  -12.38 KCAL/MOL
REMARK 923 INTER-LIGAND FREE ENERGY PREDICTED BY IDOCK:   -9.89 KCAL/MOL
REMARK 924 INTRA-LIGAND FREE ENERGY PREDICTED BY IDOCK:   -2.49 KCAL/MOL
REMARK 927      BINDING AFFINITY PREDICTED BY RF-SCORE:    0.00 PKD
ROOT
HETATM    1  O   UNL     1     -12.821  11.558  63.160  1.00  0.00    -0.788 OA 
HETATM    2  C   UNL     1     -11.966  12.698  63.255  1.00  0.00    -0.441 C  
HETATM    3  H   UNL     1     -12.860  11.234  62.267  1.00  0.00     0.000 HD 
ENDROOT
BRANCH   2   4
HETATM    4  C   UNL     1     -11.905  13.210  64.671  1.00  0.00    -0.417 A  
HETATM    5  C   UNL     1     -12.105  14.553  65.012  1.00  0.00    -0.389 A  
HETATM    6  O   UNL     1     -12.445  15.492  64.078  1.00  0.00    -0.783 OA 
HETATM    7  C   UNL     1     -11.968  14.997  66.324  1.00  0.00     0.055 A  
HETATM    8  C   UNL     1     -11.635  14.094  67.332  1.00  0.00    -0.399 A  
HETATM    9  H   UNL     1     -12.580  16.403  64.310  1.00  0.00     0.000 HD 
HETATM   10  C   UNL     1     -11.429  12.740  67.032  1.00  0.00    -0.397 A  
HETATM   11  C   UNL     1     -11.554  12.316  65.697  1.00  0.00    -0.433 A  
BRANCH  10  12
HETATM   12  C   UNL     1     -11.000  11.788  68.129  1.00  0.00    -0.228 C  
HETATM   13  O   UNL     1      -9.813  12.275  68.771  1.00  0.00    -0.387 OA 
HETATM   14  H   UNL     1      -9.544  11.677  69.459  1.00  0.00     0.000 HD 
BRANCH  12  15
HETATM   15  C   UNL     1     -12.126  11.630  69.173  1.00  0.00    -0.251 C  
BRANCH  15  16
HETATM   16  N   UNL     1     -11.631  11.885  70.536  1.00  0.00    -0.437 NA 
HETATM   17  H   UNL     1     -11.453  12.876  70.699  1.00  0.00     0.000 HD 
BRANCH  16  18
HETATM   18  C   UNL     1     -12.557  11.329  71.518  1.00  0.00    -0.312 C  
BRANCH  18  19
HETATM   19  C   UNL     1     -13.278  10.118  70.933  1.00  0.00    -0.360 C  
BRANCH  19  20
HETATM   20  C   UNL     1     -13.521   9.074  72.023  1.00  0.00    -0.498 C  
BRANCH  20  21
HETATM   21  C   UNL     1     -13.944   7.739  71.420  1.00  0.00    -0.416 C  
BRANCH  21  22
HETATM   22  C   UNL     1     -12.733   6.928  70.970  1.00  0.00    -0.269 C  
BRANCH  22  23
HETATM   23  C   UNL     1     -12.070   6.251  72.158  1.00  0.00    -0.252 C  
BRANCH  23  24
HETATM   24  O   UNL     1     -10.916   6.999  72.527  1.00  0.00    -0.239 OA 
BRANCH  24  25
HETATM   25  C   UNL     1     -10.115   7.287  71.383  1.00  0.00    -0.187 C  
BRANCH  25  26
HETATM   26  C   UNL     1      -9.580   8.706  71.476  1.00  0.00    -0.257 C  
BRANCH  26  27
HETATM   27  O   UNL     1      -9.496   9.254  70.161  1.00  0.00    -0.192 OA 
BRANCH  27  28
HETATM   28  C   UNL     1      -8.639   8.481  69.332  1.00  0.00    -0.128 C  
BRANCH  28  29
HETATM   29  C   UNL     1      -8.631   9.083  67.953  1.00  0.00    -0.125 A  
HETATM   30  C   UNL     1      -9.536   8.657  66.965  1.00  0.00    -0.182 A  
HETATM   31 CL   UNL     1     -10.669   7.377  67.239  1.00  0.00    -0.386 Cl 
HETATM   32  C   UNL     1      -9.559   9.257  65.698  1.00  0.00    -0.324 A  
HETATM   33  C   UNL     1      -8.663  10.274  65.388  1.00  0.00    -0.183 A  
HETATM   34  C   UNL     1      -7.723  10.673  66.333  1.00  0.00    -0.141 A  
HETATM   35  C   UNL     1      -7.699  10.075  67.600  1.00  0.00    -0.091 A  
HETATM   36 CL   UNL     1      -6.472  10.619  68.693  1.00  0.00    -0.050 Cl 
ENDBRANCH  28  29
ENDBRANCH  27  28
ENDBRANCH  26  27
ENDBRANCH  25  26
ENDBRANCH  24  25
ENDBRANCH  23  24
ENDBRANCH  22  23
ENDBRANCH  21  22
ENDBRANCH  20  21
ENDBRANCH  19  20
ENDBRANCH  18  19
ENDBRANCH  16  18
ENDBRANCH  15  16
ENDBRANCH  12  15
ENDBRANCH  10  12
ENDBRANCH   2   4
TORSDOF 16
ENDMDL
MODEL      115
REMARK 921   NORMALIZED FREE ENERGY PREDICTED BY IDOCK:   -5.33 KCAL/MOL
REMARK 922        TOTAL FREE ENERGY PREDICTED BY IDOCK:  -12.38 KCAL/MOL
REMARK 923 INTER-LIGAND FREE ENERGY PREDICTED BY IDOCK:   -9.95 KCAL/MOL
REMARK 924 INTRA-LIGAND FREE ENERGY PREDICTED BY IDOCK:   -2.43 KCAL/MOL
REMARK 927      BINDING AFFINITY PREDICTED BY RF-SCORE:    0.00 PKD
ROOT
HETATM    1  O   UNL     1     -12.298  13.997  63.150  1.00  0.00    -1.133 OA 
HETATM    2  C   UNL     1     -12.511  13.683  64.526  1.00  0.00    -0.287 C  
HETATM    3  H   UNL     1     -12.940  14.624  62.839  1.00  0.00     0.000 HD 
ENDROOT
BRANCH   2   4
HETATM    4  C   UNL     1     -11.492  12.688  65.018  1.00  0.00    -0.366 A  
HETATM    5  C   UNL     1     -11.094  11.566  64.281  1.00  0.00    -0.315 A  
HETATM    6  O   UNL     1     -11.556  11.334  63.015  1.00  0.00    -0.857 OA 
HETATM    7  C   UNL     1     -10.203  10.633  64.802  1.00  0.00    -0.401 A  
HETATM    8  C   UNL     1      -9.681  10.810  66.082  1.00  0.00    -0.253 A  
HETATM    9  H   UNL     1     -11.286  10.573  62.515  1.00  0.00     0.000 HD 
HETATM   10  C   UNL     1     -10.052  11.921  66.852  1.00  0.00    -0.229 A  
HETATM   11  C   UNL     1     -10.968  12.842  66.313  1.00  0.00    -0.305 A  
BRANCH  10  12
HETATM   12  C   UNL     1      -9.528  12.060  68.266  1.00  0.00    -0.199 C  
HETATM   13  O   UNL     1      -9.751  13.393  68.748  1.00  0.00    -0.396 OA 
HETATM   14  H   UNL     1      -9.423  13.480  69.635  1.00  0.00     0.000 HD 
BRANCH  12  15
HETATM   15  C   UNL     1     -10.226  11.049  69.199  1.00  0.00    -0.166 C  
BRANCH  15  16
HETATM   16  N   UNL     1     -11.287  11.695  69.991  1.00  0.00    -0.499 NA 
HETATM   17  H   UNL     1     -11.593  12.574  69.575  1.00  0.00     0.000 HD 
BRANCH  16  18
HETATM   18  C   UNL     1     -12.397  10.770  70.192  1.00  0.00    -0.325 C  
BRANCH  18  19
HETATM   19  C   UNL     1     -12.931  10.890  71.617  1.00  0.00    -0.569 C  
BRANCH  19  20
HETATM   20  C   UNL     1     -13.194   9.502  72.199  1.00  0.00    -0.539 C  
BRANCH  20  21
HETATM   21  C   UNL     1     -11.958   8.617  72.092  1.00  0.00    -0.449 C  
BRANCH  21  22
HETATM   22  C   UNL     1     -12.256   7.347  71.301  1.00  0.00    -0.374 C  
BRANCH  22  23
HETATM   23  C   UNL     1     -11.890   6.114  72.110  1.00  0.00    -0.285 C  
BRANCH  23  24
HETATM   24  O   UNL     1     -10.531   5.778  71.846  1.00  0.00    -0.207 OA 
BRANCH  24  25
HETATM   25  C   UNL     1     -10.329   5.556  70.453  1.00  0.00    -0.276 C  
BRANCH  25  26
HETATM   26  C   UNL     1      -8.840   5.546  70.147  1.00  0.00    -0.136 C  
BRANCH  26  27
HETATM   27  O   UNL     1      -8.348   6.885  70.205  1.00  0.00    -0.131 OA 
BRANCH  27  28
HETATM   28  C   UNL     1      -9.110   7.753  69.378  1.00  0.00    -0.146 C  
BRANCH  28  29
HETATM   29  C   UNL     1      -8.493   7.777  68.006  1.00  0.00    -0.123 A  
HETATM   30  C   UNL     1      -7.208   8.307  67.792  1.00  0.00    -0.088 A  
HETATM   31 CL   UNL     1      -6.281   9.023  69.066  1.00  0.00    -0.043 Cl 
HETATM   32  C   UNL     1      -6.617   8.280  66.521  1.00  0.00    -0.056 A  
HETATM   33  C   UNL     1      -7.308   7.747  65.438  1.00  0.00    -0.077 A  
HETATM   34  C   UNL     1      -8.601   7.267  65.617  1.00  0.00    -0.123 A  
HETATM   35  C   UNL     1      -9.193   7.292  66.886  1.00  0.00    -0.152 A  
HETATM   36 CL   UNL     1     -10.817   6.702  66.999  1.00  0.00    -0.447 Cl 
ENDBRANCH  28  29
ENDBRANCH  27  28
ENDBRANCH  26  27
ENDBRANCH  25  26
ENDBRANCH  24  25
ENDBRANCH  23  24
ENDBRANCH  22  23
ENDBRANCH  21  22
ENDBRANCH  20  21
ENDBRANCH  19  20
ENDBRANCH  18  19
ENDBRANCH  16  18
ENDBRANCH  15  16
ENDBRANCH  12  15
ENDBRANCH  10  12
ENDBRANCH   2   4
TORSDOF 16
ENDMDL
MODEL      116
REMARK 921   NORMALIZED FREE ENERGY PREDICTED BY IDOCK:   -5.32 KCAL/MOL
REMARK 922        TOTAL FREE ENERGY PREDICTED BY IDOCK:  -12.37 KCAL/MOL
REMARK 923 INTER-LIGAND FREE ENERGY PREDICTED BY IDOCK:  -10.97 KCAL/MOL
REMARK 924 INTRA-LIGAND FREE ENERGY PREDICTED BY IDOCK:   -1.40 KCAL/MOL
REMARK 927      BINDING AFFINITY PREDICTED BY RF-SCORE:    0.00 PKD
ROOT
HETATM    1  O   UNL     1     -12.014  16.264  63.752  1.00  0.00    -1.409 OA 
HETATM    2  C   UNL     1     -10.868  16.095  64.588  1.00  0.00    -0.142 C  
HETATM    3  H   UNL     1     -11.840  16.885  63.056  1.00  0.00     0.000 HD 
ENDROOT
BRANCH   2   4
HETATM    4  C   UNL     1     -11.146  15.109  65.693  1.00  0.00    -0.334 A  
HETATM    5  C   UNL     1     -11.862  13.922  65.502  1.00  0.00    -0.362 A  
HETATM    6  O   UNL     1     -12.303  13.535  64.268  1.00  0.00    -0.549 OA 
HETATM    7  C   UNL     1     -12.158  13.074  66.565  1.00  0.00    -0.410 A  
HETATM    8  C   UNL     1     -11.730  13.396  67.851  1.00  0.00    -0.396 A  
HETATM    9  H   UNL     1     -12.789  12.730  64.138  1.00  0.00     0.000 HD 
HETATM   10  C   UNL     1     -11.008  14.575  68.085  1.00  0.00    -0.261 A  
HETATM   11  C   UNL     1     -10.736  15.427  67.000  1.00  0.00    -0.321 A  
BRANCH  10  12
HETATM   12  C   UNL     1     -10.612  14.943  69.499  1.00  0.00    -0.229 C  
HETATM   13  O   UNL     1      -9.196  14.791  69.672  1.00  0.00    -0.421 OA 
HETATM   14  H   UNL     1      -8.947  15.022  70.559  1.00  0.00     0.000 HD 
BRANCH  12  15
HETATM   15  C   UNL     1     -11.018  16.399  69.809  1.00  0.00    -0.341 C  
BRANCH  15  16
HETATM   16  N   UNL     1     -11.602  16.517  71.155  1.00  0.00    -0.578 NA 
HETATM   17  H   UNL     1     -12.383  17.174  71.177  1.00  0.00     0.000 HD 
BRANCH  16  18
HETATM   18  C   UNL     1     -11.985  15.200  71.654  1.00  0.00    -0.369 C  
BRANCH  18  19
HETATM   19  C   UNL     1     -13.494  15.138  71.870  1.00  0.00    -0.522 C  
BRANCH  19  20
HETATM   20  C   UNL     1     -13.920  13.708  72.202  1.00  0.00    -0.609 C  
BRANCH  20  21
HETATM   21  C   UNL     1     -13.002  12.692  71.533  1.00  0.00    -0.380 C  
BRANCH  21  22
HETATM   22  C   UNL     1     -13.410  11.265  71.885  1.00  0.00    -0.413 C  
BRANCH  22  23
HETATM   23  C   UNL     1     -12.835  10.280  70.880  1.00  0.00    -0.374 C  
BRANCH  23  24
HETATM   24  O   UNL     1     -11.427  10.200  71.070  1.00  0.00    -0.354 OA 
BRANCH  24  25
HETATM   25  C   UNL     1     -10.994   8.841  71.073  1.00  0.00    -0.268 C  
BRANCH  25  26
HETATM   26  C   UNL     1     -10.266   8.539  72.372  1.00  0.00    -0.299 C  
BRANCH  26  27
HETATM   27  O   UNL     1     -11.003   7.553  73.095  1.00  0.00    -0.376 OA 
BRANCH  27  28
HETATM   28  C   UNL     1     -10.140   6.701  73.835  1.00  0.00    -0.324 C  
BRANCH  28  29
HETATM   29  C   UNL     1      -9.640   5.613  72.925  1.00  0.00    -0.165 A  
HETATM   30  C   UNL     1     -10.476   4.558  72.517  1.00  0.00    -0.186 A  
HETATM   31 CL   UNL     1     -12.104   4.400  73.082  1.00  0.00     0.017 Cl 
HETATM   32  C   UNL     1     -10.020   3.576  71.628  1.00  0.00    -0.190 A  
HETATM   33  C   UNL     1      -8.715   3.615  71.149  1.00  0.00    -0.122 A  
HETATM   34  C   UNL     1      -7.855   4.619  71.581  1.00  0.00    -0.097 A  
HETATM   35  C   UNL     1      -8.309   5.603  72.470  1.00  0.00    -0.114 A  
HETATM   36 CL   UNL     1      -7.154   6.790  72.973  1.00  0.00    -0.075 Cl 
ENDBRANCH  28  29
ENDBRANCH  27  28
ENDBRANCH  26  27
ENDBRANCH  25  26
ENDBRANCH  24  25
ENDBRANCH  23  24
ENDBRANCH  22  23
ENDBRANCH  21  22
ENDBRANCH  20  21
ENDBRANCH  19  20
ENDBRANCH  18  19
ENDBRANCH  16  18
ENDBRANCH  15  16
ENDBRANCH  12  15
ENDBRANCH  10  12
ENDBRANCH   2   4
TORSDOF 16
ENDMDL
MODEL      117
REMARK 921   NORMALIZED FREE ENERGY PREDICTED BY IDOCK:   -5.32 KCAL/MOL
REMARK 922        TOTAL FREE ENERGY PREDICTED BY IDOCK:  -12.36 KCAL/MOL
REMARK 923 INTER-LIGAND FREE ENERGY PREDICTED BY IDOCK:  -11.13 KCAL/MOL
REMARK 924 INTRA-LIGAND FREE ENERGY PREDICTED BY IDOCK:   -1.23 KCAL/MOL
REMARK 927      BINDING AFFINITY PREDICTED BY RF-SCORE:    0.00 PKD
ROOT
HETATM    1  O   UNL     1     -11.207   5.341  66.164  1.00  0.00    -0.731 OA 
HETATM    2  C   UNL     1     -10.942   6.409  67.075  1.00  0.00    -0.389 C  
HETATM    3  H   UNL     1     -11.409   5.674  65.298  1.00  0.00     0.000 HD 
ENDROOT
BRANCH   2   4
HETATM    4  C   UNL     1     -10.621   5.881  68.449  1.00  0.00    -0.314 A  
HETATM    5  C   UNL     1      -9.680   4.873  68.685  1.00  0.00    -0.160 A  
HETATM    6  O   UNL     1      -8.924   4.341  67.678  1.00  0.00    -0.107 OA 
HETATM    7  C   UNL     1      -9.466   4.364  69.963  1.00  0.00    -0.251 A  
HETATM    8  C   UNL     1     -10.192   4.865  71.041  1.00  0.00    -0.262 A  
HETATM    9  H   UNL     1      -8.285   3.657  67.838  1.00  0.00     0.000 HD 
HETATM   10  C   UNL     1     -11.143   5.877  70.848  1.00  0.00    -0.312 A  
HETATM   11  C   UNL     1     -11.357   6.364  69.546  1.00  0.00    -0.460 A  
BRANCH  10  12
HETATM   12  C   UNL     1     -11.970   6.361  72.020  1.00  0.00    -0.326 C  
HETATM   13  O   UNL     1     -11.593   5.662  73.215  1.00  0.00    -0.498 OA 
HETATM   14  H   UNL     1     -12.111   5.966  73.950  1.00  0.00     0.000 HD 
BRANCH  12  15
HETATM   15  C   UNL     1     -11.776   7.878  72.224  1.00  0.00    -0.355 C  
BRANCH  15  16
HETATM   16  N   UNL     1     -12.955   8.489  72.860  1.00  0.00    -0.694 NA 
HETATM   17  H   UNL     1     -12.810   8.655  73.855  1.00  0.00     0.000 HD 
BRANCH  16  18
HETATM   18  C   UNL     1     -13.332   9.708  72.152  1.00  0.00    -0.454 C  
BRANCH  18  19
HETATM   19  C   UNL     1     -12.397   9.939  70.968  1.00  0.00    -0.451 C  
BRANCH  19  20
HETATM   20  C   UNL     1     -12.282  11.434  70.672  1.00  0.00    -0.484 C  
BRANCH  20  21
HETATM   21  C   UNL     1     -11.508  11.681  69.382  1.00  0.00    -0.372 C  
BRANCH  21  22
HETATM   22  C   UNL     1     -11.900  13.012  68.750  1.00  0.00    -0.355 C  
BRANCH  22  23
HETATM   23  C   UNL     1     -10.685  13.696  68.144  1.00  0.00    -0.248 C  
BRANCH  23  24
HETATM   24  O   UNL     1     -10.182  14.648  69.076  1.00  0.00    -0.229 OA 
BRANCH  24  25
HETATM   25  C   UNL     1     -11.083  15.744  69.213  1.00  0.00    -0.297 C  
BRANCH  25  26
HETATM   26  C   UNL     1     -11.048  16.596  67.956  1.00  0.00    -0.255 C  
BRANCH  26  27
HETATM   27  O   UNL     1      -9.729  17.119  67.790  1.00  0.00    -0.260 OA 
BRANCH  27  28
HETATM   28  C   UNL     1      -9.418  18.068  68.799  1.00  0.00    -0.270 C  
BRANCH  28  29
HETATM   29  C   UNL     1      -8.344  18.987  68.283  1.00  0.00    -0.369 A  
HETATM   30  C   UNL     1      -8.647  20.051  67.416  1.00  0.00    -0.341 A  
HETATM   31 CL   UNL     1     -10.251  20.338  66.832  1.00  0.00    -0.556 Cl 
HETATM   32  C   UNL     1      -7.650  20.934  66.979  1.00  0.00    -0.252 A  
HETATM   33  C   UNL     1      -6.331  20.756  67.380  1.00  0.00    -0.345 A  
HETATM   34  C   UNL     1      -6.001  19.678  68.195  1.00  0.00    -0.244 A  
HETATM   35  C   UNL     1      -6.995  18.794  68.633  1.00  0.00    -0.283 A  
HETATM   36 CL   UNL     1      -6.478  17.466  69.616  1.00  0.00    -0.211 Cl 
ENDBRANCH  28  29
ENDBRANCH  27  28
ENDBRANCH  26  27
ENDBRANCH  25  26
ENDBRANCH  24  25
ENDBRANCH  23  24
ENDBRANCH  22  23
ENDBRANCH  21  22
ENDBRANCH  20  21
ENDBRANCH  19  20
ENDBRANCH  18  19
ENDBRANCH  16  18
ENDBRANCH  15  16
ENDBRANCH  12  15
ENDBRANCH  10  12
ENDBRANCH   2   4
TORSDOF 16
ENDMDL
MODEL      118
REMARK 921   NORMALIZED FREE ENERGY PREDICTED BY IDOCK:   -5.32 KCAL/MOL
REMARK 922        TOTAL FREE ENERGY PREDICTED BY IDOCK:  -12.36 KCAL/MOL
REMARK 923 INTER-LIGAND FREE ENERGY PREDICTED BY IDOCK:  -10.03 KCAL/MOL
REMARK 924 INTRA-LIGAND FREE ENERGY PREDICTED BY IDOCK:   -2.33 KCAL/MOL
REMARK 927      BINDING AFFINITY PREDICTED BY RF-SCORE:    0.00 PKD
ROOT
HETATM    1  O   UNL     1      -8.479   9.109  67.069  1.00  0.00    -0.122 OA 
HETATM    2  C   UNL     1      -9.803   9.240  66.549  1.00  0.00    -0.263 C  
HETATM    3  H   UNL     1      -8.488   8.699  67.926  1.00  0.00     0.000 HD 
ENDROOT
BRANCH   2   4
HETATM    4  C   UNL     1      -9.788   9.890  65.190  1.00  0.00    -0.348 A  
HETATM    5  C   UNL     1      -8.814   9.623  64.220  1.00  0.00    -0.228 A  
HETATM    6  O   UNL     1      -7.837   8.688  64.417  1.00  0.00    -0.122 OA 
HETATM    7  C   UNL     1      -8.796  10.300  63.004  1.00  0.00    -0.226 A  
HETATM    8  C   UNL     1      -9.768  11.259  62.728  1.00  0.00    -0.289 A  
HETATM    9  H   UNL     1      -7.176   8.507  63.760  1.00  0.00     0.000 HD 
HETATM   10  C   UNL     1     -10.762  11.554  63.671  1.00  0.00    -0.491 A  
HETATM   11  C   UNL     1     -10.751  10.872  64.901  1.00  0.00    -0.240 A  
BRANCH  10  12
HETATM   12  C   UNL     1     -11.768  12.648  63.381  1.00  0.00    -0.498 C  
HETATM   13  O   UNL     1     -13.102  12.129  63.465  1.00  0.00    -0.785 OA 
HETATM   14  H   UNL     1     -13.734  12.815  63.283  1.00  0.00     0.000 HD 
BRANCH  12  15
HETATM   15  C   UNL     1     -11.601  13.810  64.383  1.00  0.00    -0.395 C  
BRANCH  15  16
HETATM   16  N   UNL     1     -12.680  13.813  65.384  1.00  0.00    -0.647 NA 
HETATM   17  H   UNL     1     -13.185  12.927  65.404  1.00  0.00     0.000 HD 
BRANCH  16  18
HETATM   18  C   UNL     1     -12.148  14.167  66.696  1.00  0.00    -0.451 C  
BRANCH  18  19
HETATM   19  C   UNL     1     -11.736  12.907  67.453  1.00  0.00    -0.428 C  
BRANCH  19  20
HETATM   20  C   UNL     1     -10.418  13.144  68.191  1.00  0.00    -0.255 C  
BRANCH  20  21
HETATM   21  C   UNL     1      -9.297  13.489  67.218  1.00  0.00    -0.233 C  
BRANCH  21  22
HETATM   22  C   UNL     1      -8.109  12.548  67.389  1.00  0.00    -0.180 C  
BRANCH  22  23
HETATM   23  C   UNL     1      -6.827  13.336  67.602  1.00  0.00    -0.163 C  
BRANCH  23  24
HETATM   24  O   UNL     1      -7.080  14.378  68.538  1.00  0.00    -0.096 OA 
BRANCH  24  25
HETATM   25  C   UNL     1      -5.863  15.010  68.929  1.00  0.00    -0.090 C  
BRANCH  25  26
HETATM   26  C   UNL     1      -6.161  16.392  69.489  1.00  0.00    -0.188 C  
BRANCH  26  27
HETATM   27  O   UNL     1      -6.635  17.225  68.431  1.00  0.00    -0.164 OA 
BRANCH  27  28
HETATM   28  C   UNL     1      -7.252  18.401  68.935  1.00  0.00    -0.268 C  
BRANCH  28  29
HETATM   29  C   UNL     1      -8.470  18.700  68.103  1.00  0.00    -0.336 A  
HETATM   30  C   UNL     1      -9.645  17.939  68.228  1.00  0.00    -0.312 A  
HETATM   31 CL   UNL     1      -9.755  16.575  69.288  1.00  0.00    -0.231 Cl 
HETATM   32  C   UNL     1     -10.793  18.255  67.488  1.00  0.00    -0.282 A  
HETATM   33  C   UNL     1     -10.780  19.320  66.593  1.00  0.00    -0.504 A  
HETATM   34  C   UNL     1      -9.610  20.052  66.415  1.00  0.00    -0.536 A  
HETATM   35  C   UNL     1      -8.462  19.738  67.153  1.00  0.00    -0.317 A  
HETATM   36 CL   UNL     1      -7.049  20.687  66.836  1.00  0.00    -0.347 Cl 
ENDBRANCH  28  29
ENDBRANCH  27  28
ENDBRANCH  26  27
ENDBRANCH  25  26
ENDBRANCH  24  25
ENDBRANCH  23  24
ENDBRANCH  22  23
ENDBRANCH  21  22
ENDBRANCH  20  21
ENDBRANCH  19  20
ENDBRANCH  18  19
ENDBRANCH  16  18
ENDBRANCH  15  16
ENDBRANCH  12  15
ENDBRANCH  10  12
ENDBRANCH   2   4
TORSDOF 16
ENDMDL
MODEL      119
REMARK 921   NORMALIZED FREE ENERGY PREDICTED BY IDOCK:   -5.31 KCAL/MOL
REMARK 922        TOTAL FREE ENERGY PREDICTED BY IDOCK:  -12.36 KCAL/MOL
REMARK 923 INTER-LIGAND FREE ENERGY PREDICTED BY IDOCK:  -10.35 KCAL/MOL
REMARK 924 INTRA-LIGAND FREE ENERGY PREDICTED BY IDOCK:   -2.00 KCAL/MOL
REMARK 927      BINDING AFFINITY PREDICTED BY RF-SCORE:    0.00 PKD
ROOT
HETATM    1  O   UNL     1     -10.070  10.226  64.277  1.00  0.00    -0.316 OA 
HETATM    2  C   UNL     1      -9.469  11.495  64.016  1.00  0.00    -0.100 C  
HETATM    3  H   UNL     1      -9.436   9.524  64.189  1.00  0.00     0.000 HD 
ENDROOT
BRANCH   2   4
HETATM    4  C   UNL     1     -10.474  12.609  64.156  1.00  0.00    -0.438 A  
HETATM    5  C   UNL     1     -11.765  12.551  63.618  1.00  0.00    -0.515 A  
HETATM    6  O   UNL     1     -12.233  11.435  62.983  1.00  0.00    -0.946 OA 
HETATM    7  C   UNL     1     -12.638  13.631  63.708  1.00  0.00    -0.106 A  
HETATM    8  C   UNL     1     -12.235  14.799  64.352  1.00  0.00    -0.447 A  
HETATM    9  H   UNL     1     -13.109  11.395  62.618  1.00  0.00     0.000 HD 
HETATM   10  C   UNL     1     -10.951  14.897  64.905  1.00  0.00    -0.422 A  
HETATM   11  C   UNL     1     -10.078  13.801  64.787  1.00  0.00    -0.259 A  
BRANCH  10  12
HETATM   12  C   UNL     1     -10.506  16.198  65.540  1.00  0.00    -0.386 C  
HETATM   13  O   UNL     1     -11.035  17.312  64.808  1.00  0.00    -0.950 OA 
HETATM   14  H   UNL     1     -10.757  18.129  65.206  1.00  0.00     0.000 HD 
BRANCH  12  15
HETATM   15  C   UNL     1     -10.982  16.269  67.006  1.00  0.00    -0.086 C  
BRANCH  15  16
HETATM   16  N   UNL     1     -10.709  17.592  67.594  1.00  0.00    -0.345 NA 
HETATM   17  H   UNL     1     -11.373  17.826  68.332  1.00  0.00     0.000 HD 
BRANCH  16  18
HETATM   18  C   UNL     1      -9.328  17.658  68.062  1.00  0.00    -0.274 C  
BRANCH  18  19
HETATM   19  C   UNL     1      -9.033  16.487  68.996  1.00  0.00    -0.225 C  
BRANCH  19  20
HETATM   20  C   UNL     1      -7.539  16.166  68.981  1.00  0.00    -0.213 C  
BRANCH  20  21
HETATM   21  C   UNL     1      -7.300  14.661  68.971  1.00  0.00    -0.134 C  
BRANCH  21  22
HETATM   22  C   UNL     1      -7.748  14.040  67.652  1.00  0.00    -0.188 C  
BRANCH  22  23
HETATM   23  C   UNL     1      -8.813  12.982  67.892  1.00  0.00    -0.193 C  
BRANCH  23  24
HETATM   24  O   UNL     1      -8.443  11.794  67.199  1.00  0.00    -0.156 OA 
BRANCH  24  25
HETATM   25  C   UNL     1      -8.182  10.736  68.119  1.00  0.00    -0.119 C  
BRANCH  25  26
HETATM   26  C   UNL     1      -8.991   9.509  67.731  1.00  0.00    -0.122 C  
BRANCH  26  27
HETATM   27  O   UNL     1     -10.198   9.493  68.495  1.00  0.00    -0.185 OA 
BRANCH  27  28
HETATM   28  C   UNL     1      -9.935   9.656  69.881  1.00  0.00    -0.241 C  
BRANCH  28  29
HETATM   29  C   UNL     1     -11.232   9.535  70.635  1.00  0.00    -0.364 A  
HETATM   30  C   UNL     1     -11.644   8.310  71.186  1.00  0.00    -0.279 A  
HETATM   31 CL   UNL     1     -10.734   6.852  70.982  1.00  0.00    -0.251 Cl 
HETATM   32  C   UNL     1     -12.828   8.214  71.931  1.00  0.00    -0.360 A  
HETATM   33  C   UNL     1     -13.631   9.334  72.118  1.00  0.00    -0.536 A  
HETATM   34  C   UNL     1     -13.268  10.544  71.536  1.00  0.00    -0.470 A  
HETATM   35  C   UNL     1     -12.086  10.642  70.791  1.00  0.00    -0.374 A  
HETATM   36 CL   UNL     1     -11.739  12.182  70.080  1.00  0.00    -0.351 Cl 
ENDBRANCH  28  29
ENDBRANCH  27  28
ENDBRANCH  26  27
ENDBRANCH  25  26
ENDBRANCH  24  25
ENDBRANCH  23  24
ENDBRANCH  22  23
ENDBRANCH  21  22
ENDBRANCH  20  21
ENDBRANCH  19  20
ENDBRANCH  18  19
ENDBRANCH  16  18
ENDBRANCH  15  16
ENDBRANCH  12  15
ENDBRANCH  10  12
ENDBRANCH   2   4
TORSDOF 16
ENDMDL
MODEL      120
REMARK 921   NORMALIZED FREE ENERGY PREDICTED BY IDOCK:   -5.30 KCAL/MOL
REMARK 922        TOTAL FREE ENERGY PREDICTED BY IDOCK:  -12.33 KCAL/MOL
REMARK 923 INTER-LIGAND FREE ENERGY PREDICTED BY IDOCK:   -9.18 KCAL/MOL
REMARK 924 INTRA-LIGAND FREE ENERGY PREDICTED BY IDOCK:   -3.15 KCAL/MOL
REMARK 927      BINDING AFFINITY PREDICTED BY RF-SCORE:    0.00 PKD
ROOT
HETATM    1  O   UNL     1      -8.612   7.842  73.501  1.00  0.00    -0.191 OA 
HETATM    2  C   UNL     1      -8.904   8.573  72.309  1.00  0.00    -0.208 C  
HETATM    3  H   UNL     1      -7.927   8.269  74.003  1.00  0.00     0.000 HD 
ENDROOT
BRANCH   2   4
HETATM    4  C   UNL     1      -9.990   7.896  71.513  1.00  0.00    -0.214 A  
HETATM    5  C   UNL     1     -11.235   7.550  72.050  1.00  0.00    -0.257 A  
HETATM    6  O   UNL     1     -11.583   7.871  73.332  1.00  0.00    -0.566 OA 
HETATM    7  C   UNL     1     -12.183   6.860  71.299  1.00  0.00    -0.427 A  
HETATM    8  C   UNL     1     -11.903   6.509  69.981  1.00  0.00    -0.284 A  
HETATM    9  H   UNL     1     -12.428   7.636  73.697  1.00  0.00     0.000 HD 
HETATM   10  C   UNL     1     -10.669   6.839  69.405  1.00  0.00    -0.291 A  
HETATM   11  C   UNL     1      -9.718   7.520  70.186  1.00  0.00    -0.172 A  
BRANCH  10  12
HETATM   12  C   UNL     1     -10.357   6.389  67.993  1.00  0.00    -0.193 C  
HETATM   13  O   UNL     1     -11.433   6.739  67.112  1.00  0.00    -0.756 OA 
HETATM   14  H   UNL     1     -11.238   6.457  66.226  1.00  0.00     0.000 HD 
BRANCH  12  15
HETATM   15  C   UNL     1      -9.049   7.042  67.498  1.00  0.00    -0.122 C  
BRANCH  15  16
HETATM   16  N   UNL     1      -8.599   6.445  66.229  1.00  0.00    -0.134 NA 
HETATM   17  H   UNL     1      -9.375   6.280  65.588  1.00  0.00     0.000 HD 
BRANCH  16  18
HETATM   18  C   UNL     1      -7.559   7.271  65.626  1.00  0.00    -0.089 C  
BRANCH  18  19
HETATM   19  C   UNL     1      -7.510   8.635  66.309  1.00  0.00    -0.090 C  
BRANCH  19  20
HETATM   20  C   UNL     1      -7.710   9.747  65.279  1.00  0.00    -0.121 C  
BRANCH  20  21
HETATM   21  C   UNL     1      -9.184   9.907  64.923  1.00  0.00    -0.301 C  
BRANCH  21  22
HETATM   22  C   UNL     1      -9.357  10.304  63.461  1.00  0.00    -0.341 C  
BRANCH  22  23
HETATM   23  C   UNL     1     -10.167  11.586  63.346  1.00  0.00    -0.420 C  
BRANCH  23  24
HETATM   24  O   UNL     1     -11.481  11.343  63.835  1.00  0.00    -0.341 OA 
BRANCH  24  25
HETATM   25  C   UNL     1     -12.294  12.507  63.697  1.00  0.00    -0.522 C  
BRANCH  25  26
HETATM   26  C   UNL     1     -12.525  13.136  65.061  1.00  0.00    -0.460 C  
BRANCH  26  27
HETATM   27  O   UNL     1     -12.132  12.205  66.070  1.00  0.00    -0.612 OA 
BRANCH  27  28
HETATM   28  C   UNL     1     -11.738  12.869  67.262  1.00  0.00    -0.373 C  
BRANCH  28  29
HETATM   29  C   UNL     1     -10.323  12.476  67.588  1.00  0.00    -0.222 A  
HETATM   30  C   UNL     1      -9.228  13.187  67.067  1.00  0.00    -0.233 A  
HETATM   31 CL   UNL     1      -9.425  14.512  65.970  1.00  0.00    -0.300 Cl 
HETATM   32  C   UNL     1      -7.913  12.848  67.416  1.00  0.00    -0.178 A  
HETATM   33  C   UNL     1      -7.668  11.779  68.270  1.00  0.00    -0.130 A  
HETATM   34  C   UNL     1      -8.734  11.029  68.754  1.00  0.00    -0.146 A  
HETATM   35  C   UNL     1     -10.049  11.365  68.407  1.00  0.00    -0.201 A  
HETATM   36 CL   UNL     1     -11.304  10.351  69.035  1.00  0.00    -0.287 Cl 
ENDBRANCH  28  29
ENDBRANCH  27  28
ENDBRANCH  26  27
ENDBRANCH  25  26
ENDBRANCH  24  25
ENDBRANCH  23  24
ENDBRANCH  22  23
ENDBRANCH  21  22
ENDBRANCH  20  21
ENDBRANCH  19  20
ENDBRANCH  18  19
ENDBRANCH  16  18
ENDBRANCH  15  16
ENDBRANCH  12  15
ENDBRANCH  10  12
ENDBRANCH   2   4
TORSDOF 16
ENDMDL
MODEL      121
REMARK 921   NORMALIZED FREE ENERGY PREDICTED BY IDOCK:   -5.30 KCAL/MOL
REMARK 922        TOTAL FREE ENERGY PREDICTED BY IDOCK:  -12.33 KCAL/MOL
REMARK 923 INTER-LIGAND FREE ENERGY PREDICTED BY IDOCK:  -10.56 KCAL/MOL
REMARK 924 INTRA-LIGAND FREE ENERGY PREDICTED BY IDOCK:   -1.77 KCAL/MOL
REMARK 927      BINDING AFFINITY PREDICTED BY RF-SCORE:    0.00 PKD
ROOT
HETATM    1  O   UNL     1      -8.835  20.591  66.528  1.00  0.00    -0.545 OA 
HETATM    2  C   UNL     1     -10.164  20.130  66.283  1.00  0.00    -0.422 C  
HETATM    3  H   UNL     1      -8.684  21.433  66.115  1.00  0.00     0.000 HD 
ENDROOT
BRANCH   2   4
HETATM    4  C   UNL     1     -10.403  18.795  66.938  1.00  0.00    -0.456 A  
HETATM    5  C   UNL     1     -10.369  18.600  68.323  1.00  0.00    -0.344 A  
HETATM    6  O   UNL     1     -10.186  19.639  69.193  1.00  0.00    -0.610 OA 
HETATM    7  C   UNL     1     -10.523  17.336  68.884  1.00  0.00    -0.327 A  
HETATM    8  C   UNL     1     -10.726  16.231  68.060  1.00  0.00    -0.331 A  
HETATM    9  H   UNL     1     -10.163  19.508  70.134  1.00  0.00     0.000 HD 
HETATM   10  C   UNL     1     -10.768  16.382  66.667  1.00  0.00    -0.173 A  
HETATM   11  C   UNL     1     -10.592  17.666  66.120  1.00  0.00    -0.220 A  
BRANCH  10  12
HETATM   12  C   UNL     1     -10.920  15.161  65.785  1.00  0.00    -0.349 C  
HETATM   13  O   UNL     1     -10.772  15.524  64.406  1.00  0.00    -0.671 OA 
HETATM   14  H   UNL     1     -10.867  14.758  63.852  1.00  0.00     0.000 HD 
BRANCH  12  15
HETATM   15  C   UNL     1      -9.867  14.096  66.157  1.00  0.00    -0.308 C  
BRANCH  15  16
HETATM   16  N   UNL     1     -10.003  12.892  65.320  1.00  0.00    -0.452 NA 
HETATM   17  H   UNL     1      -9.158  12.706  64.779  1.00  0.00     0.000 HD 
BRANCH  16  18
HETATM   18  C   UNL     1     -10.387  11.750  66.142  1.00  0.00    -0.230 C  
BRANCH  18  19
HETATM   19  C   UNL     1      -9.257  10.724  66.177  1.00  0.00    -0.202 C  
BRANCH  19  20
HETATM   20  C   UNL     1      -9.785   9.346  65.780  1.00  0.00    -0.354 C  
BRANCH  20  21
HETATM   21  C   UNL     1      -9.502   8.315  66.866  1.00  0.00    -0.240 C  
BRANCH  21  22
HETATM   22  C   UNL     1     -10.780   7.926  67.604  1.00  0.00    -0.215 C  
BRANCH  22  23
HETATM   23  C   UNL     1     -10.798   6.434  67.892  1.00  0.00    -0.322 C  
BRANCH  23  24
HETATM   24  O   UNL     1     -11.283   6.228  69.215  1.00  0.00    -0.372 OA 
BRANCH  24  25
HETATM   25  C   UNL     1     -10.299   5.580  70.018  1.00  0.00    -0.288 C  
BRANCH  25  26
HETATM   26  C   UNL     1     -10.249   6.229  71.391  1.00  0.00    -0.201 C  
BRANCH  26  27
HETATM   27  O   UNL     1      -9.312   7.305  71.358  1.00  0.00    -0.150 OA 
BRANCH  27  28
HETATM   28  C   UNL     1      -9.744   8.393  72.162  1.00  0.00    -0.300 C  
BRANCH  28  29
HETATM   29  C   UNL     1     -10.638   9.278  71.336  1.00  0.00    -0.417 A  
HETATM   30  C   UNL     1     -12.019   9.357  71.586  1.00  0.00    -0.393 A  
HETATM   31 CL   UNL     1     -12.794   8.402  72.804  1.00  0.00    -0.180 Cl 
HETATM   32  C   UNL     1     -12.839  10.221  70.847  1.00  0.00    -0.463 A  
HETATM   33  C   UNL     1     -12.299  11.003  69.831  1.00  0.00    -0.356 A  
HETATM   34  C   UNL     1     -10.944  10.900  69.533  1.00  0.00    -0.306 A  
HETATM   35  C   UNL     1     -10.123  10.037  70.269  1.00  0.00    -0.168 A  
HETATM   36 CL   UNL     1      -8.459   9.956  69.800  1.00  0.00    -0.195 Cl 
ENDBRANCH  28  29
ENDBRANCH  27  28
ENDBRANCH  26  27
ENDBRANCH  25  26
ENDBRANCH  24  25
ENDBRANCH  23  24
ENDBRANCH  22  23
ENDBRANCH  21  22
ENDBRANCH  20  21
ENDBRANCH  19  20
ENDBRANCH  18  19
ENDBRANCH  16  18
ENDBRANCH  15  16
ENDBRANCH  12  15
ENDBRANCH  10  12
ENDBRANCH   2   4
TORSDOF 16
ENDMDL
MODEL      122
REMARK 921   NORMALIZED FREE ENERGY PREDICTED BY IDOCK:   -5.30 KCAL/MOL
REMARK 922        TOTAL FREE ENERGY PREDICTED BY IDOCK:  -12.33 KCAL/MOL
REMARK 923 INTER-LIGAND FREE ENERGY PREDICTED BY IDOCK:  -10.71 KCAL/MOL
REMARK 924 INTRA-LIGAND FREE ENERGY PREDICTED BY IDOCK:   -1.62 KCAL/MOL
REMARK 927      BINDING AFFINITY PREDICTED BY RF-SCORE:    0.00 PKD
ROOT
HETATM    1  O   UNL     1      -8.427  11.523  62.510  1.00  0.00    -0.608 OA 
HETATM    2  C   UNL     1      -9.754  11.058  62.763  1.00  0.00    -0.269 C  
HETATM    3  H   UNL     1      -8.174  11.359  61.610  1.00  0.00     0.000 HD 
ENDROOT
BRANCH   2   4
HETATM    4  C   UNL     1     -10.155  11.319  64.191  1.00  0.00    -0.373 A  
HETATM    5  C   UNL     1     -10.086  10.350  65.199  1.00  0.00    -0.308 A  
HETATM    6  O   UNL     1      -9.573   9.104  64.969  1.00  0.00    -0.452 OA 
HETATM    7  C   UNL     1     -10.535  10.612  66.490  1.00  0.00    -0.285 A  
HETATM    8  C   UNL     1     -11.060  11.864  66.803  1.00  0.00    -0.359 A  
HETATM    9  H   UNL     1      -9.526   8.447  65.652  1.00  0.00     0.000 HD 
HETATM   10  C   UNL     1     -11.145  12.863  65.823  1.00  0.00    -0.312 A  
HETATM   11  C   UNL     1     -10.703  12.572  64.520  1.00  0.00    -0.360 A  
BRANCH  10  12
HETATM   12  C   UNL     1     -11.782  14.194  66.164  1.00  0.00    -0.393 C  
HETATM   13  O   UNL     1     -13.211  14.086  66.116  1.00  0.00    -0.415 OA 
HETATM   14  H   UNL     1     -13.610  14.921  66.331  1.00  0.00     0.000 HD 
BRANCH  12  15
HETATM   15  C   UNL     1     -11.343  14.654  67.570  1.00  0.00    -0.348 C  
BRANCH  15  16
HETATM   16  N   UNL     1     -12.460  14.585  68.528  1.00  0.00    -0.548 NA 
HETATM   17  H   UNL     1     -12.897  13.664  68.540  1.00  0.00     0.000 HD 
BRANCH  16  18
HETATM   18  C   UNL     1     -12.009  14.991  69.855  1.00  0.00    -0.334 C  
BRANCH  18  19
HETATM   19  C   UNL     1     -12.538  14.022  70.909  1.00  0.00    -0.431 C  
BRANCH  19  20
HETATM   20  C   UNL     1     -12.245  12.581  70.494  1.00  0.00    -0.382 C  
BRANCH  20  21
HETATM   21  C   UNL     1     -12.855  11.590  71.478  1.00  0.00    -0.485 C  
BRANCH  21  22
HETATM   22  C   UNL     1     -12.394  10.166  71.184  1.00  0.00    -0.488 C  
BRANCH  22  23
HETATM   23  C   UNL     1     -13.449   9.161  71.619  1.00  0.00    -0.391 C  
BRANCH  23  24
HETATM   24  O   UNL     1     -12.853   7.870  71.686  1.00  0.00    -0.321 OA 
BRANCH  24  25
HETATM   25  C   UNL     1     -11.666   7.903  72.475  1.00  0.00    -0.367 C  
BRANCH  25  26
HETATM   26  C   UNL     1     -11.108   6.497  72.621  1.00  0.00    -0.257 C  
BRANCH  26  27
HETATM   27  O   UNL     1     -11.136   5.855  71.346  1.00  0.00    -0.276 OA 
BRANCH  27  28
HETATM   28  C   UNL     1      -9.841   5.798  70.766  1.00  0.00    -0.183 C  
BRANCH  28  29
HETATM   29  C   UNL     1      -9.985   5.599  69.282  1.00  0.00    -0.251 A  
HETATM   30  C   UNL     1      -9.759   4.345  68.688  1.00  0.00    -0.120 A  
HETATM   31 CL   UNL     1      -9.239   2.970  69.601  1.00  0.00    -0.207 Cl 
HETATM   32  C   UNL     1      -9.945   4.153  67.312  1.00  0.00    -0.089 A  
HETATM   33  C   UNL     1     -10.336   5.214  66.502  1.00  0.00    -0.336 A  
HETATM   34  C   UNL     1     -10.512   6.475  67.061  1.00  0.00    -0.364 A  
HETATM   35  C   UNL     1     -10.327   6.670  68.436  1.00  0.00    -0.193 A  
HETATM   36 CL   UNL     1     -10.540   8.282  69.030  1.00  0.00    -0.205 Cl 
ENDBRANCH  28  29
ENDBRANCH  27  28
ENDBRANCH  26  27
ENDBRANCH  25  26
ENDBRANCH  24  25
ENDBRANCH  23  24
ENDBRANCH  22  23
ENDBRANCH  21  22
ENDBRANCH  20  21
ENDBRANCH  19  20
ENDBRANCH  18  19
ENDBRANCH  16  18
ENDBRANCH  15  16
ENDBRANCH  12  15
ENDBRANCH  10  12
ENDBRANCH   2   4
TORSDOF 16
ENDMDL
MODEL      123
REMARK 921   NORMALIZED FREE ENERGY PREDICTED BY IDOCK:   -5.30 KCAL/MOL
REMARK 922        TOTAL FREE ENERGY PREDICTED BY IDOCK:  -12.32 KCAL/MOL
REMARK 923 INTER-LIGAND FREE ENERGY PREDICTED BY IDOCK:  -11.09 KCAL/MOL
REMARK 924 INTRA-LIGAND FREE ENERGY PREDICTED BY IDOCK:   -1.24 KCAL/MOL
REMARK 927      BINDING AFFINITY PREDICTED BY RF-SCORE:    0.00 PKD
ROOT
HETATM    1  O   UNL     1      -8.613  11.613  62.565  1.00  0.00    -0.627 OA 
HETATM    2  C   UNL     1      -9.657  10.738  62.992  1.00  0.00    -0.353 C  
HETATM    3  H   UNL     1      -8.286  11.362  61.709  1.00  0.00     0.000 HD 
ENDROOT
BRANCH   2   4
HETATM    4  C   UNL     1     -10.175  11.136  64.350  1.00  0.00    -0.390 A  
HETATM    5  C   UNL     1     -10.174  10.278  65.455  1.00  0.00    -0.238 A  
HETATM    6  O   UNL     1      -9.628   9.026  65.397  1.00  0.00    -0.447 OA 
HETATM    7  C   UNL     1     -10.727  10.662  66.673  1.00  0.00    -0.246 A  
HETATM    8  C   UNL     1     -11.291  11.928  66.811  1.00  0.00    -0.393 A  
HETATM    9  H   UNL     1      -9.627   8.443  66.147  1.00  0.00     0.000 HD 
HETATM   10  C   UNL     1     -11.311  12.819  65.729  1.00  0.00    -0.357 A  
HETATM   11  C   UNL     1     -10.762  12.404  64.502  1.00  0.00    -0.355 A  
BRANCH  10  12
HETATM   12  C   UNL     1     -11.989  14.165  65.879  1.00  0.00    -0.409 C  
HETATM   13  O   UNL     1     -13.407  13.993  66.007  1.00  0.00    -0.496 OA 
HETATM   14  H   UNL     1     -13.832  14.837  66.101  1.00  0.00     0.000 HD 
BRANCH  12  15
HETATM   15  C   UNL     1     -11.443  14.906  67.117  1.00  0.00    -0.335 C  
BRANCH  15  16
HETATM   16  N   UNL     1     -12.376  14.811  68.252  1.00  0.00    -0.586 NA 
HETATM   17  H   UNL     1     -12.456  13.856  68.602  1.00  0.00     0.000 HD 
BRANCH  16  18
HETATM   18  C   UNL     1     -11.985  15.745  69.303  1.00  0.00    -0.289 C  
BRANCH  18  19
HETATM   19  C   UNL     1     -12.722  15.417  70.599  1.00  0.00    -0.490 C  
BRANCH  19  20
HETATM   20  C   UNL     1     -12.209  14.099  71.177  1.00  0.00    -0.435 C  
BRANCH  20  21
HETATM   21  C   UNL     1     -13.344  13.291  71.796  1.00  0.00    -0.479 C  
BRANCH  21  22
HETATM   22  C   UNL     1     -13.136  11.795  71.582  1.00  0.00    -0.443 C  
BRANCH  22  23
HETATM   23  C   UNL     1     -12.170  11.547  70.435  1.00  0.00    -0.355 C  
BRANCH  23  24
HETATM   24  O   UNL     1     -11.558  10.274  70.618  1.00  0.00    -0.297 OA 
BRANCH  24  25
HETATM   25  C   UNL     1     -12.322   9.472  71.515  1.00  0.00    -0.380 C  
BRANCH  25  26
HETATM   26  C   UNL     1     -11.395   8.559  72.302  1.00  0.00    -0.371 C  
BRANCH  26  27
HETATM   27  O   UNL     1     -10.702   7.709  71.389  1.00  0.00    -0.222 OA 
BRANCH  27  28
HETATM   28  C   UNL     1     -11.499   6.596  71.010  1.00  0.00    -0.330 C  
BRANCH  28  29
HETATM   29  C   UNL     1     -10.624   5.374  70.949  1.00  0.00    -0.283 A  
HETATM   30  C   UNL     1     -10.451   4.542  72.069  1.00  0.00    -0.097 A  
HETATM   31 CL   UNL     1     -11.171   4.896  73.602  1.00  0.00    -0.370 Cl 
HETATM   32  C   UNL     1      -9.676   3.377  71.991  1.00  0.00    -0.234 A  
HETATM   33  C   UNL     1      -9.040   3.035  70.803  1.00  0.00    -0.186 A  
HETATM   34  C   UNL     1      -9.154   3.873  69.698  1.00  0.00    -0.188 A  
HETATM   35  C   UNL     1      -9.929   5.038  69.773  1.00  0.00    -0.249 A  
HETATM   36 CL   UNL     1      -9.982   6.029  68.355  1.00  0.00    -0.157 Cl 
ENDBRANCH  28  29
ENDBRANCH  27  28
ENDBRANCH  26  27
ENDBRANCH  25  26
ENDBRANCH  24  25
ENDBRANCH  23  24
ENDBRANCH  22  23
ENDBRANCH  21  22
ENDBRANCH  20  21
ENDBRANCH  19  20
ENDBRANCH  18  19
ENDBRANCH  16  18
ENDBRANCH  15  16
ENDBRANCH  12  15
ENDBRANCH  10  12
ENDBRANCH   2   4
TORSDOF 16
ENDMDL
MODEL      124
REMARK 921   NORMALIZED FREE ENERGY PREDICTED BY IDOCK:   -5.29 KCAL/MOL
REMARK 922        TOTAL FREE ENERGY PREDICTED BY IDOCK:  -12.31 KCAL/MOL
REMARK 923 INTER-LIGAND FREE ENERGY PREDICTED BY IDOCK:  -10.08 KCAL/MOL
REMARK 924 INTRA-LIGAND FREE ENERGY PREDICTED BY IDOCK:   -2.23 KCAL/MOL
REMARK 927      BINDING AFFINITY PREDICTED BY RF-SCORE:    0.00 PKD
ROOT
HETATM    1  O   UNL     1     -12.507  14.351  63.614  1.00  0.00    -1.066 OA 
HETATM    2  C   UNL     1     -12.870  13.735  64.850  1.00  0.00    -0.195 C  
HETATM    3  H   UNL     1     -13.112  15.049  63.390  1.00  0.00     0.000 HD 
ENDROOT
BRANCH   2   4
HETATM    4  C   UNL     1     -11.910  12.629  65.205  1.00  0.00    -0.437 A  
HETATM    5  C   UNL     1     -11.070  12.012  64.272  1.00  0.00    -0.351 A  
HETATM    6  O   UNL     1     -11.008  12.426  62.970  1.00  0.00    -0.656 OA 
HETATM    7  C   UNL     1     -10.250  10.944  64.627  1.00  0.00    -0.411 A  
HETATM    8  C   UNL     1     -10.250  10.475  65.938  1.00  0.00    -0.311 A  
HETATM    9  H   UNL     1     -10.438  12.007  62.337  1.00  0.00     0.000 HD 
HETATM   10  C   UNL     1     -11.076  11.067  66.904  1.00  0.00    -0.280 A  
HETATM   11  C   UNL     1     -11.910  12.132  66.520  1.00  0.00    -0.322 A  
BRANCH  10  12
HETATM   12  C   UNL     1     -11.113  10.499  68.307  1.00  0.00    -0.284 C  
HETATM   13  O   UNL     1     -11.021   9.068  68.265  1.00  0.00    -0.464 OA 
HETATM   14  H   UNL     1     -11.044   8.711  69.145  1.00  0.00     0.000 HD 
BRANCH  12  15
HETATM   15  C   UNL     1      -9.950  11.067  69.147  1.00  0.00    -0.121 C  
BRANCH  15  16
HETATM   16  N   UNL     1      -8.696  10.339  68.888  1.00  0.00    -0.142 NA 
HETATM   17  H   UNL     1      -8.712   9.860  67.987  1.00  0.00     0.000 HD 
BRANCH  16  18
HETATM   18  C   UNL     1      -7.557  11.243  69.005  1.00  0.00    -0.106 C  
BRANCH  18  19
HETATM   19  C   UNL     1      -7.225  11.849  67.644  1.00  0.00    -0.112 C  
BRANCH  19  20
HETATM   20  C   UNL     1      -7.376  13.369  67.692  1.00  0.00    -0.173 C  
BRANCH  20  21
HETATM   21  C   UNL     1      -8.690  13.811  67.058  1.00  0.00    -0.212 C  
BRANCH  21  22
HETATM   22  C   UNL     1      -9.535  14.613  68.043  1.00  0.00    -0.207 C  
BRANCH  22  23
HETATM   23  C   UNL     1     -10.441  15.585  67.304  1.00  0.00    -0.279 C  
BRANCH  23  24
HETATM   24  O   UNL     1     -10.153  15.511  65.912  1.00  0.00    -0.298 OA 
BRANCH  24  25
HETATM   25  C   UNL     1     -10.633  16.671  65.236  1.00  0.00    -0.205 C  
BRANCH  25  26
HETATM   26  C   UNL     1     -10.442  17.893  66.118  1.00  0.00    -0.321 C  
BRANCH  26  27
HETATM   27  O   UNL     1      -9.141  18.433  65.883  1.00  0.00    -0.488 OA 
BRANCH  27  28
HETATM   28  C   UNL     1      -9.060  19.789  66.299  1.00  0.00    -0.379 C  
BRANCH  28  29
HETATM   29  C   UNL     1      -7.828  19.960  67.146  1.00  0.00    -0.325 A  
HETATM   30  C   UNL     1      -6.603  20.355  66.581  1.00  0.00    -0.233 A  
HETATM   31 CL   UNL     1      -6.408  20.606  64.880  1.00  0.00    -0.319 Cl 
HETATM   32  C   UNL     1      -5.471  20.563  67.382  1.00  0.00    -0.207 A  
HETATM   33  C   UNL     1      -5.537  20.357  68.756  1.00  0.00    -0.319 A  
HETATM   34  C   UNL     1      -6.725  19.914  69.327  1.00  0.00    -0.361 A  
HETATM   35  C   UNL     1      -7.858  19.705  68.529  1.00  0.00    -0.323 A  
HETATM   36 CL   UNL     1      -9.277  19.123  69.329  1.00  0.00    -0.170 Cl 
ENDBRANCH  28  29
ENDBRANCH  27  28
ENDBRANCH  26  27
ENDBRANCH  25  26
ENDBRANCH  24  25
ENDBRANCH  23  24
ENDBRANCH  22  23
ENDBRANCH  21  22
ENDBRANCH  20  21
ENDBRANCH  19  20
ENDBRANCH  18  19
ENDBRANCH  16  18
ENDBRANCH  15  16
ENDBRANCH  12  15
ENDBRANCH  10  12
ENDBRANCH   2   4
TORSDOF 16
ENDMDL
MODEL      125
REMARK 921   NORMALIZED FREE ENERGY PREDICTED BY IDOCK:   -5.29 KCAL/MOL
REMARK 922        TOTAL FREE ENERGY PREDICTED BY IDOCK:  -12.30 KCAL/MOL
REMARK 923 INTER-LIGAND FREE ENERGY PREDICTED BY IDOCK:   -9.96 KCAL/MOL
REMARK 924 INTRA-LIGAND FREE ENERGY PREDICTED BY IDOCK:   -2.34 KCAL/MOL
REMARK 927      BINDING AFFINITY PREDICTED BY RF-SCORE:    0.00 PKD
ROOT
HETATM    1  O   UNL     1      -9.593  12.247  63.598  1.00  0.00    -0.611 OA 
HETATM    2  C   UNL     1     -10.517  12.285  64.687  1.00  0.00    -0.303 C  
HETATM    3  H   UNL     1      -9.899  12.778  62.872  1.00  0.00     0.000 HD 
ENDROOT
BRANCH   2   4
HETATM    4  C   UNL     1     -10.031  11.444  65.838  1.00  0.00    -0.274 A  
HETATM    5  C   UNL     1      -9.040  11.863  66.732  1.00  0.00    -0.197 A  
HETATM    6  O   UNL     1      -8.488  13.111  66.665  1.00  0.00    -0.422 OA 
HETATM    7  C   UNL     1      -8.569  11.025  67.739  1.00  0.00    -0.130 A  
HETATM    8  C   UNL     1      -9.093   9.742  67.877  1.00  0.00    -0.126 A  
HETATM    9  H   UNL     1      -7.815  13.396  67.272  1.00  0.00     0.000 HD 
HETATM   10  C   UNL     1     -10.089   9.284  67.003  1.00  0.00    -0.313 A  
HETATM   11  C   UNL     1     -10.538  10.140  65.981  1.00  0.00    -0.071 A  
BRANCH  10  12
HETATM   12  C   UNL     1     -10.597   7.863  67.126  1.00  0.00    -0.313 C  
HETATM   13  O   UNL     1      -9.963   7.024  66.150  1.00  0.00    -0.425 OA 
HETATM   14  H   UNL     1     -10.282   6.133  66.227  1.00  0.00     0.000 HD 
BRANCH  12  15
HETATM   15  C   UNL     1     -10.318   7.313  68.540  1.00  0.00    -0.189 C  
BRANCH  15  16
HETATM   16  N   UNL     1     -11.439   6.491  69.027  1.00  0.00    -0.615 NA 
HETATM   17  H   UNL     1     -11.387   5.532  68.683  1.00  0.00     0.000 HD 
BRANCH  16  18
HETATM   18  C   UNL     1     -11.507   6.545  70.483  1.00  0.00    -0.387 C  
BRANCH  18  19
HETATM   19  C   UNL     1     -10.839   7.819  70.993  1.00  0.00    -0.253 C  
BRANCH  19  20
HETATM   20  C   UNL     1     -11.866   8.947  71.093  1.00  0.00    -0.353 C  
BRANCH  20  21
HETATM   21  C   UNL     1     -11.260  10.281  70.670  1.00  0.00    -0.406 C  
BRANCH  21  22
HETATM   22  C   UNL     1     -12.153  10.997  69.662  1.00  0.00    -0.411 C  
BRANCH  22  23
HETATM   23  C   UNL     1     -11.994  12.504  69.781  1.00  0.00    -0.289 C  
BRANCH  23  24
HETATM   24  O   UNL     1     -11.925  13.063  68.474  1.00  0.00    -0.323 OA 
BRANCH  24  25
HETATM   25  C   UNL     1     -11.664  14.463  68.537  1.00  0.00    -0.335 C  
BRANCH  25  26
HETATM   26  C   UNL     1     -11.246  14.969  67.166  1.00  0.00    -0.336 C  
BRANCH  26  27
HETATM   27  O   UNL     1     -10.093  15.798  67.313  1.00  0.00    -0.240 OA 
BRANCH  27  28
HETATM   28  C   UNL     1     -10.056  16.412  68.594  1.00  0.00    -0.244 C  
BRANCH  28  29
HETATM   29  C   UNL     1      -8.837  17.289  68.673  1.00  0.00    -0.261 A  
HETATM   30  C   UNL     1      -7.582  16.767  69.035  1.00  0.00    -0.218 A  
HETATM   31 CL   UNL     1      -7.366  15.107  69.476  1.00  0.00    -0.201 Cl 
HETATM   32  C   UNL     1      -6.440  17.579  69.057  1.00  0.00    -0.227 A  
HETATM   33  C   UNL     1      -6.534  18.930  68.742  1.00  0.00    -0.274 A  
HETATM   34  C   UNL     1      -7.774  19.478  68.434  1.00  0.00    -0.372 A  
HETATM   35  C   UNL     1      -8.918  18.669  68.411  1.00  0.00    -0.328 A  
HETATM   36 CL   UNL     1     -10.418  19.452  68.048  1.00  0.00    -0.519 Cl 
ENDBRANCH  28  29
ENDBRANCH  27  28
ENDBRANCH  26  27
ENDBRANCH  25  26
ENDBRANCH  24  25
ENDBRANCH  23  24
ENDBRANCH  22  23
ENDBRANCH  21  22
ENDBRANCH  20  21
ENDBRANCH  19  20
ENDBRANCH  18  19
ENDBRANCH  16  18
ENDBRANCH  15  16
ENDBRANCH  12  15
ENDBRANCH  10  12
ENDBRANCH   2   4
TORSDOF 16
ENDMDL
MODEL      126
REMARK 921   NORMALIZED FREE ENERGY PREDICTED BY IDOCK:   -5.28 KCAL/MOL
REMARK 922        TOTAL FREE ENERGY PREDICTED BY IDOCK:  -12.29 KCAL/MOL
REMARK 923 INTER-LIGAND FREE ENERGY PREDICTED BY IDOCK:  -11.22 KCAL/MOL
REMARK 924 INTRA-LIGAND FREE ENERGY PREDICTED BY IDOCK:   -1.07 KCAL/MOL
REMARK 927      BINDING AFFINITY PREDICTED BY RF-SCORE:    0.00 PKD
ROOT
HETATM    1  O   UNL     1      -9.591   3.627  68.418  1.00  0.00    -0.163 OA 
HETATM    2  C   UNL     1      -9.844   5.029  68.519  1.00  0.00    -0.151 C  
HETATM    3  H   UNL     1      -9.265   3.401  67.555  1.00  0.00     0.000 HD 
ENDROOT
BRANCH   2   4
HETATM    4  C   UNL     1     -10.362   5.387  69.888  1.00  0.00    -0.377 A  
HETATM    5  C   UNL     1      -9.897   4.791  71.066  1.00  0.00    -0.197 A  
HETATM    6  O   UNL     1      -8.875   3.883  71.061  1.00  0.00    -0.079 OA 
HETATM    7  C   UNL     1     -10.453   5.100  72.304  1.00  0.00    -0.277 A  
HETATM    8  C   UNL     1     -11.489   6.026  72.389  1.00  0.00    -0.357 A  
HETATM    9  H   UNL     1      -8.560   3.479  71.860  1.00  0.00     0.000 HD 
HETATM   10  C   UNL     1     -11.983   6.647  71.233  1.00  0.00    -0.409 A  
HETATM   11  C   UNL     1     -11.420   6.307  69.990  1.00  0.00    -0.460 A  
BRANCH  10  12
HETATM   12  C   UNL     1     -13.156   7.599  71.337  1.00  0.00    -0.296 C  
HETATM   13  O   UNL     1     -14.078   7.142  72.337  1.00  0.00    -0.527 OA 
HETATM   14  H   UNL     1     -14.813   7.740  72.402  1.00  0.00     0.000 HD 
BRANCH  12  15
HETATM   15  C   UNL     1     -12.665   9.018  71.695  1.00  0.00    -0.358 C  
BRANCH  15  16
HETATM   16  N   UNL     1     -12.600   9.879  70.503  1.00  0.00    -0.508 NA 
HETATM   17  H   UNL     1     -13.413   9.756  69.898  1.00  0.00     0.000 HD 
BRANCH  16  18
HETATM   18  C   UNL     1     -12.422  11.272  70.898  1.00  0.00    -0.394 C  
BRANCH  18  19
HETATM   19  C   UNL     1     -11.763  12.059  69.769  1.00  0.00    -0.390 C  
BRANCH  19  20
HETATM   20  C   UNL     1     -11.718  11.215  68.495  1.00  0.00    -0.368 C  
BRANCH  20  21
HETATM   21  C   UNL     1     -11.104  11.995  67.339  1.00  0.00    -0.337 C  
BRANCH  21  22
HETATM   22  C   UNL     1     -12.034  13.110  66.871  1.00  0.00    -0.421 C  
BRANCH  22  23
HETATM   23  C   UNL     1     -12.519  12.843  65.455  1.00  0.00    -0.454 C  
BRANCH  23  24
HETATM   24  O   UNL     1     -12.583  14.080  64.752  1.00  0.00    -0.605 OA 
BRANCH  24  25
HETATM   25  C   UNL     1     -11.276  14.614  64.552  1.00  0.00    -0.282 C  
BRANCH  25  26
HETATM   26  C   UNL     1     -11.328  16.131  64.612  1.00  0.00    -0.282 C  
BRANCH  26  27
HETATM   27  O   UNL     1     -10.175  16.604  65.309  1.00  0.00    -0.600 OA 
BRANCH  27  28
HETATM   28  C   UNL     1     -10.460  16.847  66.679  1.00  0.00    -0.257 C  
BRANCH  28  29
HETATM   29  C   UNL     1      -9.484  17.864  67.203  1.00  0.00    -0.263 A  
HETATM   30  C   UNL     1      -8.511  17.520  68.157  1.00  0.00    -0.254 A  
HETATM   31 CL   UNL     1      -8.410  15.934  68.842  1.00  0.00    -0.210 Cl 
HETATM   32  C   UNL     1      -7.571  18.459  68.603  1.00  0.00    -0.321 A  
HETATM   33  C   UNL     1      -7.601  19.764  68.122  1.00  0.00    -0.339 A  
HETATM   34  C   UNL     1      -8.589  20.139  67.218  1.00  0.00    -0.414 A  
HETATM   35  C   UNL     1      -9.529  19.202  66.771  1.00  0.00    -0.330 A  
HETATM   36 CL   UNL     1     -10.737  19.776  65.671  1.00  0.00    -0.537 Cl 
ENDBRANCH  28  29
ENDBRANCH  27  28
ENDBRANCH  26  27
ENDBRANCH  25  26
ENDBRANCH  24  25
ENDBRANCH  23  24
ENDBRANCH  22  23
ENDBRANCH  21  22
ENDBRANCH  20  21
ENDBRANCH  19  20
ENDBRANCH  18  19
ENDBRANCH  16  18
ENDBRANCH  15  16
ENDBRANCH  12  15
ENDBRANCH  10  12
ENDBRANCH   2   4
TORSDOF 16
ENDMDL
MODEL      127
REMARK 921   NORMALIZED FREE ENERGY PREDICTED BY IDOCK:   -5.28 KCAL/MOL
REMARK 922        TOTAL FREE ENERGY PREDICTED BY IDOCK:  -12.29 KCAL/MOL
REMARK 923 INTER-LIGAND FREE ENERGY PREDICTED BY IDOCK:   -9.92 KCAL/MOL
REMARK 924 INTRA-LIGAND FREE ENERGY PREDICTED BY IDOCK:   -2.36 KCAL/MOL
REMARK 927      BINDING AFFINITY PREDICTED BY RF-SCORE:    0.00 PKD
ROOT
HETATM    1  O   UNL     1     -11.502   4.401  65.040  1.00  0.00    -1.090 OA 
HETATM    2  C   UNL     1     -10.199   4.483  65.620  1.00  0.00    -0.253 C  
HETATM    3  H   UNL     1     -11.452   4.174  64.119  1.00  0.00     0.000 HD 
ENDROOT
BRANCH   2   4
HETATM    4  C   UNL     1     -10.280   4.843  67.081  1.00  0.00    -0.211 A  
HETATM    5  C   UNL     1     -10.924   5.991  67.556  1.00  0.00    -0.234 A  
HETATM    6  O   UNL     1     -11.597   6.839  66.721  1.00  0.00    -0.655 OA 
HETATM    7  C   UNL     1     -10.913   6.323  68.908  1.00  0.00    -0.435 A  
HETATM    8  C   UNL     1     -10.257   5.499  69.820  1.00  0.00    -0.336 A  
HETATM    9  H   UNL     1     -12.034   7.617  67.044  1.00  0.00     0.000 HD 
HETATM   10  C   UNL     1      -9.601   4.339  69.385  1.00  0.00    -0.267 A  
HETATM   11  C   UNL     1      -9.609   4.032  68.013  1.00  0.00    -0.195 A  
BRANCH  10  12
HETATM   12  C   UNL     1      -8.836   3.494  70.382  1.00  0.00    -0.082 C  
HETATM   13  O   UNL     1      -7.465   3.913  70.437  1.00  0.00    -0.041 OA 
HETATM   14  H   UNL     1      -6.985   3.383  71.063  1.00  0.00     0.000 HD 
BRANCH  12  15
HETATM   15  C   UNL     1      -9.470   3.611  71.784  1.00  0.00    -0.141 C  
BRANCH  15  16
HETATM   16  N   UNL     1      -8.473   4.008  72.791  1.00  0.00    -0.099 NA 
HETATM   17  H   UNL     1      -7.521   3.955  72.429  1.00  0.00     0.000 HD 
BRANCH  16  18
HETATM   18  C   UNL     1      -8.785   5.336  73.310  1.00  0.00    -0.115 C  
BRANCH  18  19
HETATM   19  C   UNL     1     -10.297   5.534  73.373  1.00  0.00    -0.243 C  
BRANCH  19  20
HETATM   20  C   UNL     1     -10.623   6.964  73.804  1.00  0.00    -0.333 C  
BRANCH  20  21
HETATM   21  C   UNL     1     -10.796   7.876  72.595  1.00  0.00    -0.428 C  
BRANCH  21  22
HETATM   22  C   UNL     1     -12.229   7.836  72.075  1.00  0.00    -0.342 C  
BRANCH  22  23
HETATM   23  C   UNL     1     -12.638   9.195  71.528  1.00  0.00    -0.343 C  
BRANCH  23  24
HETATM   24  O   UNL     1     -11.482  10.020  71.440  1.00  0.00    -0.360 OA 
BRANCH  24  25
HETATM   25  C   UNL     1     -11.308  10.502  70.109  1.00  0.00    -0.323 C  
BRANCH  25  26
HETATM   26  C   UNL     1      -9.939  10.092  69.591  1.00  0.00    -0.236 C  
BRANCH  26  27
HETATM   27  O   UNL     1      -9.766  10.624  68.277  1.00  0.00    -0.152 OA 
BRANCH  27  28
HETATM   28  C   UNL     1     -10.828  10.238  67.417  1.00  0.00    -0.277 C  
BRANCH  28  29
HETATM   29  C   UNL     1     -10.579  10.820  66.052  1.00  0.00    -0.224 A  
HETATM   30  C   UNL     1      -9.812  10.135  65.094  1.00  0.00    -0.325 A  
HETATM   31 CL   UNL     1      -9.049   8.619  65.434  1.00  0.00    -0.196 Cl 
HETATM   32  C   UNL     1      -9.627  10.658  63.807  1.00  0.00    -0.354 A  
HETATM   33  C   UNL     1     -10.183  11.885  63.462  1.00  0.00    -0.485 A  
HETATM   34  C   UNL     1     -10.901  12.604  64.412  1.00  0.00    -0.386 A  
HETATM   35  C   UNL     1     -11.088  12.084  65.699  1.00  0.00    -0.313 A  
HETATM   36 CL   UNL     1     -11.967  13.069  66.817  1.00  0.00    -0.451 Cl 
ENDBRANCH  28  29
ENDBRANCH  27  28
ENDBRANCH  26  27
ENDBRANCH  25  26
ENDBRANCH  24  25
ENDBRANCH  23  24
ENDBRANCH  22  23
ENDBRANCH  21  22
ENDBRANCH  20  21
ENDBRANCH  19  20
ENDBRANCH  18  19
ENDBRANCH  16  18
ENDBRANCH  15  16
ENDBRANCH  12  15
ENDBRANCH  10  12
ENDBRANCH   2   4
TORSDOF 16
ENDMDL
MODEL      128
REMARK 921   NORMALIZED FREE ENERGY PREDICTED BY IDOCK:   -5.28 KCAL/MOL
REMARK 922        TOTAL FREE ENERGY PREDICTED BY IDOCK:  -12.28 KCAL/MOL
REMARK 923 INTER-LIGAND FREE ENERGY PREDICTED BY IDOCK:   -9.71 KCAL/MOL
REMARK 924 INTRA-LIGAND FREE ENERGY PREDICTED BY IDOCK:   -2.57 KCAL/MOL
REMARK 927      BINDING AFFINITY PREDICTED BY RF-SCORE:    0.00 PKD
ROOT
HETATM    1  O   UNL     1     -12.933  15.725  71.008  1.00  0.00    -0.483 OA 
HETATM    2  C   UNL     1     -11.631  15.922  70.456  1.00  0.00    -0.381 C  
HETATM    3  H   UNL     1     -12.949  15.946  71.932  1.00  0.00     0.000 HD 
ENDROOT
BRANCH   2   4
HETATM    4  C   UNL     1     -11.608  15.572  68.990  1.00  0.00    -0.377 A  
HETATM    5  C   UNL     1     -12.035  14.338  68.487  1.00  0.00    -0.317 A  
HETATM    6  O   UNL     1     -12.579  13.379  69.295  1.00  0.00    -0.037 OA 
HETATM    7  C   UNL     1     -11.928  14.029  67.134  1.00  0.00    -0.465 A  
HETATM    8  C   UNL     1     -11.395  14.963  66.248  1.00  0.00    -0.306 A  
HETATM    9  H   UNL     1     -12.869  12.542  68.954  1.00  0.00     0.000 HD 
HETATM   10  C   UNL     1     -10.956  16.211  66.711  1.00  0.00    -0.080 A  
HETATM   11  C   UNL     1     -11.056  16.496  68.085  1.00  0.00    -0.303 A  
BRANCH  10  12
HETATM   12  C   UNL     1     -10.316  17.186  65.745  1.00  0.00    -0.240 C  
HETATM   13  O   UNL     1     -11.087  17.266  64.539  1.00  0.00    -1.082 OA 
HETATM   14  H   UNL     1     -10.686  17.877  63.932  1.00  0.00     0.000 HD 
BRANCH  12  15
HETATM   15  C   UNL     1     -10.210  18.585  66.386  1.00  0.00    -0.420 C  
BRANCH  15  16
HETATM   16  N   UNL     1      -8.871  19.165  66.189  1.00  0.00    -0.448 NA 
HETATM   17  H   UNL     1      -8.684  19.925  66.843  1.00  0.00     0.000 HD 
BRANCH  16  18
HETATM   18  C   UNL     1      -7.855  18.119  66.266  1.00  0.00    -0.245 C  
BRANCH  18  19
HETATM   19  C   UNL     1      -7.489  17.848  67.723  1.00  0.00    -0.206 C  
BRANCH  19  20
HETATM   20  C   UNL     1      -6.717  16.534  67.835  1.00  0.00    -0.154 C  
BRANCH  20  21
HETATM   21  C   UNL     1      -7.610  15.414  68.355  1.00  0.00    -0.116 C  
BRANCH  21  22
HETATM   22  C   UNL     1      -7.900  14.388  67.264  1.00  0.00    -0.188 C  
BRANCH  22  23
HETATM   23  C   UNL     1      -7.389  13.015  67.671  1.00  0.00    -0.147 C  
BRANCH  23  24
HETATM   24  O   UNL     1      -8.232  12.023  67.094  1.00  0.00    -0.168 OA 
BRANCH  24  25
HETATM   25  C   UNL     1      -9.193  11.565  68.042  1.00  0.00    -0.175 C  
BRANCH  25  26
HETATM   26  C   UNL     1     -10.329  10.859  67.320  1.00  0.00    -0.216 C  
BRANCH  26  27
HETATM   27  O   UNL     1     -11.262  10.378  68.288  1.00  0.00    -0.282 OA 
BRANCH  27  28
HETATM   28  C   UNL     1     -10.733  10.462  69.604  1.00  0.00    -0.265 C  
BRANCH  28  29
HETATM   29  C   UNL     1     -11.159   9.242  70.374  1.00  0.00    -0.300 A  
HETATM   30  C   UNL     1     -10.607   7.977  70.104  1.00  0.00    -0.237 A  
HETATM   31 CL   UNL     1      -9.459   7.723  68.835  1.00  0.00    -0.150 Cl 
HETATM   32  C   UNL     1     -10.971   6.854  70.859  1.00  0.00    -0.290 A  
HETATM   33  C   UNL     1     -11.909   6.968  71.880  1.00  0.00    -0.341 A  
HETATM   34  C   UNL     1     -12.506   8.199  72.128  1.00  0.00    -0.364 A  
HETATM   35  C   UNL     1     -12.145   9.324  71.374  1.00  0.00    -0.348 A  
HETATM   36 CL   UNL     1     -12.969  10.802  71.738  1.00  0.00    -0.579 Cl 
ENDBRANCH  28  29
ENDBRANCH  27  28
ENDBRANCH  26  27
ENDBRANCH  25  26
ENDBRANCH  24  25
ENDBRANCH  23  24
ENDBRANCH  22  23
ENDBRANCH  21  22
ENDBRANCH  20  21
ENDBRANCH  19  20
ENDBRANCH  18  19
ENDBRANCH  16  18
ENDBRANCH  15  16
ENDBRANCH  12  15
ENDBRANCH  10  12
ENDBRANCH   2   4
TORSDOF 16
ENDMDL
MODEL      129
REMARK 921   NORMALIZED FREE ENERGY PREDICTED BY IDOCK:   -5.25 KCAL/MOL
REMARK 922        TOTAL FREE ENERGY PREDICTED BY IDOCK:  -12.24 KCAL/MOL
REMARK 923 INTER-LIGAND FREE ENERGY PREDICTED BY IDOCK:   -9.92 KCAL/MOL
REMARK 924 INTRA-LIGAND FREE ENERGY PREDICTED BY IDOCK:   -2.32 KCAL/MOL
REMARK 927      BINDING AFFINITY PREDICTED BY RF-SCORE:    0.00 PKD
ROOT
HETATM    1  O   UNL     1     -11.594  14.304  70.447  1.00  0.00    -0.384 OA 
HETATM    2  C   UNL     1     -12.095  13.595  69.314  1.00  0.00    -0.314 C  
HETATM    3  H   UNL     1     -12.061  14.059  71.237  1.00  0.00     0.000 HD 
ENDROOT
BRANCH   2   4
HETATM    4  C   UNL     1     -11.354  13.984  68.061  1.00  0.00    -0.320 A  
HETATM    5  C   UNL     1      -9.986  14.281  68.038  1.00  0.00    -0.220 A  
HETATM    6  O   UNL     1      -9.204  14.166  69.153  1.00  0.00    -0.395 OA 
HETATM    7  C   UNL     1      -9.355  14.707  66.872  1.00  0.00    -0.258 A  
HETATM    8  C   UNL     1     -10.087  14.836  65.694  1.00  0.00    -0.393 A  
HETATM    9  H   UNL     1      -8.276  14.368  69.137  1.00  0.00     0.000 HD 
HETATM   10  C   UNL     1     -11.458  14.547  65.674  1.00  0.00    -0.341 A  
HETATM   11  C   UNL     1     -12.080  14.136  66.867  1.00  0.00    -0.466 A  
BRANCH  10  12
HETATM   12  C   UNL     1     -12.250  14.760  64.401  1.00  0.00    -0.428 C  
HETATM   13  O   UNL     1     -11.940  16.040  63.833  1.00  0.00    -1.267 OA 
HETATM   14  H   UNL     1     -12.437  16.173  63.034  1.00  0.00     0.000 HD 
BRANCH  12  15
HETATM   15  C   UNL     1     -11.931  13.649  63.378  1.00  0.00    -0.149 C  
BRANCH  15  16
HETATM   16  N   UNL     1     -12.601  12.387  63.732  1.00  0.00    -0.715 NA 
HETATM   17  H   UNL     1     -13.388  12.186  63.114  1.00  0.00     0.000 HD 
BRANCH  16  18
HETATM   18  C   UNL     1     -11.635  11.294  63.757  1.00  0.00     0.136 C  
BRANCH  18  19
HETATM   19  C   UNL     1     -10.223  11.836  63.548  1.00  0.00    -0.483 C  
BRANCH  19  20
HETATM   20  C   UNL     1      -9.302  11.350  64.667  1.00  0.00    -0.102 C  
BRANCH  20  21
HETATM   21  C   UNL     1     -10.087  11.068  65.942  1.00  0.00    -0.301 C  
BRANCH  21  22
HETATM   22  C   UNL     1      -9.434   9.957  66.758  1.00  0.00    -0.212 C  
BRANCH  22  23
HETATM   23  C   UNL     1     -10.446   9.315  67.694  1.00  0.00    -0.264 C  
BRANCH  23  24
HETATM   24  O   UNL     1     -10.853   8.067  67.143  1.00  0.00    -0.278 OA 
BRANCH  24  25
HETATM   25  C   UNL     1      -9.875   7.061  67.395  1.00  0.00    -0.154 C  
BRANCH  25  26
HETATM   26  C   UNL     1     -10.469   5.689  67.124  1.00  0.00    -0.270 C  
BRANCH  26  27
HETATM   27  O   UNL     1     -10.651   5.011  68.367  1.00  0.00    -0.019 OA 
BRANCH  27  28
HETATM   28  C   UNL     1      -9.661   5.389  69.312  1.00  0.00    -0.145 C  
BRANCH  28  29
HETATM   29  C   UNL     1     -10.183   5.109  70.695  1.00  0.00    -0.326 A  
HETATM   30  C   UNL     1      -9.931   3.884  71.337  1.00  0.00    -0.127 A  
HETATM   31 CL   UNL     1      -9.069   2.597  70.566  1.00  0.00    -0.170 Cl 
HETATM   32  C   UNL     1     -10.376   3.649  72.645  1.00  0.00    -0.224 A  
HETATM   33  C   UNL     1     -11.100   4.622  73.326  1.00  0.00    -0.403 A  
HETATM   34  C   UNL     1     -11.406   5.820  72.689  1.00  0.00    -0.349 A  
HETATM   35  C   UNL     1     -10.963   6.058  71.382  1.00  0.00    -0.276 A  
HETATM   36 CL   UNL     1     -11.423   7.565  70.667  1.00  0.00    -0.302 Cl 
ENDBRANCH  28  29
ENDBRANCH  27  28
ENDBRANCH  26  27
ENDBRANCH  25  26
ENDBRANCH  24  25
ENDBRANCH  23  24
ENDBRANCH  22  23
ENDBRANCH  21  22
ENDBRANCH  20  21
ENDBRANCH  19  20
ENDBRANCH  18  19
ENDBRANCH  16  18
ENDBRANCH  15  16
ENDBRANCH  12  15
ENDBRANCH  10  12
ENDBRANCH   2   4
TORSDOF 16
ENDMDL
MODEL      130
REMARK 921   NORMALIZED FREE ENERGY PREDICTED BY IDOCK:   -5.25 KCAL/MOL
REMARK 922        TOTAL FREE ENERGY PREDICTED BY IDOCK:  -12.24 KCAL/MOL
REMARK 923 INTER-LIGAND FREE ENERGY PREDICTED BY IDOCK:   -9.56 KCAL/MOL
REMARK 924 INTRA-LIGAND FREE ENERGY PREDICTED BY IDOCK:   -2.68 KCAL/MOL
REMARK 927      BINDING AFFINITY PREDICTED BY RF-SCORE:    0.00 PKD
ROOT
HETATM    1  O   UNL     1     -11.551   6.632  70.315  1.00  0.00    -0.370 OA 
HETATM    2  C   UNL     1     -10.165   6.859  70.056  1.00  0.00    -0.196 C  
HETATM    3  H   UNL     1     -11.668   6.024  71.035  1.00  0.00     0.000 HD 
ENDROOT
BRANCH   2   4
HETATM    4  C   UNL     1      -9.979   7.824  68.914  1.00  0.00    -0.185 A  
HETATM    5  C   UNL     1     -10.621   7.686  67.678  1.00  0.00    -0.224 A  
HETATM    6  O   UNL     1     -11.530   6.692  67.444  1.00  0.00    -0.747 OA 
HETATM    7  C   UNL     1     -10.366   8.560  66.625  1.00  0.00    -0.303 A  
HETATM    8  C   UNL     1      -9.460   9.605  66.794  1.00  0.00    -0.209 A  
HETATM    9  H   UNL     1     -11.966   6.598  66.606  1.00  0.00     0.000 HD 
HETATM   10  C   UNL     1      -8.797   9.779  68.016  1.00  0.00    -0.119 A  
HETATM   11  C   UNL     1      -9.056   8.875  69.061  1.00  0.00    -0.137 A  
BRANCH  10  12
HETATM   12  C   UNL     1      -7.765  10.879  68.158  1.00  0.00    -0.103 C  
HETATM   13  O   UNL     1      -6.487  10.319  68.488  1.00  0.00    -0.052 OA 
HETATM   14  H   UNL     1      -5.840  11.008  68.577  1.00  0.00     0.000 HD 
BRANCH  12  15
HETATM   15  C   UNL     1      -7.655  11.684  66.846  1.00  0.00    -0.138 C  
BRANCH  15  16
HETATM   16  N   UNL     1      -6.580  12.687  66.922  1.00  0.00    -0.461 NA 
HETATM   17  H   UNL     1      -6.321  13.039  66.001  1.00  0.00     0.000 HD 
BRANCH  16  18
HETATM   18  C   UNL     1      -6.961  13.764  67.830  1.00  0.00    -0.171 C  
BRANCH  18  19
HETATM   19  C   UNL     1      -8.086  14.594  67.217  1.00  0.00    -0.230 C  
BRANCH  19  20
HETATM   20  C   UNL     1      -7.630  16.040  67.026  1.00  0.00    -0.265 C  
BRANCH  20  21
HETATM   21  C   UNL     1      -8.519  16.770  66.027  1.00  0.00    -0.201 C  
BRANCH  21  22
HETATM   22  C   UNL     1      -8.984  18.114  66.580  1.00  0.00    -0.292 C  
BRANCH  22  23
HETATM   23  C   UNL     1     -10.432  18.033  67.037  1.00  0.00    -0.351 C  
BRANCH  23  24
HETATM   24  O   UNL     1     -10.457  17.800  68.441  1.00  0.00    -0.369 OA 
BRANCH  24  25
HETATM   25  C   UNL     1     -11.048  16.535  68.731  1.00  0.00    -0.309 C  
BRANCH  25  26
HETATM   26  C   UNL     1     -10.237  15.824  69.803  1.00  0.00    -0.290 C  
BRANCH  26  27
HETATM   27  O   UNL     1     -11.133  15.159  70.693  1.00  0.00    -0.288 OA 
BRANCH  27  28
HETATM   28  C   UNL     1     -12.259  14.638  70.002  1.00  0.00    -0.333 C  
BRANCH  28  29
HETATM   29  C   UNL     1     -12.384  13.173  70.318  1.00  0.00    -0.319 A  
HETATM   30  C   UNL     1     -13.002  12.730  71.501  1.00  0.00    -0.292 A  
HETATM   31 CL   UNL     1     -13.597  13.829  72.698  1.00  0.00    -0.654 Cl 
HETATM   32  C   UNL     1     -13.161  11.363  71.766  1.00  0.00    -0.523 A  
HETATM   33  C   UNL     1     -12.685  10.415  70.867  1.00  0.00    -0.477 A  
HETATM   34  C   UNL     1     -12.023  10.831  69.716  1.00  0.00    -0.397 A  
HETATM   35  C   UNL     1     -11.863  12.196  69.449  1.00  0.00    -0.309 A  
HETATM   36 CL   UNL     1     -10.997  12.612  68.009  1.00  0.00    -0.248 Cl 
ENDBRANCH  28  29
ENDBRANCH  27  28
ENDBRANCH  26  27
ENDBRANCH  25  26
ENDBRANCH  24  25
ENDBRANCH  23  24
ENDBRANCH  22  23
ENDBRANCH  21  22
ENDBRANCH  20  21
ENDBRANCH  19  20
ENDBRANCH  18  19
ENDBRANCH  16  18
ENDBRANCH  15  16
ENDBRANCH  12  15
ENDBRANCH  10  12
ENDBRANCH   2   4
TORSDOF 16
ENDMDL
MODEL      131
REMARK 921   NORMALIZED FREE ENERGY PREDICTED BY IDOCK:   -5.25 KCAL/MOL
REMARK 922        TOTAL FREE ENERGY PREDICTED BY IDOCK:  -12.22 KCAL/MOL
REMARK 923 INTER-LIGAND FREE ENERGY PREDICTED BY IDOCK:   -9.58 KCAL/MOL
REMARK 924 INTRA-LIGAND FREE ENERGY PREDICTED BY IDOCK:   -2.65 KCAL/MOL
REMARK 927      BINDING AFFINITY PREDICTED BY RF-SCORE:    0.00 PKD
ROOT
HETATM    1  O   UNL     1      -7.839  16.156  66.652  1.00  0.00    -0.240 OA 
HETATM    2  C   UNL     1      -8.986  16.531  65.887  1.00  0.00    -0.130 C  
HETATM    3  H   UNL     1      -7.089  16.695  66.429  1.00  0.00     0.000 HD 
ENDROOT
BRANCH   2   4
HETATM    4  C   UNL     1     -10.175  15.676  66.242  1.00  0.00    -0.312 A  
HETATM    5  C   UNL     1     -10.544  15.379  67.559  1.00  0.00    -0.283 A  
HETATM    6  O   UNL     1      -9.884  15.913  68.631  1.00  0.00    -0.201 OA 
HETATM    7  C   UNL     1     -11.607  14.526  67.841  1.00  0.00    -0.371 A  
HETATM    8  C   UNL     1     -12.334  13.954  66.799  1.00  0.00    -0.370 A  
HETATM    9  H   UNL     1     -10.134  15.712  69.524  1.00  0.00     0.000 HD 
HETATM   10  C   UNL     1     -11.998  14.227  65.465  1.00  0.00    -0.386 A  
HETATM   11  C   UNL     1     -10.909  15.077  65.203  1.00  0.00    -0.422 A  
BRANCH  10  12
HETATM   12  C   UNL     1     -12.756  13.542  64.347  1.00  0.00    -0.062 C  
HETATM   13  O   UNL     1     -12.354  14.075  63.078  1.00  0.00    -1.101 OA 
HETATM   14  H   UNL     1     -12.829  13.645  62.376  1.00  0.00     0.000 HD 
BRANCH  12  15
HETATM   15  C   UNL     1     -12.495  12.021  64.376  1.00  0.00    -0.231 C  
BRANCH  15  16
HETATM   16  N   UNL     1     -11.087  11.713  64.076  1.00  0.00    -0.373 NA 
HETATM   17  H   UNL     1     -10.537  12.557  63.916  1.00  0.00     0.000 HD 
BRANCH  16  18
HETATM   18  C   UNL     1     -10.518  10.884  65.133  1.00  0.00    -0.246 C  
BRANCH  18  19
HETATM   19  C   UNL     1      -9.339  11.601  65.786  1.00  0.00    -0.220 C  
BRANCH  19  20
HETATM   20  C   UNL     1      -9.344  11.354  67.295  1.00  0.00    -0.173 C  
BRANCH  20  21
HETATM   21  C   UNL     1     -10.730  10.946  67.781  1.00  0.00    -0.279 C  
BRANCH  21  22
HETATM   22  C   UNL     1     -10.808  10.967  69.304  1.00  0.00    -0.286 C  
BRANCH  22  23
HETATM   23  C   UNL     1     -12.230  10.702  69.771  1.00  0.00    -0.247 C  
BRANCH  23  24
HETATM   24  O   UNL     1     -12.203  10.363  71.153  1.00  0.00    -0.336 OA 
BRANCH  24  25
HETATM   25  C   UNL     1     -11.448   9.172  71.365  1.00  0.00    -0.350 C  
BRANCH  25  26
HETATM   26  C   UNL     1     -12.389   7.986  71.502  1.00  0.00    -0.308 C  
BRANCH  26  27
HETATM   27  O   UNL     1     -12.027   6.998  70.537  1.00  0.00    -0.325 OA 
BRANCH  27  28
HETATM   28  C   UNL     1     -10.662   7.114  70.164  1.00  0.00    -0.240 C  
BRANCH  28  29
HETATM   29  C   UNL     1     -10.294   5.932  69.309  1.00  0.00    -0.312 A  
HETATM   30  C   UNL     1     -10.339   6.002  67.906  1.00  0.00    -0.206 A  
HETATM   31 CL   UNL     1     -10.880   7.417  67.069  1.00  0.00    -0.402 Cl 
HETATM   32  C   UNL     1      -9.945   4.914  67.114  1.00  0.00    -0.229 A  
HETATM   33  C   UNL     1      -9.524   3.730  67.709  1.00  0.00    -0.231 A  
HETATM   34  C   UNL     1      -9.523   3.621  69.095  1.00  0.00    -0.235 A  
HETATM   35  C   UNL     1      -9.915   4.707  69.889  1.00  0.00    -0.226 A  
HETATM   36 CL   UNL     1      -9.910   4.461  71.602  1.00  0.00    -0.245 Cl 
ENDBRANCH  28  29
ENDBRANCH  27  28
ENDBRANCH  26  27
ENDBRANCH  25  26
ENDBRANCH  24  25
ENDBRANCH  23  24
ENDBRANCH  22  23
ENDBRANCH  21  22
ENDBRANCH  20  21
ENDBRANCH  19  20
ENDBRANCH  18  19
ENDBRANCH  16  18
ENDBRANCH  15  16
ENDBRANCH  12  15
ENDBRANCH  10  12
ENDBRANCH   2   4
TORSDOF 16
ENDMDL
MODEL      132
REMARK 921   NORMALIZED FREE ENERGY PREDICTED BY IDOCK:   -5.23 KCAL/MOL
REMARK 922        TOTAL FREE ENERGY PREDICTED BY IDOCK:  -12.20 KCAL/MOL
REMARK 923 INTER-LIGAND FREE ENERGY PREDICTED BY IDOCK:  -10.02 KCAL/MOL
REMARK 924 INTRA-LIGAND FREE ENERGY PREDICTED BY IDOCK:   -2.18 KCAL/MOL
REMARK 927      BINDING AFFINITY PREDICTED BY RF-SCORE:    0.00 PKD
ROOT
HETATM    1  O   UNL     1     -12.355  13.826  63.391  1.00  0.00    -1.001 OA 
HETATM    2  C   UNL     1     -12.507  13.422  64.752  1.00  0.00    -0.365 C  
HETATM    3  H   UNL     1     -13.011  14.470  63.151  1.00  0.00     0.000 HD 
ENDROOT
BRANCH   2   4
HETATM    4  C   UNL     1     -11.466  12.401  65.132  1.00  0.00    -0.379 A  
HETATM    5  C   UNL     1     -11.071  11.355  64.291  1.00  0.00    -0.285 A  
HETATM    6  O   UNL     1     -11.556  11.229  63.019  1.00  0.00    -0.857 OA 
HETATM    7  C   UNL     1     -10.158  10.392  64.710  1.00  0.00    -0.387 A  
HETATM    8  C   UNL     1      -9.611  10.462  65.989  1.00  0.00    -0.251 A  
HETATM    9  H   UNL     1     -11.288  10.519  62.448  1.00  0.00     0.000 HD 
HETATM   10  C   UNL     1      -9.979  11.495  66.863  1.00  0.00    -0.231 A  
HETATM   11  C   UNL     1     -10.917  12.448  66.426  1.00  0.00    -0.315 A  
BRANCH  10  12
HETATM   12  C   UNL     1      -9.427  11.516  68.272  1.00  0.00    -0.189 C  
HETATM   13  O   UNL     1      -9.375  12.862  68.764  1.00  0.00    -0.406 OA 
HETATM   14  H   UNL     1      -9.029  12.875  69.649  1.00  0.00     0.000 HD 
BRANCH  12  15
HETATM   15  C   UNL     1     -10.306  10.657  69.206  1.00  0.00    -0.218 C  
BRANCH  15  16
HETATM   16  N   UNL     1     -11.280  11.486  69.936  1.00  0.00    -0.478 NA 
HETATM   17  H   UNL     1     -11.437  12.383  69.478  1.00  0.00     0.000 HD 
BRANCH  16  18
HETATM   18  C   UNL     1     -12.523  10.747  70.128  1.00  0.00    -0.285 C  
BRANCH  18  19
HETATM   19  C   UNL     1     -12.978  10.852  71.582  1.00  0.00    -0.569 C  
BRANCH  19  20
HETATM   20  C   UNL     1     -13.316   9.466  72.129  1.00  0.00    -0.545 C  
BRANCH  20  21
HETATM   21  C   UNL     1     -12.165   8.491  71.907  1.00  0.00    -0.411 C  
BRANCH  21  22
HETATM   22  C   UNL     1     -12.654   7.199  71.260  1.00  0.00    -0.421 C  
BRANCH  22  23
HETATM   23  C   UNL     1     -11.479   6.365  70.776  1.00  0.00    -0.353 C  
BRANCH  23  24
HETATM   24  O   UNL     1     -11.624   6.136  69.378  1.00  0.00    -0.372 OA 
BRANCH  24  25
HETATM   25  C   UNL     1     -10.721   6.953  68.637  1.00  0.00    -0.216 C  
BRANCH  25  26
HETATM   26  C   UNL     1     -10.923   6.722  67.149  1.00  0.00    -0.388 C  
BRANCH  26  27
HETATM   27  O   UNL     1     -10.481   5.404  66.824  1.00  0.00    -0.244 OA 
BRANCH  27  28
HETATM   28  C   UNL     1      -9.064   5.312  66.847  1.00  0.00    -0.113 C  
BRANCH  28  29
HETATM   29  C   UNL     1      -8.517   5.980  65.615  1.00  0.00    -0.151 A  
HETATM   30  C   UNL     1      -8.720   5.432  64.336  1.00  0.00    -0.001 A  
HETATM   31 CL   UNL     1      -9.547   3.931  64.094  1.00  0.00    -0.156 Cl 
HETATM   32  C   UNL     1      -8.253   6.085  63.187  1.00  0.00    -0.043 A  
HETATM   33  C   UNL     1      -7.554   7.283  63.296  1.00  0.00    -0.113 A  
HETATM   34  C   UNL     1      -7.296   7.814  64.556  1.00  0.00    -0.089 A  
HETATM   35  C   UNL     1      -7.762   7.163  65.705  1.00  0.00    -0.099 A  
HETATM   36 CL   UNL     1      -7.361   7.887  67.226  1.00  0.00    -0.090 Cl 
ENDBRANCH  28  29
ENDBRANCH  27  28
ENDBRANCH  26  27
ENDBRANCH  25  26
ENDBRANCH  24  25
ENDBRANCH  23  24
ENDBRANCH  22  23
ENDBRANCH  21  22
ENDBRANCH  20  21
ENDBRANCH  19  20
ENDBRANCH  18  19
ENDBRANCH  16  18
ENDBRANCH  15  16
ENDBRANCH  12  15
ENDBRANCH  10  12
ENDBRANCH   2   4
TORSDOF 16
ENDMDL
MODEL      133
REMARK 921   NORMALIZED FREE ENERGY PREDICTED BY IDOCK:   -5.22 KCAL/MOL
REMARK 922        TOTAL FREE ENERGY PREDICTED BY IDOCK:  -12.17 KCAL/MOL
REMARK 923 INTER-LIGAND FREE ENERGY PREDICTED BY IDOCK:   -9.39 KCAL/MOL
REMARK 924 INTRA-LIGAND FREE ENERGY PREDICTED BY IDOCK:   -2.78 KCAL/MOL
REMARK 927      BINDING AFFINITY PREDICTED BY RF-SCORE:    0.00 PKD
ROOT
HETATM    1  O   UNL     1     -13.394  15.276  70.594  1.00  0.00    -0.665 OA 
HETATM    2  C   UNL     1     -12.133  15.776  70.149  1.00  0.00    -0.333 C  
HETATM    3  H   UNL     1     -13.594  15.585  71.470  1.00  0.00     0.000 HD 
ENDROOT
BRANCH   2   4
HETATM    4  C   UNL     1     -11.816  15.286  68.760  1.00  0.00    -0.332 A  
HETATM    5  C   UNL     1     -11.896  13.941  68.382  1.00  0.00    -0.374 A  
HETATM    6  O   UNL     1     -12.343  12.976  69.240  1.00  0.00    -0.154 OA 
HETATM    7  C   UNL     1     -11.525  13.522  67.107  1.00  0.00    -0.368 A  
HETATM    8  C   UNL     1     -11.071  14.452  66.175  1.00  0.00    -0.330 A  
HETATM    9  H   UNL     1     -12.398  12.063  68.983  1.00  0.00     0.000 HD 
HETATM   10  C   UNL     1     -10.978  15.809  66.513  1.00  0.00    -0.165 A  
HETATM   11  C   UNL     1     -11.340  16.209  67.812  1.00  0.00    -0.126 A  
BRANCH  10  12
HETATM   12  C   UNL     1     -10.417  16.794  65.509  1.00  0.00    -0.237 C  
HETATM   13  O   UNL     1     -11.261  16.855  64.351  1.00  0.00    -1.192 OA 
HETATM   14  H   UNL     1     -10.909  17.474  63.721  1.00  0.00     0.000 HD 
BRANCH  12  15
HETATM   15  C   UNL     1     -10.302  18.197  66.140  1.00  0.00    -0.385 C  
BRANCH  15  16
HETATM   16  N   UNL     1      -8.939  18.737  66.003  1.00  0.00    -0.471 NA 
HETATM   17  H   UNL     1      -8.825  19.619  66.502  1.00  0.00     0.000 HD 
BRANCH  16  18
HETATM   18  C   UNL     1      -7.959  17.741  66.426  1.00  0.00    -0.271 C  
BRANCH  18  19
HETATM   19  C   UNL     1      -7.802  17.772  67.944  1.00  0.00    -0.231 C  
BRANCH  19  20
HETATM   20  C   UNL     1      -7.171  16.469  68.434  1.00  0.00    -0.169 C  
BRANCH  20  21
HETATM   21  C   UNL     1      -8.139  15.686  69.314  1.00  0.00    -0.244 C  
BRANCH  21  22
HETATM   22  C   UNL     1      -8.277  14.245  68.834  1.00  0.00    -0.053 C  
BRANCH  22  23
HETATM   23  C   UNL     1      -7.576  14.055  67.499  1.00  0.00    -0.180 C  
BRANCH  23  24
HETATM   24  O   UNL     1      -7.192  12.690  67.373  1.00  0.00    -0.141 OA 
BRANCH  24  25
HETATM   25  C   UNL     1      -8.270  11.908  66.861  1.00  0.00    -0.157 C  
BRANCH  25  26
HETATM   26  C   UNL     1      -8.112  10.464  67.307  1.00  0.00    -0.114 C  
BRANCH  26  27
HETATM   27  O   UNL     1      -8.843  10.273  68.519  1.00  0.00    -0.118 OA 
BRANCH  27  28
HETATM   28  C   UNL     1     -10.214  10.008  68.261  1.00  0.00    -0.173 C  
BRANCH  28  29
HETATM   29  C   UNL     1     -10.585   8.705  68.915  1.00  0.00    -0.166 A  
HETATM   30  C   UNL     1     -11.080   8.663  70.230  1.00  0.00    -0.217 A  
HETATM   31 CL   UNL     1     -11.235  10.084  71.205  1.00  0.00    -0.399 Cl 
HETATM   32  C   UNL     1     -11.473   7.452  70.816  1.00  0.00    -0.313 A  
HETATM   33  C   UNL     1     -11.354   6.260  70.109  1.00  0.00    -0.476 A  
HETATM   34  C   UNL     1     -10.816   6.273  68.827  1.00  0.00    -0.398 A  
HETATM   35  C   UNL     1     -10.423   7.482  68.239  1.00  0.00    -0.180 A  
HETATM   36 CL   UNL     1      -9.736   7.389  66.653  1.00  0.00    -0.264 Cl 
ENDBRANCH  28  29
ENDBRANCH  27  28
ENDBRANCH  26  27
ENDBRANCH  25  26
ENDBRANCH  24  25
ENDBRANCH  23  24
ENDBRANCH  22  23
ENDBRANCH  21  22
ENDBRANCH  20  21
ENDBRANCH  19  20
ENDBRANCH  18  19
ENDBRANCH  16  18
ENDBRANCH  15  16
ENDBRANCH  12  15
ENDBRANCH  10  12
ENDBRANCH   2   4
TORSDOF 16
ENDMDL
MODEL      134
REMARK 921   NORMALIZED FREE ENERGY PREDICTED BY IDOCK:   -5.21 KCAL/MOL
REMARK 922        TOTAL FREE ENERGY PREDICTED BY IDOCK:  -12.15 KCAL/MOL
REMARK 923 INTER-LIGAND FREE ENERGY PREDICTED BY IDOCK:   -9.31 KCAL/MOL
REMARK 924 INTRA-LIGAND FREE ENERGY PREDICTED BY IDOCK:   -2.84 KCAL/MOL
REMARK 927      BINDING AFFINITY PREDICTED BY RF-SCORE:    0.00 PKD
ROOT
HETATM    1  O   UNL     1     -11.836  10.031  71.470  1.00  0.00    -0.377 OA 
HETATM    2  C   UNL     1     -12.428  10.742  70.382  1.00  0.00    -0.347 C  
HETATM    3  H   UNL     1     -11.882   9.093  71.329  1.00  0.00     0.000 HD 
ENDROOT
BRANCH   2   4
HETATM    4  C   UNL     1     -12.354  12.230  70.606  1.00  0.00    -0.375 A  
HETATM    5  C   UNL     1     -12.934  12.873  71.706  1.00  0.00    -0.315 A  
HETATM    6  O   UNL     1     -13.553  12.175  72.705  1.00  0.00    -0.576 OA 
HETATM    7  C   UNL     1     -12.904  14.258  71.836  1.00  0.00    -0.429 A  
HETATM    8  C   UNL     1     -12.279  15.035  70.863  1.00  0.00    -0.386 A  
HETATM    9  H   UNL     1     -13.947  12.611  73.451  1.00  0.00     0.000 HD 
HETATM   10  C   UNL     1     -11.685  14.430  69.746  1.00  0.00    -0.361 A  
HETATM   11  C   UNL     1     -11.742  13.030  69.625  1.00  0.00    -0.364 A  
BRANCH  10  12
HETATM   12  C   UNL     1     -11.071  15.295  68.665  1.00  0.00    -0.279 C  
HETATM   13  O   UNL     1     -12.032  15.550  67.631  1.00  0.00    -0.237 OA 
HETATM   14  H   UNL     1     -11.647  16.093  66.953  1.00  0.00     0.000 HD 
BRANCH  12  15
HETATM   15  C   UNL     1     -10.583  16.632  69.260  1.00  0.00    -0.343 C  
BRANCH  15  16
HETATM   16  N   UNL     1      -9.977  17.489  68.227  1.00  0.00    -0.310 NA 
HETATM   17  H   UNL     1     -10.435  17.378  67.322  1.00  0.00     0.000 HD 
BRANCH  16  18
HETATM   18  C   UNL     1      -9.971  18.880  68.667  1.00  0.00    -0.412 C  
BRANCH  18  19
HETATM   19  C   UNL     1     -10.085  19.812  67.464  1.00  0.00    -0.554 C  
BRANCH  19  20
HETATM   20  C   UNL     1      -8.884  19.624  66.537  1.00  0.00    -0.410 C  
BRANCH  20  21
HETATM   21  C   UNL     1      -7.576  19.906  67.267  1.00  0.00    -0.306 C  
BRANCH  21  22
HETATM   22  C   UNL     1      -6.459  18.996  66.768  1.00  0.00    -0.198 C  
BRANCH  22  23
HETATM   23  C   UNL     1      -5.952  18.105  67.890  1.00  0.00    -0.163 C  
BRANCH  23  24
HETATM   24  O   UNL     1      -6.927  17.102  68.155  1.00  0.00    -0.169 OA 
BRANCH  24  25
HETATM   25  C   UNL     1      -6.400  15.804  67.891  1.00  0.00    -0.143 C  
BRANCH  25  26
HETATM   26  C   UNL     1      -6.811  14.849  69.000  1.00  0.00    -0.115 C  
BRANCH  26  27
HETATM   27  O   UNL     1      -8.008  14.176  68.609  1.00  0.00    -0.138 OA 
BRANCH  27  28
HETATM   28  C   UNL     1      -7.915  13.685  67.279  1.00  0.00    -0.114 C  
BRANCH  28  29
HETATM   29  C   UNL     1      -8.971  12.632  67.080  1.00  0.00    -0.216 A  
HETATM   30  C   UNL     1      -8.928  11.413  67.779  1.00  0.00    -0.147 A  
HETATM   31 CL   UNL     1      -7.636  11.012  68.858  1.00  0.00    -0.126 Cl 
HETATM   32  C   UNL     1      -9.942  10.457  67.628  1.00  0.00    -0.205 A  
HETATM   33  C   UNL     1     -11.002  10.690  66.758  1.00  0.00    -0.182 A  
HETATM   34  C   UNL     1     -11.035  11.866  66.016  1.00  0.00    -0.355 A  
HETATM   35  C   UNL     1     -10.023  12.823  66.166  1.00  0.00    -0.266 A  
HETATM   36 CL   UNL     1     -10.137  14.238  65.175  1.00  0.00    -0.393 Cl 
ENDBRANCH  28  29
ENDBRANCH  27  28
ENDBRANCH  26  27
ENDBRANCH  25  26
ENDBRANCH  24  25
ENDBRANCH  23  24
ENDBRANCH  22  23
ENDBRANCH  21  22
ENDBRANCH  20  21
ENDBRANCH  19  20
ENDBRANCH  18  19
ENDBRANCH  16  18
ENDBRANCH  15  16
ENDBRANCH  12  15
ENDBRANCH  10  12
ENDBRANCH   2   4
TORSDOF 16
ENDMDL
MODEL      135
REMARK 921   NORMALIZED FREE ENERGY PREDICTED BY IDOCK:   -5.19 KCAL/MOL
REMARK 922        TOTAL FREE ENERGY PREDICTED BY IDOCK:  -12.12 KCAL/MOL
REMARK 923 INTER-LIGAND FREE ENERGY PREDICTED BY IDOCK:   -9.85 KCAL/MOL
REMARK 924 INTRA-LIGAND FREE ENERGY PREDICTED BY IDOCK:   -2.27 KCAL/MOL
REMARK 927      BINDING AFFINITY PREDICTED BY RF-SCORE:    0.00 PKD
ROOT
HETATM    1  O   UNL     1     -12.933  15.220  69.837  1.00  0.00    -0.625 OA 
HETATM    2  C   UNL     1     -12.223  14.137  69.236  1.00  0.00    -0.269 C  
HETATM    3  H   UNL     1     -13.292  14.967  70.680  1.00  0.00     0.000 HD 
ENDROOT
BRANCH   2   4
HETATM    4  C   UNL     1     -11.654  14.538  67.900  1.00  0.00    -0.371 A  
HETATM    5  C   UNL     1     -10.919  15.713  67.699  1.00  0.00    -0.315 A  
HETATM    6  O   UNL     1     -10.602  16.552  68.730  1.00  0.00    -0.280 OA 
HETATM    7  C   UNL     1     -10.473  16.082  66.433  1.00  0.00    -0.313 A  
HETATM    8  C   UNL     1     -10.749  15.270  65.335  1.00  0.00    -0.407 A  
HETATM    9  H   UNL     1     -10.104  17.348  68.594  1.00  0.00     0.000 HD 
HETATM   10  C   UNL     1     -11.479  14.085  65.494  1.00  0.00    -0.318 A  
HETATM   11  C   UNL     1     -11.937  13.739  66.778  1.00  0.00    -0.465 A  
BRANCH  10  12
HETATM   12  C   UNL     1     -11.828  13.251  64.279  1.00  0.00    -0.417 C  
HETATM   13  O   UNL     1     -12.410  14.078  63.261  1.00  0.00    -1.133 OA 
HETATM   14  H   UNL     1     -12.628  13.555  62.499  1.00  0.00     0.000 HD 
BRANCH  12  15
HETATM   15  C   UNL     1     -10.565  12.558  63.724  1.00  0.00    -0.436 C  
BRANCH  15  16
HETATM   16  N   UNL     1     -10.435  11.187  64.244  1.00  0.00    -0.344 NA 
HETATM   17  H   UNL     1     -10.211  10.518  63.506  1.00  0.00     0.000 HD 
BRANCH  16  18
HETATM   18  C   UNL     1      -9.458  11.151  65.327  1.00  0.00    -0.226 C  
BRANCH  18  19
HETATM   19  C   UNL     1      -9.861  10.107  66.364  1.00  0.00    -0.279 C  
BRANCH  19  20
HETATM   20  C   UNL     1     -10.389  10.793  67.624  1.00  0.00    -0.236 C  
BRANCH  20  21
HETATM   21  C   UNL     1     -10.746   9.773  68.698  1.00  0.00    -0.247 C  
BRANCH  21  22
HETATM   22  C   UNL     1     -11.331  10.452  69.932  1.00  0.00    -0.370 C  
BRANCH  22  23
HETATM   23  C   UNL     1     -10.816   9.793  71.201  1.00  0.00    -0.263 C  
BRANCH  23  24
HETATM   24  O   UNL     1      -9.642   9.050  70.888  1.00  0.00    -0.216 OA 
BRANCH  24  25
HETATM   25  C   UNL     1      -8.967   8.649  72.078  1.00  0.00    -0.216 C  
BRANCH  25  26
HETATM   26  C   UNL     1      -9.525   7.319  72.559  1.00  0.00    -0.147 C  
BRANCH  26  27
HETATM   27  O   UNL     1      -8.838   6.262  71.889  1.00  0.00    -0.139 OA 
BRANCH  27  28
HETATM   28  C   UNL     1      -9.748   5.332  71.319  1.00  0.00    -0.166 C  
BRANCH  28  29
HETATM   29  C   UNL     1      -9.916   5.654  69.859  1.00  0.00    -0.268 A  
HETATM   30  C   UNL     1      -8.896   5.385  68.929  1.00  0.00    -0.100 A  
HETATM   31 CL   UNL     1      -7.364   4.733  69.402  1.00  0.00    -0.052 Cl 
HETATM   32  C   UNL     1      -9.078   5.639  67.563  1.00  0.00    -0.106 A  
HETATM   33  C   UNL     1     -10.271   6.189  67.105  1.00  0.00    -0.246 A  
HETATM   34  C   UNL     1     -11.272   6.512  68.015  1.00  0.00    -0.251 A  
HETATM   35  C   UNL     1     -11.092   6.259  69.381  1.00  0.00    -0.410 A  
HETATM   36 CL   UNL     1     -12.383   6.727  70.435  1.00  0.00    -0.226 Cl 
ENDBRANCH  28  29
ENDBRANCH  27  28
ENDBRANCH  26  27
ENDBRANCH  25  26
ENDBRANCH  24  25
ENDBRANCH  23  24
ENDBRANCH  22  23
ENDBRANCH  21  22
ENDBRANCH  20  21
ENDBRANCH  19  20
ENDBRANCH  18  19
ENDBRANCH  16  18
ENDBRANCH  15  16
ENDBRANCH  12  15
ENDBRANCH  10  12
ENDBRANCH   2   4
TORSDOF 16
ENDMDL
MODEL      136
REMARK 921   NORMALIZED FREE ENERGY PREDICTED BY IDOCK:   -5.19 KCAL/MOL
REMARK 922        TOTAL FREE ENERGY PREDICTED BY IDOCK:  -12.12 KCAL/MOL
REMARK 923 INTER-LIGAND FREE ENERGY PREDICTED BY IDOCK:   -9.36 KCAL/MOL
REMARK 924 INTRA-LIGAND FREE ENERGY PREDICTED BY IDOCK:   -2.76 KCAL/MOL
REMARK 927      BINDING AFFINITY PREDICTED BY RF-SCORE:    0.00 PKD
ROOT
HETATM    1  O   UNL     1      -7.164   9.990  68.339  1.00  0.00    -0.072 OA 
HETATM    2  C   UNL     1      -8.251  10.625  69.013  1.00  0.00    -0.151 C  
HETATM    3  H   UNL     1      -6.882  10.500  67.589  1.00  0.00     0.000 HD 
ENDROOT
BRANCH   2   4
HETATM    4  C   UNL     1      -8.696   9.815  70.203  1.00  0.00    -0.215 A  
HETATM    5  C   UNL     1      -7.808   9.163  71.066  1.00  0.00    -0.116 A  
HETATM    6  O   UNL     1      -6.453   9.278  70.928  1.00  0.00    -0.065 OA 
HETATM    7  C   UNL     1      -8.265   8.366  72.111  1.00  0.00    -0.207 A  
HETATM    8  C   UNL     1      -9.634   8.212  72.320  1.00  0.00    -0.319 A  
HETATM    9  H   UNL     1      -5.850   8.836  71.514  1.00  0.00     0.000 HD 
HETATM   10  C   UNL     1     -10.557   8.849  71.480  1.00  0.00    -0.399 A  
HETATM   11  C   UNL     1     -10.074   9.635  70.418  1.00  0.00    -0.336 A  
BRANCH  10  12
HETATM   12  C   UNL     1     -12.039   8.614  71.681  1.00  0.00    -0.326 C  
HETATM   13  O   UNL     1     -12.796   9.415  70.763  1.00  0.00    -0.515 OA 
HETATM   14  H   UNL     1     -13.726   9.267  70.888  1.00  0.00     0.000 HD 
BRANCH  12  15
HETATM   15  C   UNL     1     -12.379   7.123  71.470  1.00  0.00    -0.370 C  
BRANCH  15  16
HETATM   16  N   UNL     1     -12.202   6.727  70.063  1.00  0.00    -0.589 NA 
HETATM   17  H   UNL     1     -12.072   7.534  69.453  1.00  0.00     0.000 HD 
BRANCH  16  18
HETATM   18  C   UNL     1     -11.106   5.772  69.945  1.00  0.00    -0.257 C  
BRANCH  18  19
HETATM   19  C   UNL     1     -10.113   6.239  68.884  1.00  0.00    -0.200 C  
BRANCH  19  20
HETATM   20  C   UNL     1     -10.842   6.528  67.572  1.00  0.00    -0.433 C  
BRANCH  20  21
HETATM   21  C   UNL     1     -10.614   7.966  67.121  1.00  0.00    -0.383 C  
BRANCH  21  22
HETATM   22  C   UNL     1      -9.295   8.105  66.369  1.00  0.00    -0.269 C  
BRANCH  22  23
HETATM   23  C   UNL     1      -9.400   9.179  65.297  1.00  0.00    -0.156 C  
BRANCH  23  24
HETATM   24  O   UNL     1      -8.782  10.368  65.778  1.00  0.00    -0.155 OA 
BRANCH  24  25
HETATM   25  C   UNL     1      -9.552  11.515  65.423  1.00  0.00    -0.224 C  
BRANCH  25  26
HETATM   26  C   UNL     1     -10.897  11.467  66.128  1.00  0.00    -0.278 C  
BRANCH  26  27
HETATM   27  O   UNL     1     -10.851  12.328  67.267  1.00  0.00    -0.231 OA 
BRANCH  27  28
HETATM   28  C   UNL     1     -11.941  13.238  67.273  1.00  0.00    -0.343 C  
BRANCH  28  29
HETATM   29  C   UNL     1     -11.485  14.533  67.888  1.00  0.00    -0.348 A  
HETATM   30  C   UNL     1     -11.612  14.771  69.268  1.00  0.00    -0.303 A  
HETATM   31 CL   UNL     1     -12.356  13.631  70.337  1.00  0.00    -0.421 Cl 
HETATM   32  C   UNL     1     -11.139  15.958  69.843  1.00  0.00    -0.343 A  
HETATM   33  C   UNL     1     -10.553  16.938  69.049  1.00  0.00    -0.338 A  
HETATM   34  C   UNL     1     -10.466  16.745  67.674  1.00  0.00    -0.328 A  
HETATM   35  C   UNL     1     -10.939  15.559  67.096  1.00  0.00    -0.295 A  
HETATM   36 CL   UNL     1     -10.815  15.429  65.375  1.00  0.00    -0.378 Cl 
ENDBRANCH  28  29
ENDBRANCH  27  28
ENDBRANCH  26  27
ENDBRANCH  25  26
ENDBRANCH  24  25
ENDBRANCH  23  24
ENDBRANCH  22  23
ENDBRANCH  21  22
ENDBRANCH  20  21
ENDBRANCH  19  20
ENDBRANCH  18  19
ENDBRANCH  16  18
ENDBRANCH  15  16
ENDBRANCH  12  15
ENDBRANCH  10  12
ENDBRANCH   2   4
TORSDOF 16
ENDMDL
MODEL      137
REMARK 921   NORMALIZED FREE ENERGY PREDICTED BY IDOCK:   -5.18 KCAL/MOL
REMARK 922        TOTAL FREE ENERGY PREDICTED BY IDOCK:  -12.10 KCAL/MOL
REMARK 923 INTER-LIGAND FREE ENERGY PREDICTED BY IDOCK:  -10.12 KCAL/MOL
REMARK 924 INTRA-LIGAND FREE ENERGY PREDICTED BY IDOCK:   -1.98 KCAL/MOL
REMARK 927      BINDING AFFINITY PREDICTED BY RF-SCORE:    0.00 PKD
ROOT
HETATM    1  O   UNL     1      -8.698  13.449  68.633  1.00  0.00    -0.333 OA 
HETATM    2  C   UNL     1      -9.162  14.726  69.071  1.00  0.00    -0.145 C  
HETATM    3  H   UNL     1      -9.417  12.833  68.553  1.00  0.00     0.000 HD 
ENDROOT
BRANCH   2   4
HETATM    4  C   UNL     1      -8.020  15.702  69.197  1.00  0.00    -0.227 A  
HETATM    5  C   UNL     1      -6.799  15.383  69.803  1.00  0.00    -0.162 A  
HETATM    6  O   UNL     1      -6.529  14.124  70.263  1.00  0.00    -0.305 OA 
HETATM    7  C   UNL     1      -5.797  16.336  69.963  1.00  0.00    -0.185 A  
HETATM    8  C   UNL     1      -5.997  17.637  69.508  1.00  0.00    -0.243 A  
HETATM    9  H   UNL     1      -5.701  13.908  70.674  1.00  0.00     0.000 HD 
HETATM   10  C   UNL     1      -7.205  17.997  68.894  1.00  0.00    -0.264 A  
HETATM   11  C   UNL     1      -8.211  17.024  68.758  1.00  0.00    -0.245 A  
BRANCH  10  12
HETATM   12  C   UNL     1      -7.429  19.433  68.468  1.00  0.00    -0.331 C  
HETATM   13  O   UNL     1      -6.397  20.274  69.001  1.00  0.00    -0.315 OA 
HETATM   14  H   UNL     1      -6.538  21.175  68.733  1.00  0.00     0.000 HD 
BRANCH  12  15
HETATM   15  C   UNL     1      -7.441  19.539  66.928  1.00  0.00    -0.231 C  
BRANCH  15  16
HETATM   16  N   UNL     1      -8.573  20.356  66.457  1.00  0.00    -0.544 NA 
HETATM   17  H   UNL     1      -8.612  20.402  65.439  1.00  0.00     0.000 HD 
BRANCH  16  18
HETATM   18  C   UNL     1      -9.821  19.862  67.028  1.00  0.00    -0.411 C  
BRANCH  18  19
HETATM   19  C   UNL     1     -10.539  18.964  66.025  1.00  0.00    -0.470 C  
BRANCH  19  20
HETATM   20  C   UNL     1     -10.748  17.571  66.620  1.00  0.00    -0.097 C  
BRANCH  20  21
HETATM   21  C   UNL     1      -9.956  16.521  65.850  1.00  0.00    -0.342 C  
BRANCH  21  22
HETATM   22  C   UNL     1     -10.874  15.658  64.991  1.00  0.00    -0.468 C  
BRANCH  22  23
HETATM   23  C   UNL     1     -11.447  14.509  65.805  1.00  0.00    -0.342 C  
BRANCH  23  24
HETATM   24  O   UNL     1     -10.439  13.517  65.970  1.00  0.00    -0.288 OA 
BRANCH  24  25
HETATM   25  C   UNL     1     -10.997  12.314  66.494  1.00  0.00    -0.279 C  
BRANCH  25  26
HETATM   26  C   UNL     1     -11.908  12.640  67.667  1.00  0.00    -0.329 C  
BRANCH  26  27
HETATM   27  O   UNL     1     -12.157  11.442  68.403  1.00  0.00    -0.575 OA 
BRANCH  27  28
HETATM   28  C   UNL     1     -11.142  11.208  69.369  1.00  0.00    -0.255 C  
BRANCH  28  29
HETATM   29  C   UNL     1     -11.605  10.122  70.302  1.00  0.00    -0.379 A  
HETATM   30  C   UNL     1     -11.145   8.800  70.171  1.00  0.00    -0.202 A  
HETATM   31 CL   UNL     1     -10.074   8.317  68.900  1.00  0.00    -0.200 Cl 
HETATM   32  C   UNL     1     -11.540   7.804  71.074  1.00  0.00    -0.301 A  
HETATM   33  C   UNL     1     -12.420   8.104  72.108  1.00  0.00    -0.364 A  
HETATM   34  C   UNL     1     -12.930   9.393  72.223  1.00  0.00    -0.479 A  
HETATM   35  C   UNL     1     -12.537  10.390  71.322  1.00  0.00    -0.419 A  
HETATM   36 CL   UNL     1     -13.252  11.953  71.530  1.00  0.00    -0.386 Cl 
ENDBRANCH  28  29
ENDBRANCH  27  28
ENDBRANCH  26  27
ENDBRANCH  25  26
ENDBRANCH  24  25
ENDBRANCH  23  24
ENDBRANCH  22  23
ENDBRANCH  21  22
ENDBRANCH  20  21
ENDBRANCH  19  20
ENDBRANCH  18  19
ENDBRANCH  16  18
ENDBRANCH  15  16
ENDBRANCH  12  15
ENDBRANCH  10  12
ENDBRANCH   2   4
TORSDOF 16
ENDMDL
MODEL      138
REMARK 921   NORMALIZED FREE ENERGY PREDICTED BY IDOCK:   -5.17 KCAL/MOL
REMARK 922        TOTAL FREE ENERGY PREDICTED BY IDOCK:  -12.08 KCAL/MOL
REMARK 923 INTER-LIGAND FREE ENERGY PREDICTED BY IDOCK:  -10.32 KCAL/MOL
REMARK 924 INTRA-LIGAND FREE ENERGY PREDICTED BY IDOCK:   -1.75 KCAL/MOL
REMARK 927      BINDING AFFINITY PREDICTED BY RF-SCORE:    0.00 PKD
ROOT
HETATM    1  O   UNL     1     -11.025  18.027  64.834  1.00  0.00    -0.776 OA 
HETATM    2  C   UNL     1     -10.688  19.187  65.596  1.00  0.00    -0.220 C  
HETATM    3  H   UNL     1     -11.701  18.222  64.196  1.00  0.00     0.000 HD 
ENDROOT
BRANCH   2   4
HETATM    4  C   UNL     1      -9.616  18.876  66.607  1.00  0.00    -0.364 A  
HETATM    5  C   UNL     1      -9.000  19.852  67.399  1.00  0.00    -0.337 A  
HETATM    6  O   UNL     1      -9.386  21.163  67.360  1.00  0.00    -0.550 OA 
HETATM    7  C   UNL     1      -7.962  19.532  68.270  1.00  0.00    -0.368 A  
HETATM    8  C   UNL     1      -7.523  18.214  68.373  1.00  0.00    -0.287 A  
HETATM    9  H   UNL     1      -8.968  21.825  67.897  1.00  0.00     0.000 HD 
HETATM   10  C   UNL     1      -8.115  17.206  67.599  1.00  0.00    -0.187 A  
HETATM   11  C   UNL     1      -9.149  17.554  66.711  1.00  0.00    -0.276 A  
BRANCH  10  12
HETATM   12  C   UNL     1      -7.578  15.792  67.673  1.00  0.00    -0.156 C  
HETATM   13  O   UNL     1      -6.242  15.742  67.153  1.00  0.00    -0.309 OA 
HETATM   14  H   UNL     1      -5.905  14.855  67.200  1.00  0.00     0.000 HD 
BRANCH  12  15
HETATM   15  C   UNL     1      -7.584  15.292  69.133  1.00  0.00    -0.192 C  
BRANCH  15  16
HETATM   16  N   UNL     1      -8.951  14.985  69.588  1.00  0.00    -0.453 NA 
HETATM   17  H   UNL     1      -9.459  15.825  69.864  1.00  0.00     0.000 HD 
BRANCH  16  18
HETATM   18  C   UNL     1      -9.663  14.229  68.564  1.00  0.00    -0.225 C  
BRANCH  18  19
HETATM   19  C   UNL     1     -11.150  14.574  68.595  1.00  0.00    -0.272 C  
BRANCH  19  20
HETATM   20  C   UNL     1     -11.384  15.817  69.452  1.00  0.00    -0.348 C  
BRANCH  20  21
HETATM   21  C   UNL     1     -12.448  15.561  70.513  1.00  0.00    -0.472 C  
BRANCH  21  22
HETATM   22  C   UNL     1     -12.518  14.081  70.879  1.00  0.00    -0.439 C  
BRANCH  22  23
HETATM   23  C   UNL     1     -13.251  13.889  72.196  1.00  0.00    -0.444 C  
BRANCH  23  24
HETATM   24  O   UNL     1     -13.658  12.528  72.300  1.00  0.00    -0.530 OA 
BRANCH  24  25
HETATM   25  C   UNL     1     -12.935  11.715  71.379  1.00  0.00    -0.324 C  
BRANCH  25  26
HETATM   26  C   UNL     1     -13.078  10.252  71.766  1.00  0.00    -0.465 C  
BRANCH  26  27
HETATM   27  O   UNL     1     -12.390   9.452  70.804  1.00  0.00    -0.236 OA 
BRANCH  27  28
HETATM   28  C   UNL     1     -11.022   9.818  70.708  1.00  0.00    -0.336 C  
BRANCH  28  29
HETATM   29  C   UNL     1     -10.427   9.152  69.497  1.00  0.00    -0.226 A  
HETATM   30  C   UNL     1      -9.588   8.030  69.618  1.00  0.00    -0.168 A  
HETATM   31 CL   UNL     1      -9.129   7.382  71.156  1.00  0.00    -0.147 Cl 
HETATM   32  C   UNL     1      -9.079   7.382  68.484  1.00  0.00    -0.136 A  
HETATM   33  C   UNL     1      -9.379   7.857  67.212  1.00  0.00    -0.180 A  
HETATM   34  C   UNL     1     -10.163   8.997  67.072  1.00  0.00    -0.336 A  
HETATM   35  C   UNL     1     -10.673   9.646  68.203  1.00  0.00    -0.217 A  
HETATM   36 CL   UNL     1     -11.611  11.074  67.925  1.00  0.00    -0.347 Cl 
ENDBRANCH  28  29
ENDBRANCH  27  28
ENDBRANCH  26  27
ENDBRANCH  25  26
ENDBRANCH  24  25
ENDBRANCH  23  24
ENDBRANCH  22  23
ENDBRANCH  21  22
ENDBRANCH  20  21
ENDBRANCH  19  20
ENDBRANCH  18  19
ENDBRANCH  16  18
ENDBRANCH  15  16
ENDBRANCH  12  15
ENDBRANCH  10  12
ENDBRANCH   2   4
TORSDOF 16
ENDMDL
MODEL      139
REMARK 921   NORMALIZED FREE ENERGY PREDICTED BY IDOCK:   -5.15 KCAL/MOL
REMARK 922        TOTAL FREE ENERGY PREDICTED BY IDOCK:  -12.05 KCAL/MOL
REMARK 923 INTER-LIGAND FREE ENERGY PREDICTED BY IDOCK:  -10.18 KCAL/MOL
REMARK 924 INTRA-LIGAND FREE ENERGY PREDICTED BY IDOCK:   -1.87 KCAL/MOL
REMARK 927      BINDING AFFINITY PREDICTED BY RF-SCORE:    0.00 PKD
ROOT
HETATM    1  O   UNL     1      -9.827   2.975  65.648  1.00  0.00    -0.383 OA 
HETATM    2  C   UNL     1      -9.091   3.256  66.839  1.00  0.00    -0.172 C  
HETATM    3  H   UNL     1      -9.387   2.318  65.122  1.00  0.00     0.000 HD 
ENDROOT
BRANCH   2   4
HETATM    4  C   UNL     1      -9.790   4.298  67.673  1.00  0.00    -0.150 A  
HETATM    5  C   UNL     1     -10.484   5.383  67.126  1.00  0.00    -0.235 A  
HETATM    6  O   UNL     1     -10.641   5.532  65.776  1.00  0.00    -0.450 OA 
HETATM    7  C   UNL     1     -11.054   6.363  67.934  1.00  0.00    -0.370 A  
HETATM    8  C   UNL     1     -10.946   6.270  69.319  1.00  0.00    -0.435 A  
HETATM    9  H   UNL     1     -11.113   6.268  65.404  1.00  0.00     0.000 HD 
HETATM   10  C   UNL     1     -10.259   5.199  69.908  1.00  0.00    -0.361 A  
HETATM   11  C   UNL     1      -9.675   4.229  69.073  1.00  0.00    -0.209 A  
BRANCH  10  12
HETATM   12  C   UNL     1     -10.093   5.152  71.412  1.00  0.00    -0.200 C  
HETATM   13  O   UNL     1      -8.861   4.503  71.754  1.00  0.00    -0.114 OA 
HETATM   14  H   UNL     1      -8.756   4.474  72.698  1.00  0.00     0.000 HD 
BRANCH  12  15
HETATM   15  C   UNL     1     -10.105   6.580  71.998  1.00  0.00    -0.184 C  
BRANCH  15  16
HETATM   16  N   UNL     1     -11.269   6.789  72.876  1.00  0.00    -0.425 NA 
HETATM   17  H   UNL     1     -11.021   6.718  73.863  1.00  0.00     0.000 HD 
BRANCH  16  18
HETATM   18  C   UNL     1     -11.911   8.062  72.565  1.00  0.00    -0.361 C  
BRANCH  18  19
HETATM   19  C   UNL     1     -13.238   7.821  71.850  1.00  0.00    -0.300 C  
BRANCH  19  20
HETATM   20  C   UNL     1     -13.906   9.155  71.519  1.00  0.00    -0.353 C  
BRANCH  20  21
HETATM   21  C   UNL     1     -13.074  10.328  72.025  1.00  0.00    -0.529 C  
BRANCH  21  22
HETATM   22  C   UNL     1     -12.742  11.296  70.894  1.00  0.00    -0.412 C  
BRANCH  22  23
HETATM   23  C   UNL     1     -11.899  10.609  69.831  1.00  0.00    -0.315 C  
BRANCH  23  24
HETATM   24  O   UNL     1     -10.651  10.237  70.405  1.00  0.00    -0.278 OA 
BRANCH  24  25
HETATM   25  C   UNL     1      -9.649  10.118  69.398  1.00  0.00    -0.232 C  
BRANCH  25  26
HETATM   26  C   UNL     1     -10.306   9.990  68.034  1.00  0.00    -0.198 C  
BRANCH  26  27
HETATM   27  O   UNL     1      -9.326  10.237  67.025  1.00  0.00    -0.151 OA 
BRANCH  27  28
HETATM   28  C   UNL     1      -9.306  11.606  66.647  1.00  0.00    -0.194 C  
BRANCH  28  29
HETATM   29  C   UNL     1     -10.379  11.838  65.619  1.00  0.00    -0.293 A  
HETATM   30  C   UNL     1     -11.517  12.610  65.911  1.00  0.00    -0.363 A  
HETATM   31 CL   UNL     1     -11.796  13.286  67.480  1.00  0.00    -0.402 Cl 
HETATM   32  C   UNL     1     -12.488  12.865  64.934  1.00  0.00    -0.540 A  
HETATM   33  C   UNL     1     -12.353  12.335  63.655  1.00  0.00    -0.664 A  
HETATM   34  C   UNL     1     -11.262  11.525  63.360  1.00  0.00    -0.342 A  
HETATM   35  C   UNL     1     -10.289  11.268  64.336  1.00  0.00    -0.329 A  
HETATM   36 CL   UNL     1      -8.988  10.221  63.880  1.00  0.00    -0.231 Cl 
ENDBRANCH  28  29
ENDBRANCH  27  28
ENDBRANCH  26  27
ENDBRANCH  25  26
ENDBRANCH  24  25
ENDBRANCH  23  24
ENDBRANCH  22  23
ENDBRANCH  21  22
ENDBRANCH  20  21
ENDBRANCH  19  20
ENDBRANCH  18  19
ENDBRANCH  16  18
ENDBRANCH  15  16
ENDBRANCH  12  15
ENDBRANCH  10  12
ENDBRANCH   2   4
TORSDOF 16
ENDMDL
MODEL      140
REMARK 921   NORMALIZED FREE ENERGY PREDICTED BY IDOCK:   -5.15 KCAL/MOL
REMARK 922        TOTAL FREE ENERGY PREDICTED BY IDOCK:  -12.04 KCAL/MOL
REMARK 923 INTER-LIGAND FREE ENERGY PREDICTED BY IDOCK:   -9.80 KCAL/MOL
REMARK 924 INTRA-LIGAND FREE ENERGY PREDICTED BY IDOCK:   -2.24 KCAL/MOL
REMARK 927      BINDING AFFINITY PREDICTED BY RF-SCORE:    0.00 PKD
ROOT
HETATM    1  O   UNL     1      -8.693  12.401  68.659  1.00  0.00    -0.346 OA 
HETATM    2  C   UNL     1      -7.786  12.163  67.581  1.00  0.00    -0.153 C  
HETATM    3  H   UNL     1      -8.249  12.807  69.395  1.00  0.00     0.000 HD 
ENDROOT
BRANCH   2   4
HETATM    4  C   UNL     1      -8.491  11.520  66.415  1.00  0.00    -0.138 A  
HETATM    5  C   UNL     1      -7.946  10.466  65.673  1.00  0.00    -0.153 A  
HETATM    6  O   UNL     1      -6.752   9.890  66.007  1.00  0.00    -0.085 OA 
HETATM    7  C   UNL     1      -8.599   9.949  64.558  1.00  0.00    -0.198 A  
HETATM    8  C   UNL     1      -9.827  10.477  64.165  1.00  0.00    -0.401 A  
HETATM    9  H   UNL     1      -6.382   9.175  65.504  1.00  0.00     0.000 HD 
HETATM   10  C   UNL     1     -10.408  11.533  64.882  1.00  0.00    -0.340 A  
HETATM   11  C   UNL     1      -9.723  12.052  65.994  1.00  0.00    -0.256 A  
BRANCH  10  12
HETATM   12  C   UNL     1     -11.709  12.139  64.398  1.00  0.00    -0.355 C  
HETATM   13  O   UNL     1     -12.579  12.394  65.510  1.00  0.00    -0.616 OA 
HETATM   14  H   UNL     1     -13.395  12.775  65.207  1.00  0.00     0.000 HD 
BRANCH  12  15
HETATM   15  C   UNL     1     -11.438  13.455  63.640  1.00  0.00    -0.152 C  
BRANCH  15  16
HETATM   16  N   UNL     1     -12.463  14.469  63.943  1.00  0.00    -1.031 NA 
HETATM   17  H   UNL     1     -13.077  14.176  64.703  1.00  0.00     0.000 HD 
BRANCH  16  18
HETATM   18  C   UNL     1     -11.832  15.755  64.217  1.00  0.00    -0.118 C  
BRANCH  18  19
HETATM   19  C   UNL     1     -10.597  15.559  65.093  1.00  0.00    -0.455 C  
BRANCH  19  20
HETATM   20  C   UNL     1     -11.013  15.315  66.543  1.00  0.00    -0.295 C  
BRANCH  20  21
HETATM   21  C   UNL     1     -10.555  16.455  67.445  1.00  0.00    -0.306 C  
BRANCH  21  22
HETATM   22  C   UNL     1      -9.723  15.934  68.613  1.00  0.00    -0.207 C  
BRANCH  22  23
HETATM   23  C   UNL     1     -10.473  16.104  69.924  1.00  0.00    -0.261 C  
BRANCH  23  24
HETATM   24  O   UNL     1     -11.817  15.667  69.743  1.00  0.00    -0.332 OA 
BRANCH  24  25
HETATM   25  C   UNL     1     -12.050  14.450  70.447  1.00  0.00    -0.331 C  
BRANCH  25  26
HETATM   26  C   UNL     1     -12.065  13.287  69.469  1.00  0.00    -0.258 C  
BRANCH  26  27
HETATM   27  O   UNL     1     -11.425  12.165  70.078  1.00  0.00    -0.212 OA 
BRANCH  27  28
HETATM   28  C   UNL     1     -11.710  10.963  69.377  1.00  0.00    -0.325 C  
BRANCH  28  29
HETATM   29  C   UNL     1     -11.369   9.796  70.263  1.00  0.00    -0.333 A  
HETATM   30  C   UNL     1     -10.378   8.867  69.900  1.00  0.00    -0.206 A  
HETATM   31 CL   UNL     1      -9.535   8.959  68.391  1.00  0.00    -0.143 Cl 
HETATM   32  C   UNL     1     -10.029   7.811  70.753  1.00  0.00    -0.184 A  
HETATM   33  C   UNL     1     -10.678   7.650  71.972  1.00  0.00    -0.270 A  
HETATM   34  C   UNL     1     -11.698   8.527  72.327  1.00  0.00    -0.443 A  
HETATM   35  C   UNL     1     -12.049   9.583  71.476  1.00  0.00    -0.389 A  
HETATM   36 CL   UNL     1     -13.352  10.599  71.993  1.00  0.00    -0.505 Cl 
ENDBRANCH  28  29
ENDBRANCH  27  28
ENDBRANCH  26  27
ENDBRANCH  25  26
ENDBRANCH  24  25
ENDBRANCH  23  24
ENDBRANCH  22  23
ENDBRANCH  21  22
ENDBRANCH  20  21
ENDBRANCH  19  20
ENDBRANCH  18  19
ENDBRANCH  16  18
ENDBRANCH  15  16
ENDBRANCH  12  15
ENDBRANCH  10  12
ENDBRANCH   2   4
TORSDOF 16
ENDMDL
MODEL      141
REMARK 921   NORMALIZED FREE ENERGY PREDICTED BY IDOCK:   -5.15 KCAL/MOL
REMARK 922        TOTAL FREE ENERGY PREDICTED BY IDOCK:  -12.03 KCAL/MOL
REMARK 923 INTER-LIGAND FREE ENERGY PREDICTED BY IDOCK:   -9.80 KCAL/MOL
REMARK 924 INTRA-LIGAND FREE ENERGY PREDICTED BY IDOCK:   -2.23 KCAL/MOL
REMARK 927      BINDING AFFINITY PREDICTED BY RF-SCORE:    0.00 PKD
ROOT
HETATM    1  O   UNL     1     -11.023  11.220  65.442  1.00  0.00    -0.230 OA 
HETATM    2  C   UNL     1     -10.753  11.812  66.713  1.00  0.00    -0.253 C  
HETATM    3  H   UNL     1     -11.373  11.861  64.834  1.00  0.00     0.000 HD 
ENDROOT
BRANCH   2   4
HETATM    4  C   UNL     1     -10.198  10.795  67.676  1.00  0.00    -0.221 A  
HETATM    5  C   UNL     1      -9.180  11.079  68.594  1.00  0.00    -0.185 A  
HETATM    6  O   UNL     1      -8.663  12.337  68.730  1.00  0.00    -0.362 OA 
HETATM    7  C   UNL     1      -8.647  10.091  69.416  1.00  0.00    -0.182 A  
HETATM    8  C   UNL     1      -9.133   8.788  69.341  1.00  0.00    -0.145 A  
HETATM    9  H   UNL     1      -7.972  12.530  69.353  1.00  0.00     0.000 HD 
HETATM   10  C   UNL     1     -10.154   8.461  68.437  1.00  0.00    -0.224 A  
HETATM   11  C   UNL     1     -10.666   9.471  67.602  1.00  0.00    -0.314 A  
BRANCH  10  12
HETATM   12  C   UNL     1     -10.621   7.026  68.321  1.00  0.00    -0.196 C  
HETATM   13  O   UNL     1      -9.613   6.226  67.688  1.00  0.00    -0.115 OA 
HETATM   14  H   UNL     1      -9.906   5.325  67.616  1.00  0.00     0.000 HD 
BRANCH  12  15
HETATM   15  C   UNL     1     -10.937   6.450  69.718  1.00  0.00    -0.356 C  
BRANCH  15  16
HETATM   16  N   UNL     1     -12.272   6.868  70.180  1.00  0.00    -0.623 NA 
HETATM   17  H   UNL     1     -13.006   6.249  69.835  1.00  0.00     0.000 HD 
BRANCH  16  18
HETATM   18  C   UNL     1     -12.289   6.976  71.635  1.00  0.00    -0.368 C  
BRANCH  18  19
HETATM   19  C   UNL     1     -11.657   8.295  72.071  1.00  0.00    -0.403 C  
BRANCH  19  20
HETATM   20  C   UNL     1     -12.612   9.454  71.792  1.00  0.00    -0.470 C  
BRANCH  20  21
HETATM   21  C   UNL     1     -11.938  10.533  70.952  1.00  0.00    -0.481 C  
BRANCH  21  22
HETATM   22  C   UNL     1     -12.556  11.903  71.215  1.00  0.00    -0.383 C  
BRANCH  22  23
HETATM   23  C   UNL     1     -12.201  12.872  70.099  1.00  0.00    -0.266 C  
BRANCH  23  24
HETATM   24  O   UNL     1     -11.820  14.116  70.676  1.00  0.00    -0.303 OA 
BRANCH  24  25
HETATM   25  C   UNL     1     -12.047  15.187  69.762  1.00  0.00    -0.319 C  
BRANCH  25  26
HETATM   26  C   UNL     1     -11.584  14.782  68.373  1.00  0.00    -0.324 C  
BRANCH  26  27
HETATM   27  O   UNL     1     -10.916  15.889  67.768  1.00  0.00    -0.321 OA 
BRANCH  27  28
HETATM   28  C   UNL     1     -10.697  16.935  68.704  1.00  0.00    -0.345 C  
BRANCH  28  29
HETATM   29  C   UNL     1      -9.449  17.679  68.312  1.00  0.00    -0.295 A  
HETATM   30  C   UNL     1      -9.511  18.875  67.576  1.00  0.00    -0.302 A  
HETATM   31 CL   UNL     1     -11.009  19.536  67.014  1.00  0.00    -0.537 Cl 
HETATM   32  C   UNL     1      -8.349  19.590  67.259  1.00  0.00    -0.327 A  
HETATM   33  C   UNL     1      -7.103  19.112  67.649  1.00  0.00    -0.247 A  
HETATM   34  C   UNL     1      -7.015  17.903  68.332  1.00  0.00    -0.234 A  
HETATM   35  C   UNL     1      -8.175  17.186  68.650  1.00  0.00    -0.255 A  
HETATM   36 CL   UNL     1      -7.958  15.679  69.472  1.00  0.00    -0.217 Cl 
ENDBRANCH  28  29
ENDBRANCH  27  28
ENDBRANCH  26  27
ENDBRANCH  25  26
ENDBRANCH  24  25
ENDBRANCH  23  24
ENDBRANCH  22  23
ENDBRANCH  21  22
ENDBRANCH  20  21
ENDBRANCH  19  20
ENDBRANCH  18  19
ENDBRANCH  16  18
ENDBRANCH  15  16
ENDBRANCH  12  15
ENDBRANCH  10  12
ENDBRANCH   2   4
TORSDOF 16
ENDMDL
MODEL      142
REMARK 921   NORMALIZED FREE ENERGY PREDICTED BY IDOCK:   -5.13 KCAL/MOL
REMARK 922        TOTAL FREE ENERGY PREDICTED BY IDOCK:  -12.01 KCAL/MOL
REMARK 923 INTER-LIGAND FREE ENERGY PREDICTED BY IDOCK:  -10.12 KCAL/MOL
REMARK 924 INTRA-LIGAND FREE ENERGY PREDICTED BY IDOCK:   -1.89 KCAL/MOL
REMARK 927      BINDING AFFINITY PREDICTED BY RF-SCORE:    0.00 PKD
ROOT
HETATM    1  O   UNL     1     -13.183   7.577  72.157  1.00  0.00    -0.496 OA 
HETATM    2  C   UNL     1     -12.318   6.552  71.666  1.00  0.00    -0.260 C  
HETATM    3  H   UNL     1     -13.774   7.237  72.818  1.00  0.00     0.000 HD 
ENDROOT
BRANCH   2   4
HETATM    4  C   UNL     1     -11.380   7.093  70.618  1.00  0.00    -0.327 A  
HETATM    5  C   UNL     1     -10.745   8.336  70.721  1.00  0.00    -0.218 A  
HETATM    6  O   UNL     1     -10.878   9.124  71.830  1.00  0.00    -0.359 OA 
HETATM    7  C   UNL     1      -9.942   8.829  69.697  1.00  0.00    -0.191 A  
HETATM    8  C   UNL     1      -9.750   8.075  68.541  1.00  0.00    -0.166 A  
HETATM    9  H   UNL     1     -10.447   9.967  71.901  1.00  0.00     0.000 HD 
HETATM   10  C   UNL     1     -10.367   6.824  68.398  1.00  0.00    -0.214 A  
HETATM   11  C   UNL     1     -11.188   6.353  69.438  1.00  0.00    -0.459 A  
BRANCH  10  12
HETATM   12  C   UNL     1     -10.202   6.051  67.107  1.00  0.00    -0.202 C  
HETATM   13  O   UNL     1     -11.452   5.984  66.407  1.00  0.00    -0.668 OA 
HETATM   14  H   UNL     1     -11.349   5.499  65.597  1.00  0.00     0.000 HD 
BRANCH  12  15
HETATM   15  C   UNL     1      -9.142   6.725  66.209  1.00  0.00    -0.139 C  
BRANCH  15  16
HETATM   16  N   UNL     1      -8.917   5.954  64.975  1.00  0.00    -0.368 NA 
HETATM   17  H   UNL     1      -9.791   5.625  64.566  1.00  0.00     0.000 HD 
BRANCH  16  18
HETATM   18  C   UNL     1      -8.133   6.740  64.028  1.00  0.00    -0.015 C  
BRANCH  18  19
HETATM   19  C   UNL     1      -7.897   8.144  64.579  1.00  0.00    -0.138 C  
BRANCH  19  20
HETATM   20  C   UNL     1      -7.677   9.129  63.431  1.00  0.00    -0.120 C  
BRANCH  20  21
HETATM   21  C   UNL     1      -8.950   9.911  63.126  1.00  0.00    -0.275 C  
BRANCH  21  22
HETATM   22  C   UNL     1      -9.474  10.620  64.371  1.00  0.00    -0.317 C  
BRANCH  22  23
HETATM   23  C   UNL     1     -10.893  11.116  64.147  1.00  0.00    -0.285 C  
BRANCH  23  24
HETATM   24  O   UNL     1     -10.841  12.356  63.451  1.00  0.00    -0.451 OA 
BRANCH  24  25
HETATM   25  C   UNL     1     -11.985  13.152  63.751  1.00  0.00    -0.508 C  
BRANCH  25  26
HETATM   26  C   UNL     1     -12.492  12.814  65.144  1.00  0.00    -0.501 C  
BRANCH  26  27
HETATM   27  O   UNL     1     -12.358  13.968  65.975  1.00  0.00    -0.445 OA 
BRANCH  27  28
HETATM   28  C   UNL     1     -11.153  13.927  66.726  1.00  0.00    -0.303 C  
BRANCH  28  29
HETATM   29  C   UNL     1     -11.489  14.073  68.185  1.00  0.00    -0.341 A  
HETATM   30  C   UNL     1     -11.800  12.955  68.978  1.00  0.00    -0.306 A  
HETATM   31 CL   UNL     1     -11.884  11.354  68.325  1.00  0.00    -0.358 Cl 
HETATM   32  C   UNL     1     -12.061  13.090  70.348  1.00  0.00    -0.391 A  
HETATM   33  C   UNL     1     -12.041  14.346  70.945  1.00  0.00    -0.414 A  
HETATM   34  C   UNL     1     -11.788  15.471  70.168  1.00  0.00    -0.378 A  
HETATM   35  C   UNL     1     -11.526  15.338  68.798  1.00  0.00    -0.331 A  
HETATM   36 CL   UNL     1     -11.256  16.800  67.912  1.00  0.00    -0.176 Cl 
ENDBRANCH  28  29
ENDBRANCH  27  28
ENDBRANCH  26  27
ENDBRANCH  25  26
ENDBRANCH  24  25
ENDBRANCH  23  24
ENDBRANCH  22  23
ENDBRANCH  21  22
ENDBRANCH  20  21
ENDBRANCH  19  20
ENDBRANCH  18  19
ENDBRANCH  16  18
ENDBRANCH  15  16
ENDBRANCH  12  15
ENDBRANCH  10  12
ENDBRANCH   2   4
TORSDOF 16
ENDMDL
MODEL      143
REMARK 921   NORMALIZED FREE ENERGY PREDICTED BY IDOCK:   -5.13 KCAL/MOL
REMARK 922        TOTAL FREE ENERGY PREDICTED BY IDOCK:  -12.00 KCAL/MOL
REMARK 923 INTER-LIGAND FREE ENERGY PREDICTED BY IDOCK:   -9.29 KCAL/MOL
REMARK 924 INTRA-LIGAND FREE ENERGY PREDICTED BY IDOCK:   -2.72 KCAL/MOL
REMARK 927      BINDING AFFINITY PREDICTED BY RF-SCORE:    0.00 PKD
ROOT
HETATM    1  O   UNL     1     -13.807   9.688  70.559  1.00  0.00    -0.504 OA 
HETATM    2  C   UNL     1     -12.591  10.393  70.815  1.00  0.00    -0.371 C  
HETATM    3  H   UNL     1     -14.475  10.273  70.220  1.00  0.00     0.000 HD 
ENDROOT
BRANCH   2   4
HETATM    4  C   UNL     1     -11.532   9.465  71.352  1.00  0.00    -0.449 A  
HETATM    5  C   UNL     1     -11.754   8.574  72.408  1.00  0.00    -0.358 A  
HETATM    6  O   UNL     1     -12.986   8.430  72.984  1.00  0.00    -0.704 OA 
HETATM    7  C   UNL     1     -10.728   7.786  72.922  1.00  0.00    -0.446 A  
HETATM    8  C   UNL     1      -9.449   7.870  72.377  1.00  0.00    -0.252 A  
HETATM    9  H   UNL     1     -13.136   7.825  73.701  1.00  0.00     0.000 HD 
HETATM   10  C   UNL     1      -9.185   8.749  71.317  1.00  0.00    -0.309 A  
HETATM   11  C   UNL     1     -10.231   9.549  70.825  1.00  0.00    -0.363 A  
BRANCH  10  12
HETATM   12  C   UNL     1      -7.773   8.876  70.784  1.00  0.00    -0.115 C  
HETATM   13  O   UNL     1      -7.443   7.735  69.979  1.00  0.00    -0.077 OA 
HETATM   14  H   UNL     1      -6.558   7.815  69.644  1.00  0.00     0.000 HD 
BRANCH  12  15
HETATM   15  C   UNL     1      -7.631  10.162  69.942  1.00  0.00    -0.166 C  
BRANCH  15  16
HETATM   16  N   UNL     1      -6.646  11.082  70.533  1.00  0.00    -0.490 NA 
HETATM   17  H   UNL     1      -5.802  10.596  70.836  1.00  0.00     0.000 HD 
BRANCH  16  18
HETATM   18  C   UNL     1      -6.346  12.164  69.600  1.00  0.00    -0.115 C  
BRANCH  18  19
HETATM   19  C   UNL     1      -7.045  11.915  68.266  1.00  0.00    -0.081 C  
BRANCH  19  20
HETATM   20  C   UNL     1      -6.996  13.176  67.404  1.00  0.00    -0.117 C  
BRANCH  20  21
HETATM   21  C   UNL     1      -7.428  14.403  68.198  1.00  0.00    -0.128 C  
BRANCH  21  22
HETATM   22  C   UNL     1      -7.039  15.691  67.479  1.00  0.00    -0.214 C  
BRANCH  22  23
HETATM   23  C   UNL     1      -8.141  16.731  67.609  1.00  0.00    -0.177 C  
BRANCH  23  24
HETATM   24  O   UNL     1      -9.337  16.081  68.028  1.00  0.00    -0.200 OA 
BRANCH  24  25
HETATM   25  C   UNL     1     -10.426  16.436  67.179  1.00  0.00    -0.297 C  
BRANCH  25  26
HETATM   26  C   UNL     1     -10.043  16.202  65.728  1.00  0.00    -0.363 C  
BRANCH  26  27
HETATM   27  O   UNL     1      -9.907  14.798  65.508  1.00  0.00    -0.342 OA 
BRANCH  27  28
HETATM   28  C   UNL     1     -11.102  14.105  65.837  1.00  0.00    -0.306 C  
BRANCH  28  29
HETATM   29  C   UNL     1     -10.772  12.654  66.062  1.00  0.00    -0.295 A  
HETATM   30  C   UNL     1     -10.640  12.127  67.359  1.00  0.00    -0.226 A  
HETATM   31 CL   UNL     1     -10.781  13.112  68.775  1.00  0.00    -0.267 Cl 
HETATM   32  C   UNL     1     -10.383  10.764  67.563  1.00  0.00    -0.244 A  
HETATM   33  C   UNL     1     -10.229   9.909  66.477  1.00  0.00    -0.292 A  
HETATM   34  C   UNL     1     -10.302  10.421  65.185  1.00  0.00    -0.260 A  
HETATM   35  C   UNL     1     -10.559  11.782  64.979  1.00  0.00    -0.288 A  
HETATM   36 CL   UNL     1     -10.599  12.326  63.336  1.00  0.00    -0.469 Cl 
ENDBRANCH  28  29
ENDBRANCH  27  28
ENDBRANCH  26  27
ENDBRANCH  25  26
ENDBRANCH  24  25
ENDBRANCH  23  24
ENDBRANCH  22  23
ENDBRANCH  21  22
ENDBRANCH  20  21
ENDBRANCH  19  20
ENDBRANCH  18  19
ENDBRANCH  16  18
ENDBRANCH  15  16
ENDBRANCH  12  15
ENDBRANCH  10  12
ENDBRANCH   2   4
TORSDOF 16
ENDMDL
MODEL      144
REMARK 921   NORMALIZED FREE ENERGY PREDICTED BY IDOCK:   -5.13 KCAL/MOL
REMARK 922        TOTAL FREE ENERGY PREDICTED BY IDOCK:  -11.99 KCAL/MOL
REMARK 923 INTER-LIGAND FREE ENERGY PREDICTED BY IDOCK:  -10.17 KCAL/MOL
REMARK 924 INTRA-LIGAND FREE ENERGY PREDICTED BY IDOCK:   -1.82 KCAL/MOL
REMARK 927      BINDING AFFINITY PREDICTED BY RF-SCORE:    0.00 PKD
ROOT
HETATM    1  O   UNL     1     -10.517  16.020  69.881  1.00  0.00    -0.290 OA 
HETATM    2  C   UNL     1     -11.487  15.890  68.841  1.00  0.00    -0.386 C  
HETATM    3  H   UNL     1     -10.411  16.929  70.137  1.00  0.00     0.000 HD 
ENDROOT
BRANCH   2   4
HETATM    4  C   UNL     1     -11.654  14.449  68.434  1.00  0.00    -0.351 A  
HETATM    5  C   UNL     1     -11.634  13.386  69.344  1.00  0.00    -0.307 A  
HETATM    6  O   UNL     1     -11.532  13.591  70.692  1.00  0.00    -0.488 OA 
HETATM    7  C   UNL     1     -11.719  12.064  68.918  1.00  0.00    -0.383 A  
HETATM    8  C   UNL     1     -11.837  11.778  67.559  1.00  0.00    -0.227 A  
HETATM    9  H   UNL     1     -11.518  12.870  71.309  1.00  0.00     0.000 HD 
HETATM   10  C   UNL     1     -11.863  12.814  66.616  1.00  0.00    -0.462 A  
HETATM   11  C   UNL     1     -11.757  14.142  67.066  1.00  0.00    -0.430 A  
BRANCH  10  12
HETATM   12  C   UNL     1     -11.923  12.481  65.139  1.00  0.00    -0.434 C  
HETATM   13  O   UNL     1     -13.263  12.632  64.651  1.00  0.00    -0.828 OA 
HETATM   14  H   UNL     1     -13.300  12.424  63.725  1.00  0.00     0.000 HD 
BRANCH  12  15
HETATM   15  C   UNL     1     -10.974  13.402  64.343  1.00  0.00    -0.395 C  
BRANCH  15  16
HETATM   16  N   UNL     1      -9.819  12.655  63.818  1.00  0.00    -0.679 NA 
HETATM   17  H   UNL     1      -8.997  12.755  64.414  1.00  0.00     0.000 HD 
BRANCH  16  18
HETATM   18  C   UNL     1     -10.176  11.255  63.613  1.00  0.00    -0.392 C  
BRANCH  18  19
HETATM   19  C   UNL     1      -9.679  10.409  64.782  1.00  0.00    -0.383 C  
BRANCH  19  20
HETATM   20  C   UNL     1      -8.179  10.151  64.645  1.00  0.00    -0.165 C  
BRANCH  20  21
HETATM   21  C   UNL     1      -7.449  10.447  65.949  1.00  0.00    -0.139 C  
BRANCH  21  22
HETATM   22  C   UNL     1      -8.252  11.402  66.827  1.00  0.00    -0.160 C  
BRANCH  22  23
HETATM   23  C   UNL     1      -7.969  11.144  68.298  1.00  0.00    -0.127 C  
BRANCH  23  24
HETATM   24  O   UNL     1      -8.057   9.744  68.543  1.00  0.00    -0.101 OA 
BRANCH  24  25
HETATM   25  C   UNL     1      -9.212   9.440  69.322  1.00  0.00    -0.159 C  
BRANCH  25  26
HETATM   26  C   UNL     1     -10.156   8.562  68.518  1.00  0.00    -0.194 C  
BRANCH  26  27
HETATM   27  O   UNL     1      -9.869   7.193  68.806  1.00  0.00    -0.154 OA 
BRANCH  27  28
HETATM   28  C   UNL     1     -11.057   6.457  69.059  1.00  0.00    -0.358 C  
BRANCH  28  29
HETATM   29  C   UNL     1     -10.924   5.766  70.388  1.00  0.00    -0.333 A  
HETATM   30  C   UNL     1     -11.601   6.235  71.527  1.00  0.00    -0.287 A  
HETATM   31 CL   UNL     1     -12.574   7.666  71.499  1.00  0.00    -0.355 Cl 
HETATM   32  C   UNL     1     -11.514   5.558  72.751  1.00  0.00    -0.339 A  
HETATM   33  C   UNL     1     -10.730   4.415  72.865  1.00  0.00    -0.263 A  
HETATM   34  C   UNL     1     -10.009   3.964  71.764  1.00  0.00    -0.234 A  
HETATM   35  C   UNL     1     -10.095   4.640  70.540  1.00  0.00    -0.192 A  
HETATM   36 CL   UNL     1      -9.135   4.019  69.240  1.00  0.00    -0.176 Cl 
ENDBRANCH  28  29
ENDBRANCH  27  28
ENDBRANCH  26  27
ENDBRANCH  25  26
ENDBRANCH  24  25
ENDBRANCH  23  24
ENDBRANCH  22  23
ENDBRANCH  21  22
ENDBRANCH  20  21
ENDBRANCH  19  20
ENDBRANCH  18  19
ENDBRANCH  16  18
ENDBRANCH  15  16
ENDBRANCH  12  15
ENDBRANCH  10  12
ENDBRANCH   2   4
TORSDOF 16
ENDMDL
MODEL      145
REMARK 921   NORMALIZED FREE ENERGY PREDICTED BY IDOCK:   -5.12 KCAL/MOL
REMARK 922        TOTAL FREE ENERGY PREDICTED BY IDOCK:  -11.98 KCAL/MOL
REMARK 923 INTER-LIGAND FREE ENERGY PREDICTED BY IDOCK:  -10.32 KCAL/MOL
REMARK 924 INTRA-LIGAND FREE ENERGY PREDICTED BY IDOCK:   -1.66 KCAL/MOL
REMARK 927      BINDING AFFINITY PREDICTED BY RF-SCORE:    0.00 PKD
ROOT
HETATM    1  O   UNL     1     -11.598   3.710  73.786  1.00  0.00    -0.105 OA 
HETATM    2  C   UNL     1     -10.797   4.878  73.604  1.00  0.00    -0.309 C  
HETATM    3  H   UNL     1     -11.304   3.209  74.537  1.00  0.00     0.000 HD 
ENDROOT
BRANCH   2   4
HETATM    4  C   UNL     1     -11.263   5.672  72.411  1.00  0.00    -0.336 A  
HETATM    5  C   UNL     1     -10.735   5.510  71.125  1.00  0.00    -0.210 A  
HETATM    6  O   UNL     1      -9.798   4.555  70.845  1.00  0.00    -0.179 OA 
HETATM    7  C   UNL     1     -11.144   6.315  70.065  1.00  0.00    -0.455 A  
HETATM    8  C   UNL     1     -12.105   7.302  70.273  1.00  0.00     0.020 A  
HETATM    9  H   UNL     1      -9.440   4.445  69.972  1.00  0.00     0.000 HD 
HETATM   10  C   UNL     1     -12.660   7.496  71.546  1.00  0.00    -0.385 A  
HETATM   11  C   UNL     1     -12.219   6.684  72.606  1.00  0.00     0.186 A  
BRANCH  10  12
HETATM   12  C   UNL     1     -13.651   8.619  71.767  1.00  0.00    -0.403 C  
HETATM   13  O   UNL     1     -13.862   8.824  73.171  1.00  0.00    -1.042 OA 
HETATM   14  H   UNL     1     -14.484   9.529  73.309  1.00  0.00     0.000 HD 
BRANCH  12  15
HETATM   15  C   UNL     1     -13.136   9.924  71.125  1.00  0.00    -0.370 C  
BRANCH  15  16
HETATM   16  N   UNL     1     -13.271  11.065  72.047  1.00  0.00    -0.553 NA 
HETATM   17  H   UNL     1     -12.747  10.922  72.910  1.00  0.00     0.000 HD 
BRANCH  16  18
HETATM   18  C   UNL     1     -12.889  12.302  71.375  1.00  0.00    -0.271 C  
BRANCH  18  19
HETATM   19  C   UNL     1     -12.089  11.989  70.113  1.00  0.00    -0.377 C  
BRANCH  19  20
HETATM   20  C   UNL     1     -11.867  13.265  69.300  1.00  0.00    -0.383 C  
BRANCH  20  21
HETATM   21  C   UNL     1     -11.775  12.958  67.810  1.00  0.00    -0.412 C  
BRANCH  21  22
HETATM   22  C   UNL     1     -12.147  14.177  66.972  1.00  0.00    -0.449 C  
BRANCH  22  23
HETATM   23  C   UNL     1     -12.077  13.850  65.489  1.00  0.00    -0.407 C  
BRANCH  23  24
HETATM   24  O   UNL     1     -12.784  12.636  65.254  1.00  0.00    -0.652 OA 
BRANCH  24  25
HETATM   25  C   UNL     1     -12.535  12.156  63.935  1.00  0.00    -0.478 C  
BRANCH  25  26
HETATM   26  C   UNL     1     -11.051  12.254  63.625  1.00  0.00    -0.469 C  
BRANCH  26  27
HETATM   27  O   UNL     1     -10.457  10.968  63.803  1.00  0.00    -0.363 OA 
BRANCH  27  28
HETATM   28  C   UNL     1      -9.550  10.963  64.896  1.00  0.00    -0.248 C  
BRANCH  28  29
HETATM   29  C   UNL     1      -9.239   9.536  65.258  1.00  0.00    -0.307 A  
HETATM   30  C   UNL     1      -9.871   8.903  66.343  1.00  0.00    -0.283 A  
HETATM   31 CL   UNL     1     -10.991   9.731  67.370  1.00  0.00    -0.269 Cl 
HETATM   32  C   UNL     1      -9.615   7.558  66.644  1.00  0.00    -0.263 A  
HETATM   33  C   UNL     1      -8.707   6.830  65.883  1.00  0.00    -0.147 A  
HETATM   34  C   UNL     1      -8.031   7.452  64.839  1.00  0.00    -0.128 A  
HETATM   35  C   UNL     1      -8.285   8.796  64.536  1.00  0.00    -0.167 A  
HETATM   36 CL   UNL     1      -7.369   9.488  63.240  1.00  0.00    -0.108 Cl 
ENDBRANCH  28  29
ENDBRANCH  27  28
ENDBRANCH  26  27
ENDBRANCH  25  26
ENDBRANCH  24  25
ENDBRANCH  23  24
ENDBRANCH  22  23
ENDBRANCH  21  22
ENDBRANCH  20  21
ENDBRANCH  19  20
ENDBRANCH  18  19
ENDBRANCH  16  18
ENDBRANCH  15  16
ENDBRANCH  12  15
ENDBRANCH  10  12
ENDBRANCH   2   4
TORSDOF 16
ENDMDL
MODEL      146
REMARK 921   NORMALIZED FREE ENERGY PREDICTED BY IDOCK:   -5.12 KCAL/MOL
REMARK 922        TOTAL FREE ENERGY PREDICTED BY IDOCK:  -11.97 KCAL/MOL
REMARK 923 INTER-LIGAND FREE ENERGY PREDICTED BY IDOCK:   -9.98 KCAL/MOL
REMARK 924 INTRA-LIGAND FREE ENERGY PREDICTED BY IDOCK:   -1.99 KCAL/MOL
REMARK 927      BINDING AFFINITY PREDICTED BY RF-SCORE:    0.00 PKD
ROOT
HETATM    1  O   UNL     1     -11.324   5.798  66.301  1.00  0.00    -0.733 OA 
HETATM    2  C   UNL     1      -9.940   6.118  66.456  1.00  0.00    -0.126 C  
HETATM    3  H   UNL     1     -11.451   4.859  66.238  1.00  0.00     0.000 HD 
ENDROOT
BRANCH   2   4
HETATM    4  C   UNL     1      -9.738   7.607  66.557  1.00  0.00    -0.251 A  
HETATM    5  C   UNL     1     -10.406   8.414  67.486  1.00  0.00    -0.265 A  
HETATM    6  O   UNL     1     -11.245   7.886  68.427  1.00  0.00    -0.324 OA 
HETATM    7  C   UNL     1     -10.244   9.796  67.496  1.00  0.00    -0.271 A  
HETATM    8  C   UNL     1      -9.395  10.403  66.574  1.00  0.00    -0.193 A  
HETATM    9  H   UNL     1     -11.698   8.433  69.058  1.00  0.00     0.000 HD 
HETATM   10  C   UNL     1      -8.706   9.632  65.628  1.00  0.00    -0.163 A  
HETATM   11  C   UNL     1      -8.898   8.239  65.622  1.00  0.00    -0.172 A  
BRANCH  10  12
HETATM   12  C   UNL     1      -7.842  10.316  64.589  1.00  0.00    -0.123 C  
HETATM   13  O   UNL     1      -6.694   9.510  64.292  1.00  0.00    -0.092 OA 
HETATM   14  H   UNL     1      -6.152   9.939  63.640  1.00  0.00     0.000 HD 
BRANCH  12  15
HETATM   15  C   UNL     1      -8.650  10.564  63.298  1.00  0.00    -0.179 C  
BRANCH  15  16
HETATM   16  N   UNL     1      -9.434  11.807  63.387  1.00  0.00    -0.563 NA 
HETATM   17  H   UNL     1      -9.127  12.502  62.706  1.00  0.00     0.000 HD 
BRANCH  16  18
HETATM   18  C   UNL     1     -10.858  11.513  63.262  1.00  0.00    -0.264 C  
BRANCH  18  19
HETATM   19  C   UNL     1     -11.681  12.768  63.540  1.00  0.00    -0.597 C  
BRANCH  19  20
HETATM   20  C   UNL     1     -12.478  12.598  64.833  1.00  0.00    -0.564 C  
BRANCH  20  21
HETATM   21  C   UNL     1     -12.668  13.934  65.542  1.00  0.00    -0.536 C  
BRANCH  21  22
HETATM   22  C   UNL     1     -12.093  13.896  66.954  1.00  0.00    -0.467 C  
BRANCH  22  23
HETATM   23  C   UNL     1     -10.574  13.947  66.915  1.00  0.00    -0.280 C  
BRANCH  23  24
HETATM   24  O   UNL     1     -10.072  13.670  68.218  1.00  0.00    -0.229 OA 
BRANCH  24  25
HETATM   25  C   UNL     1      -8.678  13.959  68.294  1.00  0.00    -0.183 C  
BRANCH  25  26
HETATM   26  C   UNL     1      -8.284  14.879  67.151  1.00  0.00    -0.215 C  
BRANCH  26  27
HETATM   27  O   UNL     1      -7.416  15.895  67.655  1.00  0.00    -0.130 OA 
BRANCH  27  28
HETATM   28  C   UNL     1      -8.050  16.661  68.669  1.00  0.00    -0.237 C  
BRANCH  28  29
HETATM   29  C   UNL     1      -8.683  17.870  68.036  1.00  0.00    -0.256 A  
HETATM   30  C   UNL     1      -7.901  18.890  67.466  1.00  0.00    -0.237 A  
HETATM   31 CL   UNL     1      -6.172  18.862  67.511  1.00  0.00    -0.183 Cl 
HETATM   32  C   UNL     1      -8.497  19.989  66.832  1.00  0.00    -0.385 A  
HETATM   33  C   UNL     1      -9.882  20.101  66.777  1.00  0.00    -0.591 A  
HETATM   34  C   UNL     1     -10.674  19.130  67.382  1.00  0.00    -0.578 A  
HETATM   35  C   UNL     1     -10.081  18.031  68.016  1.00  0.00    -0.365 A  
HETATM   36 CL   UNL     1     -11.150  16.895  68.766  1.00  0.00    -0.231 Cl 
ENDBRANCH  28  29
ENDBRANCH  27  28
ENDBRANCH  26  27
ENDBRANCH  25  26
ENDBRANCH  24  25
ENDBRANCH  23  24
ENDBRANCH  22  23
ENDBRANCH  21  22
ENDBRANCH  20  21
ENDBRANCH  19  20
ENDBRANCH  18  19
ENDBRANCH  16  18
ENDBRANCH  15  16
ENDBRANCH  12  15
ENDBRANCH  10  12
ENDBRANCH   2   4
TORSDOF 16
ENDMDL
MODEL      147
REMARK 921   NORMALIZED FREE ENERGY PREDICTED BY IDOCK:   -5.12 KCAL/MOL
REMARK 922        TOTAL FREE ENERGY PREDICTED BY IDOCK:  -11.97 KCAL/MOL
REMARK 923 INTER-LIGAND FREE ENERGY PREDICTED BY IDOCK:  -10.16 KCAL/MOL
REMARK 924 INTRA-LIGAND FREE ENERGY PREDICTED BY IDOCK:   -1.81 KCAL/MOL
REMARK 927      BINDING AFFINITY PREDICTED BY RF-SCORE:    0.00 PKD
ROOT
HETATM    1  O   UNL     1     -10.651  16.242  69.464  1.00  0.00    -0.272 OA 
HETATM    2  C   UNL     1     -11.756  15.958  68.604  1.00  0.00    -0.322 C  
HETATM    3  H   UNL     1     -10.622  17.165  69.687  1.00  0.00     0.000 HD 
ENDROOT
BRANCH   2   4
HETATM    4  C   UNL     1     -11.802  14.494  68.251  1.00  0.00    -0.347 A  
HETATM    5  C   UNL     1     -11.678  13.470  69.197  1.00  0.00    -0.327 A  
HETATM    6  O   UNL     1     -11.577  13.732  70.535  1.00  0.00    -0.504 OA 
HETATM    7  C   UNL     1     -11.654  12.131  68.819  1.00  0.00    -0.380 A  
HETATM    8  C   UNL     1     -11.765  11.787  67.473  1.00  0.00    -0.312 A  
HETATM    9  H   UNL     1     -11.492  13.037  71.177  1.00  0.00     0.000 HD 
HETATM   10  C   UNL     1     -11.893  12.782  66.494  1.00  0.00    -0.471 A  
HETATM   11  C   UNL     1     -11.897  14.129  66.896  1.00  0.00    -0.458 A  
BRANCH  10  12
HETATM   12  C   UNL     1     -11.943  12.391  65.032  1.00  0.00    -0.402 C  
HETATM   13  O   UNL     1     -13.272  12.563  64.519  1.00  0.00    -0.832 OA 
HETATM   14  H   UNL     1     -13.303  12.318  63.601  1.00  0.00     0.000 HD 
BRANCH  12  15
HETATM   15  C   UNL     1     -10.957  13.251  64.214  1.00  0.00    -0.395 C  
BRANCH  15  16
HETATM   16  N   UNL     1      -9.752  12.486  63.852  1.00  0.00    -0.655 NA 
HETATM   17  H   UNL     1      -9.030  12.548  64.570  1.00  0.00     0.000 HD 
BRANCH  16  18
HETATM   18  C   UNL     1     -10.106  11.102  63.554  1.00  0.00    -0.385 C  
BRANCH  18  19
HETATM   19  C   UNL     1      -9.537  10.172  64.621  1.00  0.00    -0.379 C  
BRANCH  19  20
HETATM   20  C   UNL     1      -8.010  10.165  64.553  1.00  0.00    -0.147 C  
BRANCH  20  21
HETATM   21  C   UNL     1      -7.398  10.521  65.903  1.00  0.00    -0.142 C  
BRANCH  21  22
HETATM   22  C   UNL     1      -8.429  11.169  66.822  1.00  0.00    -0.153 C  
BRANCH  22  23
HETATM   23  C   UNL     1      -7.930  11.187  68.258  1.00  0.00    -0.127 C  
BRANCH  23  24
HETATM   24  O   UNL     1      -8.023   9.870  68.792  1.00  0.00    -0.087 OA 
BRANCH  24  25
HETATM   25  C   UNL     1      -9.057   9.795  69.770  1.00  0.00    -0.225 C  
BRANCH  25  26
HETATM   26  C   UNL     1     -10.176   8.898  69.266  1.00  0.00    -0.209 C  
BRANCH  26  27
HETATM   27  O   UNL     1      -9.739   7.540  69.324  1.00  0.00    -0.161 OA 
BRANCH  27  28
HETATM   28  C   UNL     1     -10.839   6.643  69.358  1.00  0.00    -0.292 C  
BRANCH  28  29
HETATM   29  C   UNL     1     -10.721   5.780  70.584  1.00  0.00    -0.351 A  
HETATM   30  C   UNL     1     -10.064   4.537  70.542  1.00  0.00    -0.162 A  
HETATM   31 CL   UNL     1      -9.409   3.888  69.077  1.00  0.00    -0.222 Cl 
HETATM   32  C   UNL     1      -9.911   3.761  71.699  1.00  0.00    -0.211 A  
HETATM   33  C   UNL     1     -10.433   4.199  72.911  1.00  0.00    -0.246 A  
HETATM   34  C   UNL     1     -11.133   5.399  72.963  1.00  0.00    -0.368 A  
HETATM   35  C   UNL     1     -11.287   6.177  71.809  1.00  0.00    -0.291 A  
HETATM   36 CL   UNL     1     -12.202   7.638  71.970  1.00  0.00    -0.325 Cl 
ENDBRANCH  28  29
ENDBRANCH  27  28
ENDBRANCH  26  27
ENDBRANCH  25  26
ENDBRANCH  24  25
ENDBRANCH  23  24
ENDBRANCH  22  23
ENDBRANCH  21  22
ENDBRANCH  20  21
ENDBRANCH  19  20
ENDBRANCH  18  19
ENDBRANCH  16  18
ENDBRANCH  15  16
ENDBRANCH  12  15
ENDBRANCH  10  12
ENDBRANCH   2   4
TORSDOF 16
ENDMDL
MODEL      148
REMARK 921   NORMALIZED FREE ENERGY PREDICTED BY IDOCK:   -5.11 KCAL/MOL
REMARK 922        TOTAL FREE ENERGY PREDICTED BY IDOCK:  -11.97 KCAL/MOL
REMARK 923 INTER-LIGAND FREE ENERGY PREDICTED BY IDOCK:  -10.65 KCAL/MOL
REMARK 924 INTRA-LIGAND FREE ENERGY PREDICTED BY IDOCK:   -1.32 KCAL/MOL
REMARK 927      BINDING AFFINITY PREDICTED BY RF-SCORE:    0.00 PKD
ROOT
HETATM    1  O   UNL     1      -8.264  10.077  70.549  1.00  0.00    -0.396 OA 
HETATM    2  C   UNL     1      -7.842   8.844  69.966  1.00  0.00    -0.095 C  
HETATM    3  H   UNL     1      -7.530  10.670  70.661  1.00  0.00     0.000 HD 
ENDROOT
BRANCH   2   4
HETATM    4  C   UNL     1      -9.006   7.904  69.789  1.00  0.00    -0.146 A  
HETATM    5  C   UNL     1      -9.363   7.346  68.556  1.00  0.00    -0.141 A  
HETATM    6  O   UNL     1      -8.626   7.561  67.425  1.00  0.00    -0.118 OA 
HETATM    7  C   UNL     1     -10.489   6.538  68.423  1.00  0.00    -0.258 A  
HETATM    8  C   UNL     1     -11.282   6.264  69.535  1.00  0.00    -0.500 A  
HETATM    9  H   UNL     1      -8.868   7.183  66.589  1.00  0.00     0.000 HD 
HETATM   10  C   UNL     1     -10.958   6.802  70.789  1.00  0.00    -0.306 A  
HETATM   11  C   UNL     1      -9.826   7.630  70.897  1.00  0.00    -0.179 A  
BRANCH  10  12
HETATM   12  C   UNL     1     -11.870   6.549  71.971  1.00  0.00    -0.329 C  
HETATM   13  O   UNL     1     -11.402   7.268  73.120  1.00  0.00    -0.546 OA 
HETATM   14  H   UNL     1     -11.974   7.110  73.862  1.00  0.00     0.000 HD 
BRANCH  12  15
HETATM   15  C   UNL     1     -13.312   6.987  71.638  1.00  0.00    -0.285 C  
BRANCH  15  16
HETATM   16  N   UNL     1     -13.344   8.351  71.084  1.00  0.00    -0.532 NA 
HETATM   17  H   UNL     1     -13.938   8.414  70.257  1.00  0.00     0.000 HD 
BRANCH  16  18
HETATM   18  C   UNL     1     -13.743   9.303  72.115  1.00  0.00    -0.453 C  
BRANCH  18  19
HETATM   19  C   UNL     1     -13.080  10.655  71.867  1.00  0.00    -0.563 C  
BRANCH  19  20
HETATM   20  C   UNL     1     -11.985  10.518  70.809  1.00  0.00    -0.472 C  
BRANCH  20  21
HETATM   21  C   UNL     1     -11.934  11.747  69.909  1.00  0.00    -0.405 C  
BRANCH  21  22
HETATM   22  C   UNL     1     -12.260  13.017  70.690  1.00  0.00    -0.390 C  
BRANCH  22  23
HETATM   23  C   UNL     1     -12.113  14.243  69.804  1.00  0.00    -0.347 C  
BRANCH  23  24
HETATM   24  O   UNL     1     -12.462  15.399  70.559  1.00  0.00    -0.372 OA 
BRANCH  24  25
HETATM   25  C   UNL     1     -11.303  16.172  70.863  1.00  0.00    -0.359 C  
BRANCH  25  26
HETATM   26  C   UNL     1     -10.333  16.121  69.695  1.00  0.00    -0.271 C  
BRANCH  26  27
HETATM   27  O   UNL     1     -10.408  17.354  68.979  1.00  0.00    -0.343 OA 
BRANCH  27  28
HETATM   28  C   UNL     1     -10.423  17.138  67.575  1.00  0.00    -0.348 C  
BRANCH  28  29
HETATM   29  C   UNL     1      -9.147  17.679  66.990  1.00  0.00    -0.256 A  
HETATM   30  C   UNL     1      -8.993  19.049  66.714  1.00  0.00    -0.313 A  
HETATM   31 CL   UNL     1     -10.270  20.190  66.962  1.00  0.00    -0.576 Cl 
HETATM   32  C   UNL     1      -7.784  19.554  66.217  1.00  0.00    -0.320 A  
HETATM   33  C   UNL     1      -6.717  18.699  65.964  1.00  0.00    -0.285 A  
HETATM   34  C   UNL     1      -6.867  17.333  66.179  1.00  0.00    -0.227 A  
HETATM   35  C   UNL     1      -8.074  16.825  66.676  1.00  0.00    -0.265 A  
HETATM   36 CL   UNL     1      -8.171  15.109  66.879  1.00  0.00    -0.257 Cl 
ENDBRANCH  28  29
ENDBRANCH  27  28
ENDBRANCH  26  27
ENDBRANCH  25  26
ENDBRANCH  24  25
ENDBRANCH  23  24
ENDBRANCH  22  23
ENDBRANCH  21  22
ENDBRANCH  20  21
ENDBRANCH  19  20
ENDBRANCH  18  19
ENDBRANCH  16  18
ENDBRANCH  15  16
ENDBRANCH  12  15
ENDBRANCH  10  12
ENDBRANCH   2   4
TORSDOF 16
ENDMDL
MODEL      149
REMARK 921   NORMALIZED FREE ENERGY PREDICTED BY IDOCK:   -5.11 KCAL/MOL
REMARK 922        TOTAL FREE ENERGY PREDICTED BY IDOCK:  -11.96 KCAL/MOL
REMARK 923 INTER-LIGAND FREE ENERGY PREDICTED BY IDOCK:   -9.53 KCAL/MOL
REMARK 924 INTRA-LIGAND FREE ENERGY PREDICTED BY IDOCK:   -2.44 KCAL/MOL
REMARK 927      BINDING AFFINITY PREDICTED BY RF-SCORE:    0.00 PKD
ROOT
HETATM    1  O   UNL     1     -10.683   9.711  71.123  1.00  0.00    -0.329 OA 
HETATM    2  C   UNL     1     -11.952  10.039  70.556  1.00  0.00    -0.272 C  
HETATM    3  H   UNL     1     -10.523   8.775  71.082  1.00  0.00     0.000 HD 
ENDROOT
BRANCH   2   4
HETATM    4  C   UNL     1     -12.205  11.523  70.621  1.00  0.00    -0.473 A  
HETATM    5  C   UNL     1     -12.979  12.128  71.618  1.00  0.00    -0.321 A  
HETATM    6  O   UNL     1     -13.507  11.412  72.656  1.00  0.00    -0.433 OA 
HETATM    7  C   UNL     1     -13.248  13.494  71.600  1.00  0.00    -0.449 A  
HETATM    8  C   UNL     1     -12.734  14.290  70.579  1.00  0.00    -0.391 A  
HETATM    9  H   UNL     1     -14.032  11.822  73.332  1.00  0.00     0.000 HD 
HETATM   10  C   UNL     1     -11.952  13.723  69.563  1.00  0.00    -0.399 A  
HETATM   11  C   UNL     1     -11.708  12.339  69.590  1.00  0.00    -0.386 A  
BRANCH  10  12
HETATM   12  C   UNL     1     -11.459  14.593  68.425  1.00  0.00    -0.311 C  
HETATM   13  O   UNL     1     -12.403  14.575  67.345  1.00  0.00    -0.614 OA 
HETATM   14  H   UNL     1     -12.094  15.121  66.631  1.00  0.00     0.000 HD 
BRANCH  12  15
HETATM   15  C   UNL     1     -11.252  16.043  68.908  1.00  0.00    -0.353 C  
BRANCH  15  16
HETATM   16  N   UNL     1     -10.762  16.906  67.820  1.00  0.00    -0.337 NA 
HETATM   17  H   UNL     1     -11.437  16.980  67.058  1.00  0.00     0.000 HD 
BRANCH  16  18
HETATM   18  C   UNL     1     -10.387  18.214  68.346  1.00  0.00    -0.356 C  
BRANCH  18  19
HETATM   19  C   UNL     1     -10.752  19.307  67.345  1.00  0.00    -0.594 C  
BRANCH  19  20
HETATM   20  C   UNL     1      -9.484  19.929  66.760  1.00  0.00    -0.510 C  
BRANCH  20  21
HETATM   21  C   UNL     1      -8.236  19.229  67.284  1.00  0.00    -0.304 C  
BRANCH  21  22
HETATM   22  C   UNL     1      -7.497  18.507  66.162  1.00  0.00    -0.282 C  
BRANCH  22  23
HETATM   23  C   UNL     1      -6.792  17.270  66.695  1.00  0.00    -0.237 C  
BRANCH  23  24
HETATM   24  O   UNL     1      -7.708  16.527  67.492  1.00  0.00    -0.140 OA 
BRANCH  24  25
HETATM   25  C   UNL     1      -7.665  15.143  67.152  1.00  0.00    -0.188 C  
BRANCH  25  26
HETATM   26  C   UNL     1      -7.434  14.315  68.405  1.00  0.00    -0.122 C  
BRANCH  26  27
HETATM   27  O   UNL     1      -8.263  13.154  68.350  1.00  0.00    -0.154 OA 
BRANCH  27  28
HETATM   28  C   UNL     1      -7.866  12.283  67.300  1.00  0.00    -0.171 C  
BRANCH  28  29
HETATM   29  C   UNL     1      -8.669  11.015  67.396  1.00  0.00    -0.132 A  
HETATM   30  C   UNL     1      -9.896  10.874  66.725  1.00  0.00    -0.195 A  
HETATM   31 CL   UNL     1     -10.598  12.160  65.804  1.00  0.00    -0.286 Cl 
HETATM   32  C   UNL     1     -10.614   9.671  66.776  1.00  0.00    -0.209 A  
HETATM   33  C   UNL     1     -10.132   8.598  67.517  1.00  0.00    -0.277 A  
HETATM   34  C   UNL     1      -8.947   8.734  68.232  1.00  0.00    -0.141 A  
HETATM   35  C   UNL     1      -8.227   9.935  68.183  1.00  0.00    -0.109 A  
HETATM   36 CL   UNL     1      -6.782  10.016  69.132  1.00  0.00    -0.052 Cl 
ENDBRANCH  28  29
ENDBRANCH  27  28
ENDBRANCH  26  27
ENDBRANCH  25  26
ENDBRANCH  24  25
ENDBRANCH  23  24
ENDBRANCH  22  23
ENDBRANCH  21  22
ENDBRANCH  20  21
ENDBRANCH  19  20
ENDBRANCH  18  19
ENDBRANCH  16  18
ENDBRANCH  15  16
ENDBRANCH  12  15
ENDBRANCH  10  12
ENDBRANCH   2   4
TORSDOF 16
ENDMDL
MODEL      150
REMARK 921   NORMALIZED FREE ENERGY PREDICTED BY IDOCK:   -5.10 KCAL/MOL
REMARK 922        TOTAL FREE ENERGY PREDICTED BY IDOCK:  -11.95 KCAL/MOL
REMARK 923 INTER-LIGAND FREE ENERGY PREDICTED BY IDOCK:  -10.73 KCAL/MOL
REMARK 924 INTRA-LIGAND FREE ENERGY PREDICTED BY IDOCK:   -1.23 KCAL/MOL
REMARK 927      BINDING AFFINITY PREDICTED BY RF-SCORE:    0.00 PKD
ROOT
HETATM    1  O   UNL     1      -9.393  20.453  65.838  1.00  0.00    -0.621 OA 
HETATM    2  C   UNL     1      -9.480  19.688  67.041  1.00  0.00    -0.349 C  
HETATM    3  H   UNL     1      -9.465  21.383  66.019  1.00  0.00     0.000 HD 
ENDROOT
BRANCH   2   4
HETATM    4  C   UNL     1      -9.366  18.213  66.753  1.00  0.00    -0.286 A  
HETATM    5  C   UNL     1      -8.236  17.452  67.073  1.00  0.00    -0.217 A  
HETATM    6  O   UNL     1      -7.172  17.988  67.744  1.00  0.00    -0.205 OA 
HETATM    7  C   UNL     1      -8.142  16.108  66.724  1.00  0.00    -0.305 A  
HETATM    8  C   UNL     1      -9.193  15.491  66.049  1.00  0.00    -0.361 A  
HETATM    9  H   UNL     1      -6.405  17.472  67.962  1.00  0.00     0.000 HD 
HETATM   10  C   UNL     1     -10.344  16.217  65.711  1.00  0.00    -0.393 A  
HETATM   11  C   UNL     1     -10.410  17.579  66.057  1.00  0.00    -0.309 A  
BRANCH  10  12
HETATM   12  C   UNL     1     -11.445  15.547  64.917  1.00  0.00    -0.279 C  
HETATM   13  O   UNL     1     -11.638  16.225  63.668  1.00  0.00    -1.424 OA 
HETATM   14  H   UNL     1     -12.329  15.805  63.170  1.00  0.00     0.000 HD 
BRANCH  12  15
HETATM   15  C   UNL     1     -11.094  14.068  64.654  1.00  0.00    -0.382 C  
BRANCH  15  16
HETATM   16  N   UNL     1     -11.822  13.173  65.570  1.00  0.00    -0.358 NA 
HETATM   17  H   UNL     1     -12.772  12.988  65.248  1.00  0.00     0.000 HD 
BRANCH  16  18
HETATM   18  C   UNL     1     -11.067  11.942  65.775  1.00  0.00    -0.317 C  
BRANCH  18  19
HETATM   19  C   UNL     1     -11.112  11.536  67.246  1.00  0.00    -0.351 C  
BRANCH  19  20
HETATM   20  C   UNL     1     -11.440  12.749  68.116  1.00  0.00    -0.357 C  
BRANCH  20  21
HETATM   21  C   UNL     1     -11.683  12.338  69.564  1.00  0.00    -0.398 C  
BRANCH  21  22
HETATM   22  C   UNL     1     -12.111  10.877  69.657  1.00  0.00    -0.400 C  
BRANCH  22  23
HETATM   23  C   UNL     1     -12.713  10.581  71.021  1.00  0.00    -0.408 C  
BRANCH  23  24
HETATM   24  O   UNL     1     -11.862   9.672  71.711  1.00  0.00    -0.386 OA 
BRANCH  24  25
HETATM   25  C   UNL     1     -12.626   8.659  72.361  1.00  0.00    -0.362 C  
BRANCH  25  26
HETATM   26  C   UNL     1     -12.108   7.288  71.959  1.00  0.00    -0.290 C  
BRANCH  26  27
HETATM   27  O   UNL     1     -11.079   7.453  70.983  1.00  0.00    -0.248 OA 
BRANCH  27  28
HETATM   28  C   UNL     1     -11.421   6.822  69.758  1.00  0.00    -0.263 C  
BRANCH  28  29
HETATM   29  C   UNL     1     -10.177   6.226  69.158  1.00  0.00    -0.229 A  
HETATM   30  C   UNL     1      -9.684   6.662  67.915  1.00  0.00    -0.122 A  
HETATM   31 CL   UNL     1     -10.501   7.855  66.964  1.00  0.00    -0.412 Cl 
HETATM   32  C   UNL     1      -8.496   6.140  67.385  1.00  0.00    -0.107 A  
HETATM   33  C   UNL     1      -7.793   5.158  68.074  1.00  0.00    -0.087 A  
HETATM   34  C   UNL     1      -8.292   4.674  69.279  1.00  0.00    -0.084 A  
HETATM   35  C   UNL     1      -9.479   5.194  69.811  1.00  0.00    -0.150 A  
HETATM   36 CL   UNL     1     -10.033   4.504  71.299  1.00  0.00    -0.265 Cl 
ENDBRANCH  28  29
ENDBRANCH  27  28
ENDBRANCH  26  27
ENDBRANCH  25  26
ENDBRANCH  24  25
ENDBRANCH  23  24
ENDBRANCH  22  23
ENDBRANCH  21  22
ENDBRANCH  20  21
ENDBRANCH  19  20
ENDBRANCH  18  19
ENDBRANCH  16  18
ENDBRANCH  15  16
ENDBRANCH  12  15
ENDBRANCH  10  12
ENDBRANCH   2   4
TORSDOF 16
ENDMDL
MODEL      151
REMARK 921   NORMALIZED FREE ENERGY PREDICTED BY IDOCK:   -5.10 KCAL/MOL
REMARK 922        TOTAL FREE ENERGY PREDICTED BY IDOCK:  -11.95 KCAL/MOL
REMARK 923 INTER-LIGAND FREE ENERGY PREDICTED BY IDOCK:  -10.41 KCAL/MOL
REMARK 924 INTRA-LIGAND FREE ENERGY PREDICTED BY IDOCK:   -1.54 KCAL/MOL
REMARK 927      BINDING AFFINITY PREDICTED BY RF-SCORE:    0.00 PKD
ROOT
HETATM    1  O   UNL     1      -8.305   5.769  68.267  1.00  0.00    -0.107 OA 
HETATM    2  C   UNL     1      -8.865   4.852  69.208  1.00  0.00    -0.088 C  
HETATM    3  H   UNL     1      -7.885   5.308  67.550  1.00  0.00     0.000 HD 
ENDROOT
BRANCH   2   4
HETATM    4  C   UNL     1      -9.530   5.584  70.345  1.00  0.00    -0.209 A  
HETATM    5  C   UNL     1     -10.135   4.935  71.428  1.00  0.00    -0.198 A  
HETATM    6  O   UNL     1     -10.099   3.576  71.567  1.00  0.00    -0.142 OA 
HETATM    7  C   UNL     1     -10.801   5.647  72.421  1.00  0.00    -0.298 A  
HETATM    8  C   UNL     1     -10.869   7.037  72.353  1.00  0.00    -0.272 A  
HETATM    9  H   UNL     1     -10.509   3.136  72.301  1.00  0.00     0.000 HD 
HETATM   10  C   UNL     1     -10.275   7.725  71.286  1.00  0.00    -0.218 A  
HETATM   11  C   UNL     1      -9.622   6.985  70.284  1.00  0.00    -0.168 A  
BRANCH  10  12
HETATM   12  C   UNL     1     -10.418   9.230  71.193  1.00  0.00    -0.331 C  
HETATM   13  O   UNL     1      -9.140   9.834  70.946  1.00  0.00    -0.343 OA 
HETATM   14  H   UNL     1      -9.230  10.778  70.887  1.00  0.00     0.000 HD 
BRANCH  12  15
HETATM   15  C   UNL     1     -11.396   9.607  70.061  1.00  0.00    -0.195 C  
BRANCH  15  16
HETATM   16  N   UNL     1     -12.784   9.662  70.549  1.00  0.00    -0.512 NA 
HETATM   17  H   UNL     1     -13.164   8.732  70.727  1.00  0.00     0.000 HD 
BRANCH  16  18
HETATM   18  C   UNL     1     -12.869  10.520  71.726  1.00  0.00    -0.454 C  
BRANCH  18  19
HETATM   19  C   UNL     1     -12.888  11.987  71.307  1.00  0.00    -0.364 C  
BRANCH  19  20
HETATM   20  C   UNL     1     -13.630  12.823  72.350  1.00  0.00    -0.507 C  
BRANCH  20  21
HETATM   21  C   UNL     1     -13.855  14.247  71.856  1.00  0.00    -0.545 C  
BRANCH  21  22
HETATM   22  C   UNL     1     -12.971  15.237  72.607  1.00  0.00    -0.504 C  
BRANCH  22  23
HETATM   23  C   UNL     1     -12.041  15.961  71.646  1.00  0.00    -0.484 C  
BRANCH  23  24
HETATM   24  O   UNL     1     -11.083  15.032  71.149  1.00  0.00    -0.267 OA 
BRANCH  24  25
HETATM   25  C   UNL     1     -10.808  15.281  69.772  1.00  0.00    -0.289 C  
BRANCH  25  26
HETATM   26  C   UNL     1     -11.707  14.415  68.905  1.00  0.00    -0.322 C  
BRANCH  26  27
HETATM   27  O   UNL     1     -10.893  13.661  68.007  1.00  0.00    -0.237 OA 
BRANCH  27  28
HETATM   28  C   UNL     1     -11.544  12.467  67.596  1.00  0.00    -0.355 C  
BRANCH  28  29
HETATM   29  C   UNL     1     -11.191  12.195  66.159  1.00  0.00    -0.386 A  
HETATM   30  C   UNL     1     -11.785  12.919  65.111  1.00  0.00    -0.349 A  
HETATM   31 CL   UNL     1     -13.004  14.116  65.390  1.00  0.00    -0.429 Cl 
HETATM   32  C   UNL     1     -11.415  12.696  63.777  1.00  0.00    -0.539 A  
HETATM   33  C   UNL     1     -10.462  11.732  63.466  1.00  0.00    -0.500 A  
HETATM   34  C   UNL     1      -9.901  10.968  64.483  1.00  0.00    -0.343 A  
HETATM   35  C   UNL     1     -10.270  11.188  65.817  1.00  0.00    -0.257 A  
HETATM   36 CL   UNL     1      -9.539  10.164  67.006  1.00  0.00    -0.197 Cl 
ENDBRANCH  28  29
ENDBRANCH  27  28
ENDBRANCH  26  27
ENDBRANCH  25  26
ENDBRANCH  24  25
ENDBRANCH  23  24
ENDBRANCH  22  23
ENDBRANCH  21  22
ENDBRANCH  20  21
ENDBRANCH  19  20
ENDBRANCH  18  19
ENDBRANCH  16  18
ENDBRANCH  15  16
ENDBRANCH  12  15
ENDBRANCH  10  12
ENDBRANCH   2   4
TORSDOF 16
ENDMDL
MODEL      152
REMARK 921   NORMALIZED FREE ENERGY PREDICTED BY IDOCK:   -5.10 KCAL/MOL
REMARK 922        TOTAL FREE ENERGY PREDICTED BY IDOCK:  -11.95 KCAL/MOL
REMARK 923 INTER-LIGAND FREE ENERGY PREDICTED BY IDOCK:  -10.24 KCAL/MOL
REMARK 924 INTRA-LIGAND FREE ENERGY PREDICTED BY IDOCK:   -1.71 KCAL/MOL
REMARK 927      BINDING AFFINITY PREDICTED BY RF-SCORE:    0.00 PKD
ROOT
HETATM    1  O   UNL     1     -13.018   7.623  72.314  1.00  0.00    -0.495 OA 
HETATM    2  C   UNL     1     -12.280   6.597  71.649  1.00  0.00    -0.352 C  
HETATM    3  H   UNL     1     -13.620   7.253  72.949  1.00  0.00     0.000 HD 
ENDROOT
BRANCH   2   4
HETATM    4  C   UNL     1     -11.326   7.184  70.642  1.00  0.00    -0.327 A  
HETATM    5  C   UNL     1     -10.686   8.416  70.815  1.00  0.00    -0.212 A  
HETATM    6  O   UNL     1     -10.828   9.148  71.961  1.00  0.00    -0.352 OA 
HETATM    7  C   UNL     1      -9.867   8.955  69.827  1.00  0.00    -0.186 A  
HETATM    8  C   UNL     1      -9.665   8.260  68.637  1.00  0.00    -0.162 A  
HETATM    9  H   UNL     1     -10.394   9.984  72.079  1.00  0.00     0.000 HD 
HETATM   10  C   UNL     1     -10.286   7.021  68.424  1.00  0.00    -0.216 A  
HETATM   11  C   UNL     1     -11.124   6.503  69.428  1.00  0.00    -0.407 A  
BRANCH  10  12
HETATM   12  C   UNL     1     -10.109   6.313  67.097  1.00  0.00    -0.168 C  
HETATM   13  O   UNL     1     -11.381   6.138  66.456  1.00  0.00    -0.745 OA 
HETATM   14  H   UNL     1     -11.270   5.694  65.623  1.00  0.00     0.000 HD 
BRANCH  12  15
HETATM   15  C   UNL     1      -9.173   7.124  66.177  1.00  0.00    -0.082 C  
BRANCH  15  16
HETATM   16  N   UNL     1      -8.423   6.244  65.266  1.00  0.00    -0.238 NA 
HETATM   17  H   UNL     1      -8.968   5.427  64.989  1.00  0.00     0.000 HD 
BRANCH  16  18
HETATM   18  C   UNL     1      -7.951   7.000  64.111  1.00  0.00    -0.079 C  
BRANCH  18  19
HETATM   19  C   UNL     1      -7.961   8.495  64.422  1.00  0.00    -0.147 C  
BRANCH  19  20
HETATM   20  C   UNL     1      -7.941   9.303  63.125  1.00  0.00    -0.147 C  
BRANCH  20  21
HETATM   21  C   UNL     1      -9.265  10.025  62.907  1.00  0.00    -0.311 C  
BRANCH  21  22
HETATM   22  C   UNL     1      -9.822  10.565  64.220  1.00  0.00    -0.402 C  
BRANCH  22  23
HETATM   23  C   UNL     1     -11.012  11.475  63.963  1.00  0.00    -0.383 C  
BRANCH  23  24
HETATM   24  O   UNL     1     -10.574  12.828  64.017  1.00  0.00    -0.392 OA 
BRANCH  24  25
HETATM   25  C   UNL     1     -11.678  13.708  64.220  1.00  0.00    -0.403 C  
BRANCH  25  26
HETATM   26  C   UNL     1     -12.638  13.099  65.229  1.00  0.00    -0.472 C  
BRANCH  26  27
HETATM   27  O   UNL     1     -12.639  13.905  66.408  1.00  0.00    -0.413 OA 
BRANCH  27  28
HETATM   28  C   UNL     1     -11.435  13.748  67.143  1.00  0.00    -0.340 C  
BRANCH  28  29
HETATM   29  C   UNL     1     -11.704  14.078  68.586  1.00  0.00    -0.389 A  
HETATM   30  C   UNL     1     -11.574  15.392  69.071  1.00  0.00    -0.347 A  
HETATM   31 CL   UNL     1     -11.037  16.697  68.070  1.00  0.00    -0.312 Cl 
HETATM   32  C   UNL     1     -11.876  15.703  70.404  1.00  0.00    -0.395 A  
HETATM   33  C   UNL     1     -12.289  14.705  71.281  1.00  0.00    -0.407 A  
HETATM   34  C   UNL     1     -12.371  13.391  70.835  1.00  0.00    -0.436 A  
HETATM   35  C   UNL     1     -12.070  13.077  69.503  1.00  0.00    -0.230 A  
HETATM   36 CL   UNL     1     -12.172  11.408  69.055  1.00  0.00    -0.296 Cl 
ENDBRANCH  28  29
ENDBRANCH  27  28
ENDBRANCH  26  27
ENDBRANCH  25  26
ENDBRANCH  24  25
ENDBRANCH  23  24
ENDBRANCH  22  23
ENDBRANCH  21  22
ENDBRANCH  20  21
ENDBRANCH  19  20
ENDBRANCH  18  19
ENDBRANCH  16  18
ENDBRANCH  15  16
ENDBRANCH  12  15
ENDBRANCH  10  12
ENDBRANCH   2   4
TORSDOF 16
ENDMDL
MODEL      153
REMARK 921   NORMALIZED FREE ENERGY PREDICTED BY IDOCK:   -5.09 KCAL/MOL
REMARK 922        TOTAL FREE ENERGY PREDICTED BY IDOCK:  -11.93 KCAL/MOL
REMARK 923 INTER-LIGAND FREE ENERGY PREDICTED BY IDOCK:   -9.81 KCAL/MOL
REMARK 924 INTRA-LIGAND FREE ENERGY PREDICTED BY IDOCK:   -2.12 KCAL/MOL
REMARK 927      BINDING AFFINITY PREDICTED BY RF-SCORE:    0.00 PKD
ROOT
HETATM    1  O   UNL     1     -10.495  16.667  67.235  1.00  0.00    -0.315 OA 
HETATM    2  C   UNL     1      -9.955  16.421  65.936  1.00  0.00    -0.332 C  
HETATM    3  H   UNL     1     -10.177  17.490  67.587  1.00  0.00     0.000 HD 
ENDROOT
BRANCH   2   4
HETATM    4  C   UNL     1     -10.460  15.116  65.378  1.00  0.00    -0.416 A  
HETATM    5  C   UNL     1     -11.424  15.033  64.367  1.00  0.00    -0.233 A  
HETATM    6  O   UNL     1     -11.927  16.148  63.757  1.00  0.00    -1.394 OA 
HETATM    7  C   UNL     1     -11.916  13.806  63.931  1.00  0.00    -0.414 A  
HETATM    8  C   UNL     1     -11.441  12.626  64.498  1.00  0.00    -0.389 A  
HETATM    9  H   UNL     1     -12.581  16.093  63.071  1.00  0.00     0.000 HD 
HETATM   10  C   UNL     1     -10.474  12.665  65.513  1.00  0.00    -0.304 A  
HETATM   11  C   UNL     1     -10.004  13.916  65.951  1.00  0.00    -0.317 A  
BRANCH  10  12
HETATM   12  C   UNL     1     -10.021  11.375  66.165  1.00  0.00    -0.227 C  
HETATM   13  O   UNL     1      -8.721  11.545  66.747  1.00  0.00    -0.167 OA 
HETATM   14  H   UNL     1      -8.437  10.736  67.156  1.00  0.00     0.000 HD 
BRANCH  12  15
HETATM   15  C   UNL     1     -11.024  10.944  67.255  1.00  0.00    -0.294 C  
BRANCH  15  16
HETATM   16  N   UNL     1     -10.928   9.501  67.531  1.00  0.00    -0.433 NA 
HETATM   17  H   UNL     1     -11.844   9.079  67.684  1.00  0.00     0.000 HD 
BRANCH  16  18
HETATM   18  C   UNL     1     -10.192   8.833  66.463  1.00  0.00    -0.244 C  
BRANCH  18  19
HETATM   19  C   UNL     1      -9.102   7.941  67.053  1.00  0.00    -0.162 C  
BRANCH  19  20
HETATM   20  C   UNL     1      -8.622   8.511  68.387  1.00  0.00    -0.139 C  
BRANCH  20  21
HETATM   21  C   UNL     1      -7.754   7.504  69.134  1.00  0.00    -0.113 C  
BRANCH  21  22
HETATM   22  C   UNL     1      -7.803   7.744  70.640  1.00  0.00    -0.096 C  
BRANCH  22  23
HETATM   23  C   UNL     1      -8.627   8.981  70.959  1.00  0.00    -0.210 C  
BRANCH  23  24
HETATM   24  O   UNL     1      -9.132   8.866  72.285  1.00  0.00    -0.381 OA 
BRANCH  24  25
HETATM   25  C   UNL     1      -8.244   8.103  73.098  1.00  0.00    -0.193 C  
BRANCH  25  26
HETATM   26  C   UNL     1      -9.042   7.269  74.086  1.00  0.00    -0.228 C  
BRANCH  26  27
HETATM   27  O   UNL     1     -10.417   7.290  73.701  1.00  0.00    -0.365 OA 
BRANCH  27  28
HETATM   28  C   UNL     1     -10.905   5.981  73.448  1.00  0.00    -0.231 C  
BRANCH  28  29
HETATM   29  C   UNL     1     -10.766   5.691  71.978  1.00  0.00    -0.291 A  
HETATM   30  C   UNL     1     -11.543   6.369  71.023  1.00  0.00    -0.325 A  
HETATM   31 CL   UNL     1     -12.749   7.528  71.467  1.00  0.00    -0.375 Cl 
HETATM   32  C   UNL     1     -11.373   6.132  69.652  1.00  0.00    -0.442 A  
HETATM   33  C   UNL     1     -10.443   5.196  69.212  1.00  0.00    -0.193 A  
HETATM   34  C   UNL     1      -9.703   4.475  70.143  1.00  0.00    -0.287 A  
HETATM   35  C   UNL     1      -9.870   4.710  71.514  1.00  0.00    -0.190 A  
HETATM   36 CL   UNL     1      -8.926   3.739  72.591  1.00  0.00    -0.112 Cl 
ENDBRANCH  28  29
ENDBRANCH  27  28
ENDBRANCH  26  27
ENDBRANCH  25  26
ENDBRANCH  24  25
ENDBRANCH  23  24
ENDBRANCH  22  23
ENDBRANCH  21  22
ENDBRANCH  20  21
ENDBRANCH  19  20
ENDBRANCH  18  19
ENDBRANCH  16  18
ENDBRANCH  15  16
ENDBRANCH  12  15
ENDBRANCH  10  12
ENDBRANCH   2   4
TORSDOF 16
ENDMDL
MODEL      154
REMARK 921   NORMALIZED FREE ENERGY PREDICTED BY IDOCK:   -5.09 KCAL/MOL
REMARK 922        TOTAL FREE ENERGY PREDICTED BY IDOCK:  -11.92 KCAL/MOL
REMARK 923 INTER-LIGAND FREE ENERGY PREDICTED BY IDOCK:  -10.29 KCAL/MOL
REMARK 924 INTRA-LIGAND FREE ENERGY PREDICTED BY IDOCK:   -1.63 KCAL/MOL
REMARK 927      BINDING AFFINITY PREDICTED BY RF-SCORE:    0.00 PKD
ROOT
HETATM    1  O   UNL     1      -9.236  11.545  63.990  1.00  0.00    -0.417 OA 
HETATM    2  C   UNL     1      -9.904  11.249  65.216  1.00  0.00    -0.246 C  
HETATM    3  H   UNL     1      -9.543  12.366  63.623  1.00  0.00     0.000 HD 
ENDROOT
BRANCH   2   4
HETATM    4  C   UNL     1      -9.417   9.947  65.797  1.00  0.00    -0.280 A  
HETATM    5  C   UNL     1      -8.065   9.590  65.857  1.00  0.00    -0.115 A  
HETATM    6  O   UNL     1      -7.075  10.441  65.454  1.00  0.00    -0.139 OA 
HETATM    7  C   UNL     1      -7.664   8.346  66.336  1.00  0.00    -0.094 A  
HETATM    8  C   UNL     1      -8.617   7.430  66.777  1.00  0.00    -0.127 A  
HETATM    9  H   UNL     1      -6.158  10.199  65.494  1.00  0.00     0.000 HD 
HETATM   10  C   UNL     1      -9.981   7.750  66.735  1.00  0.00    -0.331 A  
HETATM   11  C   UNL     1     -10.366   9.005  66.231  1.00  0.00    -0.130 A  
BRANCH  10  12
HETATM   12  C   UNL     1     -11.005   6.716  67.154  1.00  0.00    -0.408 C  
HETATM   13  O   UNL     1     -11.175   5.739  66.117  1.00  0.00    -0.735 OA 
HETATM   14  H   UNL     1     -11.817   5.091  66.380  1.00  0.00     0.000 HD 
BRANCH  12  15
HETATM   15  C   UNL     1     -10.560   6.017  68.456  1.00  0.00    -0.265 C  
BRANCH  15  16
HETATM   16  N   UNL     1     -11.459   6.347  69.575  1.00  0.00    -0.586 NA 
HETATM   17  H   UNL     1     -12.370   5.898  69.479  1.00  0.00     0.000 HD 
BRANCH  16  18
HETATM   18  C   UNL     1     -10.821   6.019  70.845  1.00  0.00    -0.285 C  
BRANCH  18  19
HETATM   19  C   UNL     1     -11.770   6.317  72.003  1.00  0.00    -0.374 C  
BRANCH  19  20
HETATM   20  C   UNL     1     -12.865   7.283  71.551  1.00  0.00    -0.430 C  
BRANCH  20  21
HETATM   21  C   UNL     1     -12.643   8.675  72.129  1.00  0.00    -0.451 C  
BRANCH  21  22
HETATM   22  C   UNL     1     -13.500   9.714  71.413  1.00  0.00    -0.403 C  
BRANCH  22  23
HETATM   23  C   UNL     1     -12.735  11.017  71.248  1.00  0.00    -0.432 C  
BRANCH  23  24
HETATM   24  O   UNL     1     -11.573  10.771  70.463  1.00  0.00    -0.316 OA 
BRANCH  24  25
HETATM   25  C   UNL     1     -11.844  10.986  69.080  1.00  0.00    -0.329 C  
BRANCH  25  26
HETATM   26  C   UNL     1     -10.900  12.043  68.531  1.00  0.00    -0.233 C  
BRANCH  26  27
HETATM   27  O   UNL     1     -11.042  13.235  69.305  1.00  0.00    -0.231 OA 
BRANCH  27  28
HETATM   28  C   UNL     1     -12.002  14.112  68.734  1.00  0.00    -0.332 C  
BRANCH  28  29
HETATM   29  C   UNL     1     -11.299  15.357  68.265  1.00  0.00    -0.354 A  
HETATM   30  C   UNL     1     -10.953  15.537  66.914  1.00  0.00    -0.268 A  
HETATM   31 CL   UNL     1     -11.248  14.324  65.716  1.00  0.00    -0.312 Cl 
HETATM   32  C   UNL     1     -10.345  16.721  66.475  1.00  0.00    -0.301 A  
HETATM   33  C   UNL     1     -10.049  17.735  67.380  1.00  0.00    -0.338 A  
HETATM   34  C   UNL     1     -10.333  17.554  68.730  1.00  0.00    -0.358 A  
HETATM   35  C   UNL     1     -10.941  16.372  69.171  1.00  0.00    -0.324 A  
HETATM   36 CL   UNL     1     -11.224  16.231  70.873  1.00  0.00    -0.343 Cl 
ENDBRANCH  28  29
ENDBRANCH  27  28
ENDBRANCH  26  27
ENDBRANCH  25  26
ENDBRANCH  24  25
ENDBRANCH  23  24
ENDBRANCH  22  23
ENDBRANCH  21  22
ENDBRANCH  20  21
ENDBRANCH  19  20
ENDBRANCH  18  19
ENDBRANCH  16  18
ENDBRANCH  15  16
ENDBRANCH  12  15
ENDBRANCH  10  12
ENDBRANCH   2   4
TORSDOF 16
ENDMDL
MODEL      155
REMARK 921   NORMALIZED FREE ENERGY PREDICTED BY IDOCK:   -5.09 KCAL/MOL
REMARK 922        TOTAL FREE ENERGY PREDICTED BY IDOCK:  -11.91 KCAL/MOL
REMARK 923 INTER-LIGAND FREE ENERGY PREDICTED BY IDOCK:  -10.53 KCAL/MOL
REMARK 924 INTRA-LIGAND FREE ENERGY PREDICTED BY IDOCK:   -1.38 KCAL/MOL
REMARK 927      BINDING AFFINITY PREDICTED BY RF-SCORE:    0.00 PKD
ROOT
HETATM    1  O   UNL     1     -14.196   8.945  73.427  1.00  0.00    -1.241 OA 
HETATM    2  C   UNL     1     -13.624   9.544  72.264  1.00  0.00    -0.418 C  
HETATM    3  H   UNL     1     -14.924   9.460  73.754  1.00  0.00     0.000 HD 
ENDROOT
BRANCH   2   4
HETATM    4  C   UNL     1     -12.469   8.725  71.747  1.00  0.00    -0.407 A  
HETATM    5  C   UNL     1     -12.457   7.326  71.749  1.00  0.00    -0.343 A  
HETATM    6  O   UNL     1     -13.537   6.595  72.160  1.00  0.00    -0.520 OA 
HETATM    7  C   UNL     1     -11.340   6.609  71.329  1.00  0.00    -0.346 A  
HETATM    8  C   UNL     1     -10.206   7.286  70.885  1.00  0.00    -0.203 A  
HETATM    9  H   UNL     1     -13.528   5.645  72.161  1.00  0.00     0.000 HD 
HETATM   10  C   UNL     1     -10.179   8.688  70.866  1.00  0.00    -0.261 A  
HETATM   11  C   UNL     1     -11.311   9.393  71.312  1.00  0.00    -0.436 A  
BRANCH  10  12
HETATM   12  C   UNL     1      -8.913   9.406  70.446  1.00  0.00    -0.250 C  
HETATM   13  O   UNL     1      -7.784   8.531  70.568  1.00  0.00    -0.072 OA 
HETATM   14  H   UNL     1      -6.990   8.981  70.304  1.00  0.00     0.000 HD 
BRANCH  12  15
HETATM   15  C   UNL     1      -9.034   9.896  68.987  1.00  0.00    -0.160 C  
BRANCH  15  16
HETATM   16  N   UNL     1      -9.174  11.361  68.924  1.00  0.00    -0.382 NA 
HETATM   17  H   UNL     1      -8.322  11.839  69.219  1.00  0.00     0.000 HD 
BRANCH  16  18
HETATM   18  C   UNL     1      -9.593  11.768  67.587  1.00  0.00    -0.183 C  
BRANCH  18  19
HETATM   19  C   UNL     1     -11.116  11.799  67.501  1.00  0.00    -0.330 C  
BRANCH  19  20
HETATM   20  C   UNL     1     -11.555  12.295  66.124  1.00  0.00    -0.450 C  
BRANCH  20  21
HETATM   21  C   UNL     1     -12.298  13.622  66.228  1.00  0.00    -0.464 C  
BRANCH  21  22
HETATM   22  C   UNL     1     -11.894  14.382  67.488  1.00  0.00    -0.418 C  
BRANCH  22  23
HETATM   23  C   UNL     1     -11.131  15.648  67.128  1.00  0.00    -0.218 C  
BRANCH  23  24
HETATM   24  O   UNL     1     -10.481  16.138  68.296  1.00  0.00    -0.255 OA 
BRANCH  24  25
HETATM   25  C   UNL     1      -9.866  15.072  69.016  1.00  0.00    -0.236 C  
BRANCH  25  26
HETATM   26  C   UNL     1      -8.369  15.314  69.110  1.00  0.00    -0.233 C  
BRANCH  26  27
HETATM   27  O   UNL     1      -8.137  16.716  69.248  1.00  0.00    -0.193 OA 
BRANCH  27  28
HETATM   28  C   UNL     1      -6.817  17.064  68.855  1.00  0.00    -0.211 C  
BRANCH  28  29
HETATM   29  C   UNL     1      -6.818  18.486  68.364  1.00  0.00    -0.264 A  
HETATM   30  C   UNL     1      -6.252  19.523  69.126  1.00  0.00    -0.283 A  
HETATM   31 CL   UNL     1      -5.579  19.252  70.697  1.00  0.00    -0.250 Cl 
HETATM   32  C   UNL     1      -6.210  20.837  68.640  1.00  0.00    -0.308 A  
HETATM   33  C   UNL     1      -6.754  21.143  67.398  1.00  0.00    -0.429 A  
HETATM   34  C   UNL     1      -7.368  20.142  66.652  1.00  0.00    -0.304 A  
HETATM   35  C   UNL     1      -7.410  18.828  67.134  1.00  0.00    -0.213 A  
HETATM   36 CL   UNL     1      -8.224  17.662  66.147  1.00  0.00    -0.247 Cl 
ENDBRANCH  28  29
ENDBRANCH  27  28
ENDBRANCH  26  27
ENDBRANCH  25  26
ENDBRANCH  24  25
ENDBRANCH  23  24
ENDBRANCH  22  23
ENDBRANCH  21  22
ENDBRANCH  20  21
ENDBRANCH  19  20
ENDBRANCH  18  19
ENDBRANCH  16  18
ENDBRANCH  15  16
ENDBRANCH  12  15
ENDBRANCH  10  12
ENDBRANCH   2   4
TORSDOF 16
ENDMDL
MODEL      156
REMARK 921   NORMALIZED FREE ENERGY PREDICTED BY IDOCK:   -5.08 KCAL/MOL
REMARK 922        TOTAL FREE ENERGY PREDICTED BY IDOCK:  -11.91 KCAL/MOL
REMARK 923 INTER-LIGAND FREE ENERGY PREDICTED BY IDOCK:  -10.04 KCAL/MOL
REMARK 924 INTRA-LIGAND FREE ENERGY PREDICTED BY IDOCK:   -1.87 KCAL/MOL
REMARK 927      BINDING AFFINITY PREDICTED BY RF-SCORE:    0.00 PKD
ROOT
HETATM    1  O   UNL     1     -12.526  12.292  63.328  1.00  0.00    -0.689 OA 
HETATM    2  C   UNL     1     -11.659  12.564  64.429  1.00  0.00    -0.358 C  
HETATM    3  H   UNL     1     -13.107  13.025  63.161  1.00  0.00     0.000 HD 
ENDROOT
BRANCH   2   4
HETATM    4  C   UNL     1     -10.739  11.401  64.693  1.00  0.00    -0.378 A  
HETATM    5  C   UNL     1      -9.923  10.827  63.711  1.00  0.00    -0.351 A  
HETATM    6  O   UNL     1      -9.849  11.338  62.445  1.00  0.00    -0.555 OA 
HETATM    7  C   UNL     1      -9.141   9.707  63.980  1.00  0.00    -0.246 A  
HETATM    8  C   UNL     1      -9.155   9.139  65.251  1.00  0.00    -0.252 A  
HETATM    9  H   UNL     1      -9.296  10.949  61.779  1.00  0.00     0.000 HD 
HETATM   10  C   UNL     1      -9.957   9.684  66.264  1.00  0.00    -0.335 A  
HETATM   11  C   UNL     1     -10.753  10.804  65.966  1.00  0.00    -0.168 A  
BRANCH  10  12
HETATM   12  C   UNL     1     -10.011   9.011  67.620  1.00  0.00    -0.201 C  
HETATM   13  O   UNL     1     -11.159   8.156  67.702  1.00  0.00    -0.492 OA 
HETATM   14  H   UNL     1     -11.193   7.734  68.553  1.00  0.00     0.000 HD 
BRANCH  12  15
HETATM   15  C   UNL     1      -8.731   8.184  67.860  1.00  0.00    -0.128 C  
BRANCH  15  16
HETATM   16  N   UNL     1      -8.957   6.755  67.586  1.00  0.00    -0.116 NA 
HETATM   17  H   UNL     1      -8.553   6.467  66.695  1.00  0.00     0.000 HD 
BRANCH  16  18
HETATM   18  C   UNL     1      -8.461   5.947  68.695  1.00  0.00    -0.111 C  
BRANCH  18  19
HETATM   19  C   UNL     1      -8.994   6.488  70.020  1.00  0.00    -0.144 C  
BRANCH  19  20
HETATM   20  C   UNL     1     -10.235   5.706  70.447  1.00  0.00    -0.302 C  
BRANCH  20  21
HETATM   21  C   UNL     1     -10.819   6.264  71.739  1.00  0.00    -0.294 C  
BRANCH  21  22
HETATM   22  C   UNL     1     -12.267   6.704  71.546  1.00  0.00    -0.391 C  
BRANCH  22  23
HETATM   23  C   UNL     1     -12.402   8.205  71.743  1.00  0.00    -0.321 C  
BRANCH  23  24
HETATM   24  O   UNL     1     -11.540   8.867  70.824  1.00  0.00    -0.280 OA 
BRANCH  24  25
HETATM   25  C   UNL     1     -11.957  10.216  70.623  1.00  0.00    -0.332 C  
BRANCH  25  26
HETATM   26  C   UNL     1     -12.956  10.608  71.699  1.00  0.00    -0.477 C  
BRANCH  26  27
HETATM   27  O   UNL     1     -12.693  11.951  72.104  1.00  0.00    -0.130 OA 
BRANCH  27  28
HETATM   28  C   UNL     1     -13.464  12.879  71.354  1.00  0.00     0.065 C  
BRANCH  28  29
HETATM   29  C   UNL     1     -12.596  14.057  71.006  1.00  0.00    -0.437 A  
HETATM   30  C   UNL     1     -11.988  14.170  69.743  1.00  0.00    -0.339 A  
HETATM   31 CL   UNL     1     -12.138  12.941  68.534  1.00  0.00    -0.251 Cl 
HETATM   32  C   UNL     1     -11.222  15.294  69.407  1.00  0.00    -0.291 A  
HETATM   33  C   UNL     1     -11.030  16.314  70.332  1.00  0.00    -0.282 A  
HETATM   34  C   UNL     1     -11.578  16.198  71.605  1.00  0.00    -0.503 A  
HETATM   35  C   UNL     1     -12.344  15.075  71.944  1.00  0.00    -0.342 A  
HETATM   36 CL   UNL     1     -12.955  15.009  73.562  1.00  0.00    -0.612 Cl 
ENDBRANCH  28  29
ENDBRANCH  27  28
ENDBRANCH  26  27
ENDBRANCH  25  26
ENDBRANCH  24  25
ENDBRANCH  23  24
ENDBRANCH  22  23
ENDBRANCH  21  22
ENDBRANCH  20  21
ENDBRANCH  19  20
ENDBRANCH  18  19
ENDBRANCH  16  18
ENDBRANCH  15  16
ENDBRANCH  12  15
ENDBRANCH  10  12
ENDBRANCH   2   4
TORSDOF 16
ENDMDL
MODEL      157
REMARK 921   NORMALIZED FREE ENERGY PREDICTED BY IDOCK:   -5.06 KCAL/MOL
REMARK 922        TOTAL FREE ENERGY PREDICTED BY IDOCK:  -11.87 KCAL/MOL
REMARK 923 INTER-LIGAND FREE ENERGY PREDICTED BY IDOCK:  -10.29 KCAL/MOL
REMARK 924 INTRA-LIGAND FREE ENERGY PREDICTED BY IDOCK:   -1.58 KCAL/MOL
REMARK 927      BINDING AFFINITY PREDICTED BY RF-SCORE:    0.00 PKD
ROOT
HETATM    1  O   UNL     1      -7.990   9.879  69.396  1.00  0.00    -0.108 OA 
HETATM    2  C   UNL     1      -8.259   9.119  68.217  1.00  0.00    -0.116 C  
HETATM    3  H   UNL     1      -7.371  10.577  69.218  1.00  0.00     0.000 HD 
ENDROOT
BRANCH   2   4
HETATM    4  C   UNL     1      -9.240   8.011  68.500  1.00  0.00    -0.135 A  
HETATM    5  C   UNL     1     -10.062   7.442  67.521  1.00  0.00    -0.192 A  
HETATM    6  O   UNL     1      -9.977   7.808  66.206  1.00  0.00    -0.447 OA 
HETATM    7  C   UNL     1     -11.007   6.471  67.840  1.00  0.00    -0.382 A  
HETATM    8  C   UNL     1     -11.142   6.039  69.157  1.00  0.00    -0.405 A  
HETATM    9  H   UNL     1     -10.535   7.422  65.542  1.00  0.00     0.000 HD 
HETATM   10  C   UNL     1     -10.337   6.582  70.168  1.00  0.00    -0.241 A  
HETATM   11  C   UNL     1      -9.402   7.576  69.828  1.00  0.00    -0.150 A  
BRANCH  10  12
HETATM   12  C   UNL     1     -10.546   6.151  71.605  1.00  0.00    -0.230 C  
HETATM   13  O   UNL     1      -9.753   6.959  72.485  1.00  0.00    -0.153 OA 
HETATM   14  H   UNL     1      -9.885   6.689  73.386  1.00  0.00     0.000 HD 
BRANCH  12  15
HETATM   15  C   UNL     1     -12.036   6.274  71.990  1.00  0.00    -0.300 C  
BRANCH  15  16
HETATM   16  N   UNL     1     -12.680   7.395  71.287  1.00  0.00    -0.461 NA 
HETATM   17  H   UNL     1     -13.602   7.143  70.930  1.00  0.00     0.000 HD 
BRANCH  16  18
HETATM   18  C   UNL     1     -12.734   8.568  72.153  1.00  0.00    -0.373 C  
BRANCH  18  19
HETATM   19  C   UNL     1     -11.891   9.696  71.564  1.00  0.00    -0.483 C  
BRANCH  19  20
HETATM   20  C   UNL     1     -12.767  10.622  70.722  1.00  0.00    -0.468 C  
BRANCH  20  21
HETATM   21  C   UNL     1     -13.033  11.937  71.446  1.00  0.00    -0.385 C  
BRANCH  21  22
HETATM   22  C   UNL     1     -12.290  13.092  70.782  1.00  0.00    -0.404 C  
BRANCH  22  23
HETATM   23  C   UNL     1     -13.025  14.403  71.012  1.00  0.00    -0.349 C  
BRANCH  23  24
HETATM   24  O   UNL     1     -12.378  15.428  70.264  1.00  0.00    -0.357 OA 
BRANCH  24  25
HETATM   25  C   UNL     1     -11.300  14.891  69.501  1.00  0.00    -0.281 C  
BRANCH  25  26
HETATM   26  C   UNL     1     -10.821  15.924  68.495  1.00  0.00    -0.298 C  
BRANCH  26  27
HETATM   27  O   UNL     1     -11.034  15.417  67.177  1.00  0.00    -0.323 OA 
BRANCH  27  28
HETATM   28  C   UNL     1     -11.874  14.272  67.193  1.00  0.00    -0.425 C  
BRANCH  28  29
HETATM   29  C   UNL     1     -11.419  13.325  66.116  1.00  0.00    -0.359 A  
HETATM   30  C   UNL     1     -11.528  13.660  64.754  1.00  0.00    -0.352 A  
HETATM   31 CL   UNL     1     -12.248  15.141  64.222  1.00  0.00    -0.389 Cl 
HETATM   32  C   UNL     1     -11.056  12.796  63.757  1.00  0.00    -0.475 A  
HETATM   33  C   UNL     1     -10.489  11.573  64.100  1.00  0.00    -0.408 A  
HETATM   34  C   UNL     1     -10.420  11.199  65.438  1.00  0.00    -0.321 A  
HETATM   35  C   UNL     1     -10.891  12.061  66.436  1.00  0.00    -0.278 A  
HETATM   36 CL   UNL     1     -10.791  11.491  68.068  1.00  0.00    -0.239 Cl 
ENDBRANCH  28  29
ENDBRANCH  27  28
ENDBRANCH  26  27
ENDBRANCH  25  26
ENDBRANCH  24  25
ENDBRANCH  23  24
ENDBRANCH  22  23
ENDBRANCH  21  22
ENDBRANCH  20  21
ENDBRANCH  19  20
ENDBRANCH  18  19
ENDBRANCH  16  18
ENDBRANCH  15  16
ENDBRANCH  12  15
ENDBRANCH  10  12
ENDBRANCH   2   4
TORSDOF 16
ENDMDL
MODEL      158
REMARK 921   NORMALIZED FREE ENERGY PREDICTED BY IDOCK:   -5.05 KCAL/MOL
REMARK 922        TOTAL FREE ENERGY PREDICTED BY IDOCK:  -11.84 KCAL/MOL
REMARK 923 INTER-LIGAND FREE ENERGY PREDICTED BY IDOCK:   -9.93 KCAL/MOL
REMARK 924 INTRA-LIGAND FREE ENERGY PREDICTED BY IDOCK:   -1.91 KCAL/MOL
REMARK 927      BINDING AFFINITY PREDICTED BY RF-SCORE:    0.00 PKD
ROOT
HETATM    1  O   UNL     1     -11.703  16.219  63.752  1.00  0.00    -1.511 OA 
HETATM    2  C   UNL     1     -11.035  15.869  64.965  1.00  0.00    -0.412 C  
HETATM    3  H   UNL     1     -11.627  17.150  63.578  1.00  0.00     0.000 HD 
ENDROOT
BRANCH   2   4
HETATM    4  C   UNL     1     -11.157  14.393  65.242  1.00  0.00    -0.344 A  
HETATM    5  C   UNL     1     -11.741  13.873  66.403  1.00  0.00    -0.383 A  
HETATM    6  O   UNL     1     -12.315  14.680  67.345  1.00  0.00    -0.573 OA 
HETATM    7  C   UNL     1     -11.768  12.504  66.652  1.00  0.00    -0.453 A  
HETATM    8  C   UNL     1     -11.213  11.619  65.731  1.00  0.00    -0.290 A  
HETATM    9  H   UNL     1     -12.711  14.328  68.133  1.00  0.00     0.000 HD 
HETATM   10  C   UNL     1     -10.620  12.098  64.555  1.00  0.00    -0.350 A  
HETATM   11  C   UNL     1     -10.587  13.486  64.331  1.00  0.00    -0.394 A  
BRANCH  10  12
HETATM   12  C   UNL     1      -9.961  11.126  63.599  1.00  0.00    -0.363 C  
HETATM   13  O   UNL     1      -9.024  11.815  62.760  1.00  0.00    -0.629 OA 
HETATM   14  H   UNL     1      -8.610  11.205  62.160  1.00  0.00     0.000 HD 
BRANCH  12  15
HETATM   15  C   UNL     1      -9.234  10.013  64.382  1.00  0.00    -0.266 C  
BRANCH  15  16
HETATM   16  N   UNL     1      -8.872   8.888  63.503  1.00  0.00    -0.433 NA 
HETATM   17  H   UNL     1      -8.804   9.173  62.526  1.00  0.00     0.000 HD 
BRANCH  16  18
HETATM   18  C   UNL     1      -7.643   8.258  63.974  1.00  0.00    -0.128 C  
BRANCH  18  19
HETATM   19  C   UNL     1      -7.878   7.596  65.329  1.00  0.00    -0.122 C  
BRANCH  19  20
HETATM   20  C   UNL     1      -7.244   6.205  65.352  1.00  0.00    -0.070 C  
BRANCH  20  21
HETATM   21  C   UNL     1      -6.418   5.998  66.616  1.00  0.00    -0.050 C  
BRANCH  21  22
HETATM   22  C   UNL     1      -6.453   4.541  67.066  1.00  0.00    -0.042 C  
BRANCH  22  23
HETATM   23  C   UNL     1      -7.794   4.208  67.699  1.00  0.00    -0.087 C  
BRANCH  23  24
HETATM   24  O   UNL     1      -8.033   5.113  68.771  1.00  0.00    -0.081 OA 
BRANCH  24  25
HETATM   25  C   UNL     1      -8.267   4.405  69.986  1.00  0.00    -0.062 C  
BRANCH  25  26
HETATM   26  C   UNL     1      -9.759   4.353  70.270  1.00  0.00    -0.211 C  
BRANCH  26  27
HETATM   27  O   UNL     1     -10.148   5.565  70.916  1.00  0.00    -0.191 OA 
BRANCH  27  28
HETATM   28  C   UNL     1     -11.166   6.236  70.188  1.00  0.00    -0.403 C  
BRANCH  28  29
HETATM   29  C   UNL     1     -10.664   7.601  69.802  1.00  0.00    -0.243 A  
HETATM   30  C   UNL     1     -10.469   8.607  70.764  1.00  0.00    -0.204 A  
HETATM   31 CL   UNL     1     -10.853   8.374  72.436  1.00  0.00    -0.422 Cl 
HETATM   32  C   UNL     1      -9.951   9.860  70.406  1.00  0.00    -0.222 A  
HETATM   33  C   UNL     1      -9.643  10.137  69.079  1.00  0.00    -0.202 A  
HETATM   34  C   UNL     1      -9.879   9.174  68.103  1.00  0.00    -0.188 A  
HETATM   35  C   UNL     1     -10.395   7.922  68.459  1.00  0.00    -0.200 A  
HETATM   36 CL   UNL     1     -10.683   6.804  67.169  1.00  0.00    -0.401 Cl 
ENDBRANCH  28  29
ENDBRANCH  27  28
ENDBRANCH  26  27
ENDBRANCH  25  26
ENDBRANCH  24  25
ENDBRANCH  23  24
ENDBRANCH  22  23
ENDBRANCH  21  22
ENDBRANCH  20  21
ENDBRANCH  19  20
ENDBRANCH  18  19
ENDBRANCH  16  18
ENDBRANCH  15  16
ENDBRANCH  12  15
ENDBRANCH  10  12
ENDBRANCH   2   4
TORSDOF 16
ENDMDL
MODEL      159
REMARK 921   NORMALIZED FREE ENERGY PREDICTED BY IDOCK:   -5.04 KCAL/MOL
REMARK 922        TOTAL FREE ENERGY PREDICTED BY IDOCK:  -11.82 KCAL/MOL
REMARK 923 INTER-LIGAND FREE ENERGY PREDICTED BY IDOCK:  -10.08 KCAL/MOL
REMARK 924 INTRA-LIGAND FREE ENERGY PREDICTED BY IDOCK:   -1.74 KCAL/MOL
REMARK 927      BINDING AFFINITY PREDICTED BY RF-SCORE:    0.00 PKD
ROOT
HETATM    1  O   UNL     1      -7.584  20.478  66.813  1.00  0.00    -0.386 OA 
HETATM    2  C   UNL     1      -8.930  20.279  66.378  1.00  0.00    -0.189 C  
HETATM    3  H   UNL     1      -7.257  21.324  66.530  1.00  0.00     0.000 HD 
ENDROOT
BRANCH   2   4
HETATM    4  C   UNL     1      -9.450  18.937  66.827  1.00  0.00    -0.352 A  
HETATM    5  C   UNL     1      -9.283  18.443  68.125  1.00  0.00    -0.312 A  
HETATM    6  O   UNL     1      -8.692  19.185  69.110  1.00  0.00    -0.252 OA 
HETATM    7  C   UNL     1      -9.715  17.168  68.478  1.00  0.00    -0.291 A  
HETATM    8  C   UNL     1     -10.337  16.358  67.531  1.00  0.00    -0.288 A  
HETATM    9  H   UNL     1      -8.578  18.850  69.991  1.00  0.00     0.000 HD 
HETATM   10  C   UNL     1     -10.525  16.816  66.219  1.00  0.00    -0.264 A  
HETATM   11  C   UNL     1     -10.065  18.101  65.879  1.00  0.00    -0.173 A  
BRANCH  10  12
HETATM   12  C   UNL     1     -11.141  15.896  65.186  1.00  0.00    -0.311 C  
HETATM   13  O   UNL     1     -11.345  16.602  63.954  1.00  0.00    -1.558 OA 
HETATM   14  H   UNL     1     -11.731  16.025  63.306  1.00  0.00     0.000 HD 
BRANCH  12  15
HETATM   15  C   UNL     1     -10.227  14.678  64.940  1.00  0.00    -0.287 C  
BRANCH  15  16
HETATM   16  N   UNL     1     -10.982  13.547  64.374  1.00  0.00    -0.447 NA 
HETATM   17  H   UNL     1     -10.446  13.046  63.666  1.00  0.00     0.000 HD 
BRANCH  16  18
HETATM   18  C   UNL     1     -11.436  12.662  65.441  1.00  0.00    -0.338 C  
BRANCH  18  19
HETATM   19  C   UNL     1     -10.554  11.418  65.503  1.00  0.00    -0.328 C  
BRANCH  19  20
HETATM   20  C   UNL     1     -10.912  10.580  66.730  1.00  0.00    -0.150 C  
BRANCH  20  21
HETATM   21  C   UNL     1     -11.042  11.452  67.973  1.00  0.00    -0.317 C  
BRANCH  21  22
HETATM   22  C   UNL     1     -11.073  10.605  69.241  1.00  0.00    -0.306 C  
BRANCH  22  23
HETATM   23  C   UNL     1     -12.295  10.942  70.080  1.00  0.00    -0.322 C  
BRANCH  23  24
HETATM   24  O   UNL     1     -12.111  10.416  71.391  1.00  0.00    -0.363 OA 
BRANCH  24  25
HETATM   25  C   UNL     1     -13.261   9.682  71.805  1.00  0.00    -0.430 C  
BRANCH  25  26
HETATM   26  C   UNL     1     -12.865   8.253  72.136  1.00  0.00    -0.315 C  
BRANCH  26  27
HETATM   27  O   UNL     1     -12.399   7.617  70.946  1.00  0.00    -0.244 OA 
BRANCH  27  28
HETATM   28  C   UNL     1     -11.348   6.703  71.225  1.00  0.00    -0.299 C  
BRANCH  28  29
HETATM   29  C   UNL     1     -10.092   7.194  70.557  1.00  0.00    -0.202 A  
HETATM   30  C   UNL     1      -9.113   7.903  71.274  1.00  0.00    -0.139 A  
HETATM   31 CL   UNL     1      -9.310   8.318  72.943  1.00  0.00    -0.335 Cl 
HETATM   32  C   UNL     1      -7.922   8.313  70.660  1.00  0.00    -0.094 A  
HETATM   33  C   UNL     1      -7.698   8.043  69.314  1.00  0.00    -0.102 A  
HETATM   34  C   UNL     1      -8.677   7.390  68.573  1.00  0.00    -0.127 A  
HETATM   35  C   UNL     1      -9.869   6.979  69.185  1.00  0.00    -0.158 A  
HETATM   36 CL   UNL     1     -11.037   6.203  68.171  1.00  0.00    -0.400 Cl 
ENDBRANCH  28  29
ENDBRANCH  27  28
ENDBRANCH  26  27
ENDBRANCH  25  26
ENDBRANCH  24  25
ENDBRANCH  23  24
ENDBRANCH  22  23
ENDBRANCH  21  22
ENDBRANCH  20  21
ENDBRANCH  19  20
ENDBRANCH  18  19
ENDBRANCH  16  18
ENDBRANCH  15  16
ENDBRANCH  12  15
ENDBRANCH  10  12
ENDBRANCH   2   4
TORSDOF 16
ENDMDL
MODEL      160
REMARK 921   NORMALIZED FREE ENERGY PREDICTED BY IDOCK:   -5.03 KCAL/MOL
REMARK 922        TOTAL FREE ENERGY PREDICTED BY IDOCK:  -11.81 KCAL/MOL
REMARK 923 INTER-LIGAND FREE ENERGY PREDICTED BY IDOCK:   -9.64 KCAL/MOL
REMARK 924 INTRA-LIGAND FREE ENERGY PREDICTED BY IDOCK:   -2.18 KCAL/MOL
REMARK 927      BINDING AFFINITY PREDICTED BY RF-SCORE:    0.00 PKD
ROOT
HETATM    1  O   UNL     1     -11.624  11.461  63.158  1.00  0.00    -0.862 OA 
HETATM    2  C   UNL     1     -10.961  11.740  64.392  1.00  0.00    -0.339 C  
HETATM    3  H   UNL     1     -12.195  12.178  62.908  1.00  0.00     0.000 HD 
ENDROOT
BRANCH   2   4
HETATM    4  C   UNL     1     -10.056  10.602  64.788  1.00  0.00    -0.412 A  
HETATM    5  C   UNL     1      -8.933  10.218  64.047  1.00  0.00    -0.237 A  
HETATM    6  O   UNL     1      -8.533  10.906  62.935  1.00  0.00    -0.297 OA 
HETATM    7  C   UNL     1      -8.166   9.115  64.410  1.00  0.00    -0.158 A  
HETATM    8  C   UNL     1      -8.506   8.373  65.539  1.00  0.00    -0.184 A  
HETATM    9  H   UNL     1      -7.771  10.646  62.432  1.00  0.00     0.000 HD 
HETATM   10  C   UNL     1      -9.622   8.725  66.310  1.00  0.00    -0.328 A  
HETATM   11  C   UNL     1     -10.395   9.832  65.915  1.00  0.00    -0.148 A  
BRANCH  10  12
HETATM   12  C   UNL     1     -10.016   7.865  67.493  1.00  0.00    -0.192 C  
HETATM   13  O   UNL     1     -11.096   6.993  67.133  1.00  0.00    -0.536 OA 
HETATM   14  H   UNL     1     -11.343   6.453  67.875  1.00  0.00     0.000 HD 
BRANCH  12  15
HETATM   15  C   UNL     1      -8.812   7.028  67.972  1.00  0.00    -0.124 C  
BRANCH  15  16
HETATM   16  N   UNL     1      -9.183   5.615  68.161  1.00  0.00    -0.110 NA 
HETATM   17  H   UNL     1      -9.306   5.131  67.272  1.00  0.00     0.000 HD 
BRANCH  16  18
HETATM   18  C   UNL     1      -8.205   4.949  69.014  1.00  0.00    -0.082 C  
BRANCH  18  19
HETATM   19  C   UNL     1      -8.512   5.229  70.483  1.00  0.00    -0.120 C  
BRANCH  19  20
HETATM   20  C   UNL     1      -9.767   4.469  70.912  1.00  0.00    -0.263 C  
BRANCH  20  21
HETATM   21  C   UNL     1      -9.930   4.490  72.427  1.00  0.00    -0.229 C  
BRANCH  21  22
HETATM   22  C   UNL     1     -11.238   5.164  72.831  1.00  0.00    -0.362 C  
BRANCH  22  23
HETATM   23  C   UNL     1     -11.130   6.673  72.684  1.00  0.00    -0.257 C  
BRANCH  23  24
HETATM   24  O   UNL     1     -12.144   7.120  71.789  1.00  0.00    -0.298 OA 
BRANCH  24  25
HETATM   25  C   UNL     1     -11.578   7.884  70.727  1.00  0.00    -0.247 C  
BRANCH  25  26
HETATM   26  C   UNL     1     -10.335   8.607  71.222  1.00  0.00    -0.239 C  
BRANCH  26  27
HETATM   27  O   UNL     1     -10.312   9.919  70.660  1.00  0.00    -0.286 OA 
BRANCH  27  28
HETATM   28  C   UNL     1     -11.518  10.208  69.968  1.00  0.00    -0.277 C  
BRANCH  28  29
HETATM   29  C   UNL     1     -12.022  11.552  70.418  1.00  0.00    -0.459 A  
HETATM   30  C   UNL     1     -12.874  11.679  71.529  1.00  0.00    -0.364 A  
HETATM   31 CL   UNL     1     -13.453  10.307  72.410  1.00  0.00    -0.280 Cl 
HETATM   32  C   UNL     1     -13.299  12.938  71.974  1.00  0.00    -0.579 A  
HETATM   33  C   UNL     1     -12.901  14.090  71.304  1.00  0.00    -0.430 A  
HETATM   34  C   UNL     1     -12.102  13.984  70.171  1.00  0.00    -0.419 A  
HETATM   35  C   UNL     1     -11.675  12.726  69.724  1.00  0.00    -0.282 A  
HETATM   36 CL   UNL     1     -10.711  12.697  68.287  1.00  0.00    -0.237 Cl 
ENDBRANCH  28  29
ENDBRANCH  27  28
ENDBRANCH  26  27
ENDBRANCH  25  26
ENDBRANCH  24  25
ENDBRANCH  23  24
ENDBRANCH  22  23
ENDBRANCH  21  22
ENDBRANCH  20  21
ENDBRANCH  19  20
ENDBRANCH  18  19
ENDBRANCH  16  18
ENDBRANCH  15  16
ENDBRANCH  12  15
ENDBRANCH  10  12
ENDBRANCH   2   4
TORSDOF 16
ENDMDL
MODEL      161
REMARK 921   NORMALIZED FREE ENERGY PREDICTED BY IDOCK:   -5.02 KCAL/MOL
REMARK 922        TOTAL FREE ENERGY PREDICTED BY IDOCK:  -11.79 KCAL/MOL
REMARK 923 INTER-LIGAND FREE ENERGY PREDICTED BY IDOCK:   -9.64 KCAL/MOL
REMARK 924 INTRA-LIGAND FREE ENERGY PREDICTED BY IDOCK:   -2.15 KCAL/MOL
REMARK 927      BINDING AFFINITY PREDICTED BY RF-SCORE:    0.00 PKD
ROOT
HETATM    1  O   UNL     1     -10.593  18.993  67.425  1.00  0.00    -0.430 OA 
HETATM    2  C   UNL     1      -9.535  18.146  67.872  1.00  0.00    -0.281 C  
HETATM    3  H   UNL     1     -10.260  19.839  67.148  1.00  0.00     0.000 HD 
ENDROOT
BRANCH   2   4
HETATM    4  C   UNL     1     -10.064  16.805  68.310  1.00  0.00    -0.274 A  
HETATM    5  C   UNL     1      -9.984  15.651  67.521  1.00  0.00    -0.231 A  
HETATM    6  O   UNL     1      -9.346  15.646  66.312  1.00  0.00    -0.268 OA 
HETATM    7  C   UNL     1     -10.551  14.449  67.934  1.00  0.00    -0.240 A  
HETATM    8  C   UNL     1     -11.207  14.375  69.161  1.00  0.00    -0.300 A  
HETATM    9  H   UNL     1      -9.292  14.864  65.777  1.00  0.00     0.000 HD 
HETATM   10  C   UNL     1     -11.307  15.506  69.982  1.00  0.00    -0.332 A  
HETATM   11  C   UNL     1     -10.744  16.716  69.538  1.00  0.00    -0.306 A  
BRANCH  10  12
HETATM   12  C   UNL     1     -12.084  15.424  71.279  1.00  0.00    -0.366 C  
HETATM   13  O   UNL     1     -11.858  16.601  72.067  1.00  0.00    -0.648 OA 
HETATM   14  H   UNL     1     -12.345  16.549  72.881  1.00  0.00     0.000 HD 
BRANCH  12  15
HETATM   15  C   UNL     1     -13.593  15.273  70.993  1.00  0.00    -0.419 C  
BRANCH  15  16
HETATM   16  N   UNL     1     -14.214  14.291  71.897  1.00  0.00    -0.496 NA 
HETATM   17  H   UNL     1     -14.958  13.766  71.437  1.00  0.00     0.000 HD 
BRANCH  16  18
HETATM   18  C   UNL     1     -13.195  13.413  72.462  1.00  0.00    -0.413 C  
BRANCH  18  19
HETATM   19  C   UNL     1     -13.392  11.986  71.956  1.00  0.00    -0.447 C  
BRANCH  19  20
HETATM   20  C   UNL     1     -12.405  11.688  70.827  1.00  0.00    -0.454 C  
BRANCH  20  21
HETATM   21  C   UNL     1     -12.377  10.199  70.502  1.00  0.00    -0.330 C  
BRANCH  21  22
HETATM   22  C   UNL     1     -11.766   9.396  71.645  1.00  0.00    -0.468 C  
BRANCH  22  23
HETATM   23  C   UNL     1     -12.740   8.336  72.136  1.00  0.00    -0.329 C  
BRANCH  23  24
HETATM   24  O   UNL     1     -12.077   7.077  72.153  1.00  0.00    -0.292 OA 
BRANCH  24  25
HETATM   25  C   UNL     1     -11.964   6.547  70.834  1.00  0.00    -0.291 C  
BRANCH  25  26
HETATM   26  C   UNL     1     -10.688   5.731  70.717  1.00  0.00    -0.271 C  
BRANCH  26  27
HETATM   27  O   UNL     1     -10.280   5.707  69.349  1.00  0.00    -0.199 OA 
BRANCH  27  28
HETATM   28  C   UNL     1      -8.967   6.224  69.191  1.00  0.00    -0.127 C  
BRANCH  28  29
HETATM   29  C   UNL     1      -9.049   7.721  69.067  1.00  0.00    -0.144 A  
HETATM   30  C   UNL     1      -8.527   8.566  70.062  1.00  0.00    -0.125 A  
HETATM   31 CL   UNL     1      -7.819   7.953  71.517  1.00  0.00    -0.091 Cl 
HETATM   32  C   UNL     1      -8.561   9.960  69.917  1.00  0.00    -0.216 A  
HETATM   33  C   UNL     1      -9.137  10.534  68.789  1.00  0.00    -0.166 A  
HETATM   34  C   UNL     1      -9.707   9.717  67.818  1.00  0.00    -0.167 A  
HETATM   35  C   UNL     1      -9.675   8.324  67.961  1.00  0.00    -0.161 A  
HETATM   36 CL   UNL     1     -10.440   7.396  66.715  1.00  0.00    -0.354 Cl 
ENDBRANCH  28  29
ENDBRANCH  27  28
ENDBRANCH  26  27
ENDBRANCH  25  26
ENDBRANCH  24  25
ENDBRANCH  23  24
ENDBRANCH  22  23
ENDBRANCH  21  22
ENDBRANCH  20  21
ENDBRANCH  19  20
ENDBRANCH  18  19
ENDBRANCH  16  18
ENDBRANCH  15  16
ENDBRANCH  12  15
ENDBRANCH  10  12
ENDBRANCH   2   4
TORSDOF 16
ENDMDL
MODEL      162
REMARK 921   NORMALIZED FREE ENERGY PREDICTED BY IDOCK:   -5.01 KCAL/MOL
REMARK 922        TOTAL FREE ENERGY PREDICTED BY IDOCK:  -11.76 KCAL/MOL
REMARK 923 INTER-LIGAND FREE ENERGY PREDICTED BY IDOCK:   -9.00 KCAL/MOL
REMARK 924 INTRA-LIGAND FREE ENERGY PREDICTED BY IDOCK:   -2.77 KCAL/MOL
REMARK 927      BINDING AFFINITY PREDICTED BY RF-SCORE:    0.00 PKD
ROOT
HETATM    1  O   UNL     1     -11.754  16.289  63.884  1.00  0.00    -1.441 OA 
HETATM    2  C   UNL     1     -10.839  15.667  64.787  1.00  0.00    -0.355 C  
HETATM    3  H   UNL     1     -11.571  17.217  63.798  1.00  0.00     0.000 HD 
ENDROOT
BRANCH   2   4
HETATM    4  C   UNL     1     -11.130  14.195  64.922  1.00  0.00    -0.389 A  
HETATM    5  C   UNL     1     -12.084  13.677  65.806  1.00  0.00    -0.428 A  
HETATM    6  O   UNL     1     -12.880  14.489  66.564  1.00  0.00    -0.353 OA 
HETATM    7  C   UNL     1     -12.270  12.306  65.952  1.00  0.00    -0.097 A  
HETATM    8  C   UNL     1     -11.503  11.417  65.202  1.00  0.00     0.006 A  
HETATM    9  H   UNL     1     -13.528  14.138  67.163  1.00  0.00     0.000 HD 
HETATM   10  C   UNL     1     -10.537  11.894  64.305  1.00  0.00    -0.381 A  
HETATM   11  C   UNL     1     -10.353  13.283  64.186  1.00  0.00    -0.204 A  
BRANCH  10  12
HETATM   12  C   UNL     1      -9.666  10.912  63.551  1.00  0.00    -0.342 C  
HETATM   13  O   UNL     1      -8.622  11.608  62.856  1.00  0.00    -0.575 OA 
HETATM   14  H   UNL     1      -8.075  10.992  62.383  1.00  0.00     0.000 HD 
BRANCH  12  15
HETATM   15  C   UNL     1      -9.047   9.886  64.524  1.00  0.00    -0.250 C  
BRANCH  15  16
HETATM   16  N   UNL     1      -8.654   8.652  63.823  1.00  0.00    -0.411 NA 
HETATM   17  H   UNL     1      -7.934   8.823  63.122  1.00  0.00     0.000 HD 
BRANCH  16  18
HETATM   18  C   UNL     1      -8.247   7.635  64.787  1.00  0.00    -0.078 C  
BRANCH  18  19
HETATM   19  C   UNL     1      -9.211   7.615  65.970  1.00  0.00    -0.118 C  
BRANCH  19  20
HETATM   20  C   UNL     1      -9.419   6.181  66.455  1.00  0.00    -0.172 C  
BRANCH  20  21
HETATM   21  C   UNL     1      -8.982   6.023  67.907  1.00  0.00    -0.118 C  
BRANCH  21  22
HETATM   22  C   UNL     1     -10.051   5.313  68.730  1.00  0.00    -0.248 C  
BRANCH  22  23
HETATM   23  C   UNL     1     -10.876   6.318  69.519  1.00  0.00    -0.340 C  
BRANCH  23  24
HETATM   24  O   UNL     1     -10.061   7.448  69.814  1.00  0.00    -0.186 OA 
BRANCH  24  25
HETATM   25  C   UNL     1     -10.420   8.012  71.074  1.00  0.00    -0.203 C  
BRANCH  25  26
HETATM   26  C   UNL     1     -10.993   9.404  70.867  1.00  0.00    -0.320 C  
BRANCH  26  27
HETATM   27  O   UNL     1     -10.048  10.187  70.137  1.00  0.00    -0.246 OA 
BRANCH  27  28
HETATM   28  C   UNL     1     -10.606  10.675  68.925  1.00  0.00    -0.212 C  
BRANCH  28  29
HETATM   29  C   UNL     1      -9.853  11.910  68.510  1.00  0.00    -0.187 A  
HETATM   30  C   UNL     1      -8.606  11.823  67.867  1.00  0.00    -0.156 A  
HETATM   31 CL   UNL     1      -7.822  10.309  67.570  1.00  0.00    -0.102 Cl 
HETATM   32  C   UNL     1      -7.933  12.975  67.437  1.00  0.00    -0.173 A  
HETATM   33  C   UNL     1      -8.482  14.233  67.662  1.00  0.00    -0.185 A  
HETATM   34  C   UNL     1      -9.689  14.343  68.343  1.00  0.00    -0.226 A  
HETATM   35  C   UNL     1     -10.363  13.194  68.775  1.00  0.00    -0.130 A  
HETATM   36 CL   UNL     1     -11.841  13.438  69.642  1.00  0.00    -0.376 Cl 
ENDBRANCH  28  29
ENDBRANCH  27  28
ENDBRANCH  26  27
ENDBRANCH  25  26
ENDBRANCH  24  25
ENDBRANCH  23  24
ENDBRANCH  22  23
ENDBRANCH  21  22
ENDBRANCH  20  21
ENDBRANCH  19  20
ENDBRANCH  18  19
ENDBRANCH  16  18
ENDBRANCH  15  16
ENDBRANCH  12  15
ENDBRANCH  10  12
ENDBRANCH   2   4
TORSDOF 16
ENDMDL
MODEL      163
REMARK 921   NORMALIZED FREE ENERGY PREDICTED BY IDOCK:   -5.00 KCAL/MOL
REMARK 922        TOTAL FREE ENERGY PREDICTED BY IDOCK:  -11.75 KCAL/MOL
REMARK 923 INTER-LIGAND FREE ENERGY PREDICTED BY IDOCK:  -10.41 KCAL/MOL
REMARK 924 INTRA-LIGAND FREE ENERGY PREDICTED BY IDOCK:   -1.33 KCAL/MOL
REMARK 927      BINDING AFFINITY PREDICTED BY RF-SCORE:    0.00 PKD
ROOT
HETATM    1  O   UNL     1     -13.779   9.730  70.429  1.00  0.00    -0.476 OA 
HETATM    2  C   UNL     1     -13.036   9.766  71.648  1.00  0.00    -0.419 C  
HETATM    3  H   UNL     1     -14.679   9.997  70.570  1.00  0.00     0.000 HD 
ENDROOT
BRANCH   2   4
HETATM    4  C   UNL     1     -11.608   9.342  71.424  1.00  0.00    -0.451 A  
HETATM    5  C   UNL     1     -10.942   8.419  72.238  1.00  0.00    -0.361 A  
HETATM    6  O   UNL     1     -11.574   7.774  73.265  1.00  0.00    -0.644 OA 
HETATM    7  C   UNL     1      -9.600   8.110  72.039  1.00  0.00    -0.284 A  
HETATM    8  C   UNL     1      -8.893   8.719  71.004  1.00  0.00    -0.260 A  
HETATM    9  H   UNL     1     -11.123   7.148  73.817  1.00  0.00     0.000 HD 
HETATM   10  C   UNL     1      -9.523   9.647  70.164  1.00  0.00    -0.298 A  
HETATM   11  C   UNL     1     -10.875   9.959  70.395  1.00  0.00    -0.380 A  
BRANCH  10  12
HETATM   12  C   UNL     1      -8.721  10.350  69.089  1.00  0.00    -0.166 C  
HETATM   13  O   UNL     1      -7.734  11.203  69.685  1.00  0.00    -0.367 OA 
HETATM   14  H   UNL     1      -7.230  11.643  69.011  1.00  0.00     0.000 HD 
BRANCH  12  15
HETATM   15  C   UNL     1      -8.028   9.316  68.176  1.00  0.00    -0.099 C  
BRANCH  15  16
HETATM   16  N   UNL     1      -8.786   9.110  66.930  1.00  0.00    -0.122 NA 
HETATM   17  H   UNL     1      -9.538   8.431  67.048  1.00  0.00     0.000 HD 
BRANCH  16  18
HETATM   18  C   UNL     1      -9.280  10.387  66.425  1.00  0.00    -0.161 C  
BRANCH  18  19
HETATM   19  C   UNL     1      -9.635  10.265  64.945  1.00  0.00    -0.365 C  
BRANCH  19  20
HETATM   20  C   UNL     1      -9.916  11.647  64.356  1.00  0.00    -0.298 C  
BRANCH  20  21
HETATM   21  C   UNL     1     -11.386  11.796  63.981  1.00  0.00    -0.461 C  
BRANCH  21  22
HETATM   22  C   UNL     1     -12.209  12.294  65.164  1.00  0.00    -0.345 C  
BRANCH  22  23
HETATM   23  C   UNL     1     -12.354  13.807  65.117  1.00  0.00    -0.448 C  
BRANCH  23  24
HETATM   24  O   UNL     1     -12.467  14.298  66.449  1.00  0.00    -0.441 OA 
BRANCH  24  25
HETATM   25  C   UNL     1     -11.509  13.672  67.299  1.00  0.00    -0.343 C  
BRANCH  25  26
HETATM   26  C   UNL     1     -10.593  14.725  67.901  1.00  0.00    -0.248 C  
BRANCH  26  27
HETATM   27  O   UNL     1     -10.677  15.913  67.113  1.00  0.00    -0.316 OA 
BRANCH  27  28
HETATM   28  C   UNL     1      -9.413  16.264  66.569  1.00  0.00    -0.264 C  
BRANCH  28  29
HETATM   29  C   UNL     1      -8.967  17.563  67.183  1.00  0.00    -0.245 A  
HETATM   30  C   UNL     1      -8.003  17.595  68.206  1.00  0.00    -0.272 A  
HETATM   31 CL   UNL     1      -7.315  16.154  68.872  1.00  0.00    -0.173 Cl 
HETATM   32  C   UNL     1      -7.554  18.812  68.738  1.00  0.00    -0.343 A  
HETATM   33  C   UNL     1      -8.077  20.015  68.276  1.00  0.00    -0.194 A  
HETATM   34  C   UNL     1      -9.070  20.003  67.303  1.00  0.00    -0.459 A  
HETATM   35  C   UNL     1      -9.521  18.789  66.769  1.00  0.00    -0.319 A  
HETATM   36 CL   UNL     1     -10.782  18.878  65.587  1.00  0.00    -0.390 Cl 
ENDBRANCH  28  29
ENDBRANCH  27  28
ENDBRANCH  26  27
ENDBRANCH  25  26
ENDBRANCH  24  25
ENDBRANCH  23  24
ENDBRANCH  22  23
ENDBRANCH  21  22
ENDBRANCH  20  21
ENDBRANCH  19  20
ENDBRANCH  18  19
ENDBRANCH  16  18
ENDBRANCH  15  16
ENDBRANCH  12  15
ENDBRANCH  10  12
ENDBRANCH   2   4
TORSDOF 16
ENDMDL
MODEL      164
REMARK 921   NORMALIZED FREE ENERGY PREDICTED BY IDOCK:   -4.99 KCAL/MOL
REMARK 922        TOTAL FREE ENERGY PREDICTED BY IDOCK:  -11.72 KCAL/MOL
REMARK 923 INTER-LIGAND FREE ENERGY PREDICTED BY IDOCK:  -10.11 KCAL/MOL
REMARK 924 INTRA-LIGAND FREE ENERGY PREDICTED BY IDOCK:   -1.62 KCAL/MOL
REMARK 927      BINDING AFFINITY PREDICTED BY RF-SCORE:    0.00 PKD
ROOT
HETATM    1  O   UNL     1     -14.398  15.257  71.793  1.00  0.00    -0.513 OA 
HETATM    2  C   UNL     1     -13.544  14.151  71.497  1.00  0.00    -0.329 C  
HETATM    3  H   UNL     1     -15.066  15.013  72.423  1.00  0.00     0.000 HD 
ENDROOT
BRANCH   2   4
HETATM    4  C   UNL     1     -12.485  14.538  70.498  1.00  0.00    -0.408 A  
HETATM    5  C   UNL     1     -11.751  15.727  70.577  1.00  0.00    -0.377 A  
HETATM    6  O   UNL     1     -11.896  16.596  71.622  1.00  0.00    -0.645 OA 
HETATM    7  C   UNL     1     -10.831  16.080  69.594  1.00  0.00    -0.329 A  
HETATM    8  C   UNL     1     -10.621  15.237  68.505  1.00  0.00    -0.237 A  
HETATM    9  H   UNL     1     -11.398  17.403  71.676  1.00  0.00     0.000 HD 
HETATM   10  C   UNL     1     -11.335  14.036  68.388  1.00  0.00    -0.321 A  
HETATM   11  C   UNL     1     -12.272  13.707  69.384  1.00  0.00    -0.307 A  
BRANCH  10  12
HETATM   12  C   UNL     1     -11.143  13.167  67.163  1.00  0.00    -0.279 C  
HETATM   13  O   UNL     1     -12.245  12.259  67.022  1.00  0.00    -0.522 OA 
HETATM   14  H   UNL     1     -12.125  11.714  66.254  1.00  0.00     0.000 HD 
BRANCH  12  15
HETATM   15  C   UNL     1     -11.027  14.042  65.897  1.00  0.00    -0.286 C  
BRANCH  15  16
HETATM   16  N   UNL     1     -10.242  13.367  64.850  1.00  0.00    -0.522 NA 
HETATM   17  H   UNL     1      -9.580  12.696  65.241  1.00  0.00     0.000 HD 
BRANCH  16  18
HETATM   18  C   UNL     1     -11.133  12.748  63.874  1.00  0.00    -0.431 C  
BRANCH  18  19
HETATM   19  C   UNL     1     -10.546  11.425  63.391  1.00  0.00    -0.435 C  
BRANCH  19  20
HETATM   20  C   UNL     1      -9.917  10.669  64.562  1.00  0.00    -0.410 C  
BRANCH  20  21
HETATM   21  C   UNL     1      -8.618   9.990  64.144  1.00  0.00    -0.195 C  
BRANCH  21  22
HETATM   22  C   UNL     1      -7.646   9.891  65.316  1.00  0.00    -0.130 C  
BRANCH  22  23
HETATM   23  C   UNL     1      -8.387  10.015  66.638  1.00  0.00    -0.125 C  
BRANCH  23  24
HETATM   24  O   UNL     1      -7.574   9.468  67.671  1.00  0.00    -0.093 OA 
BRANCH  24  25
HETATM   25  C   UNL     1      -8.121   8.240  68.146  1.00  0.00    -0.124 C  
BRANCH  25  26
HETATM   26  C   UNL     1      -8.380   8.339  69.641  1.00  0.00    -0.123 C  
BRANCH  26  27
HETATM   27  O   UNL     1      -9.763   8.083  69.887  1.00  0.00    -0.178 OA 
BRANCH  27  28
HETATM   28  C   UNL     1     -10.053   8.100  71.277  1.00  0.00    -0.195 C  
BRANCH  28  29
HETATM   29  C   UNL     1     -11.546   8.125  71.458  1.00  0.00    -0.315 A  
HETATM   30  C   UNL     1     -12.254   6.975  71.850  1.00  0.00    -0.327 A  
HETATM   31 CL   UNL     1     -11.476   5.447  72.085  1.00  0.00    -0.168 Cl 
HETATM   32  C   UNL     1     -13.638   7.017  72.066  1.00  0.00    -0.148 A  
HETATM   33  C   UNL     1     -14.343   8.200  71.872  1.00  0.00    -0.566 A  
HETATM   34  C   UNL     1     -13.671   9.335  71.433  1.00  0.00    -0.325 A  
HETATM   35  C   UNL     1     -12.287   9.296  71.216  1.00  0.00    -0.328 A  
HETATM   36 CL   UNL     1     -11.548  10.752  70.639  1.00  0.00    -0.417 Cl 
ENDBRANCH  28  29
ENDBRANCH  27  28
ENDBRANCH  26  27
ENDBRANCH  25  26
ENDBRANCH  24  25
ENDBRANCH  23  24
ENDBRANCH  22  23
ENDBRANCH  21  22
ENDBRANCH  20  21
ENDBRANCH  19  20
ENDBRANCH  18  19
ENDBRANCH  16  18
ENDBRANCH  15  16
ENDBRANCH  12  15
ENDBRANCH  10  12
ENDBRANCH   2   4
TORSDOF 16
ENDMDL
MODEL      165
REMARK 921   NORMALIZED FREE ENERGY PREDICTED BY IDOCK:   -4.99 KCAL/MOL
REMARK 922        TOTAL FREE ENERGY PREDICTED BY IDOCK:  -11.72 KCAL/MOL
REMARK 923 INTER-LIGAND FREE ENERGY PREDICTED BY IDOCK:  -10.25 KCAL/MOL
REMARK 924 INTRA-LIGAND FREE ENERGY PREDICTED BY IDOCK:   -1.47 KCAL/MOL
REMARK 927      BINDING AFFINITY PREDICTED BY RF-SCORE:    0.00 PKD
ROOT
HETATM    1  O   UNL     1      -9.585  20.473  65.947  1.00  0.00    -0.656 OA 
HETATM    2  C   UNL     1     -10.665  19.595  66.268  1.00  0.00    -0.419 C  
HETATM    3  H   UNL     1      -9.880  21.375  65.903  1.00  0.00     0.000 HD 
ENDROOT
BRANCH   2   4
HETATM    4  C   UNL     1     -10.197  18.165  66.338  1.00  0.00    -0.405 A  
HETATM    5  C   UNL     1      -9.100  17.750  67.103  1.00  0.00    -0.246 A  
HETATM    6  O   UNL     1      -8.414  18.616  67.908  1.00  0.00    -0.267 OA 
HETATM    7  C   UNL     1      -8.657  16.431  67.082  1.00  0.00    -0.204 A  
HETATM    8  C   UNL     1      -9.315  15.490  66.294  1.00  0.00    -0.355 A  
HETATM    9  H   UNL     1      -7.670  18.335  68.427  1.00  0.00     0.000 HD 
HETATM   10  C   UNL     1     -10.418  15.863  65.514  1.00  0.00    -0.425 A  
HETATM   11  C   UNL     1     -10.838  17.205  65.535  1.00  0.00    -0.058 A  
BRANCH  10  12
HETATM   12  C   UNL     1     -11.077  14.841  64.611  1.00  0.00    -0.325 C  
HETATM   13  O   UNL     1     -10.158  13.783  64.308  1.00  0.00    -0.744 OA 
HETATM   14  H   UNL     1     -10.571  13.142  63.741  1.00  0.00     0.000 HD 
BRANCH  12  15
HETATM   15  C   UNL     1     -12.334  14.257  65.290  1.00  0.00    -0.424 C  
BRANCH  15  16
HETATM   16  N   UNL     1     -12.137  14.106  66.741  1.00  0.00    -0.446 NA 
HETATM   17  H   UNL     1     -12.963  14.385  67.270  1.00  0.00     0.000 HD 
BRANCH  16  18
HETATM   18  C   UNL     1     -11.727  12.741  67.053  1.00  0.00    -0.374 C  
BRANCH  18  19
HETATM   19  C   UNL     1     -11.008  12.702  68.399  1.00  0.00    -0.284 C  
BRANCH  19  20
HETATM   20  C   UNL     1     -12.024  12.765  69.540  1.00  0.00    -0.338 C  
BRANCH  20  21
HETATM   21  C   UNL     1     -11.930  11.530  70.428  1.00  0.00    -0.459 C  
BRANCH  21  22
HETATM   22  C   UNL     1     -11.510  10.303  69.624  1.00  0.00    -0.297 C  
BRANCH  22  23
HETATM   23  C   UNL     1     -10.120   9.845  70.035  1.00  0.00    -0.260 C  
BRANCH  23  24
HETATM   24  O   UNL     1      -9.465   9.290  68.898  1.00  0.00    -0.151 OA 
BRANCH  24  25
HETATM   25  C   UNL     1     -10.401   8.621  68.055  1.00  0.00    -0.223 C  
BRANCH  25  26
HETATM   26  C   UNL     1     -10.212   7.118  68.172  1.00  0.00    -0.188 C  
BRANCH  26  27
HETATM   27  O   UNL     1     -11.268   6.582  68.969  1.00  0.00    -0.312 OA 
BRANCH  27  28
HETATM   28  C   UNL     1     -10.785   5.606  69.880  1.00  0.00    -0.329 C  
BRANCH  28  29
HETATM   29  C   UNL     1     -10.339   6.299  71.138  1.00  0.00    -0.255 A  
HETATM   30  C   UNL     1      -8.987   6.311  71.526  1.00  0.00    -0.142 A  
HETATM   31 CL   UNL     1      -7.762   5.481  70.629  1.00  0.00    -0.088 Cl 
HETATM   32  C   UNL     1      -8.570   7.003  72.671  1.00  0.00    -0.133 A  
HETATM   33  C   UNL     1      -9.496   7.673  73.463  1.00  0.00    -0.347 A  
HETATM   34  C   UNL     1     -10.845   7.628  73.127  1.00  0.00    -0.440 A  
HETATM   35  C   UNL     1     -11.265   6.938  71.982  1.00  0.00    -0.257 A  
HETATM   36 CL   UNL     1     -12.967   6.915  71.668  1.00  0.00    -0.401 Cl 
ENDBRANCH  28  29
ENDBRANCH  27  28
ENDBRANCH  26  27
ENDBRANCH  25  26
ENDBRANCH  24  25
ENDBRANCH  23  24
ENDBRANCH  22  23
ENDBRANCH  21  22
ENDBRANCH  20  21
ENDBRANCH  19  20
ENDBRANCH  18  19
ENDBRANCH  16  18
ENDBRANCH  15  16
ENDBRANCH  12  15
ENDBRANCH  10  12
ENDBRANCH   2   4
TORSDOF 16
ENDMDL
MODEL      166
REMARK 921   NORMALIZED FREE ENERGY PREDICTED BY IDOCK:   -4.98 KCAL/MOL
REMARK 922        TOTAL FREE ENERGY PREDICTED BY IDOCK:  -11.71 KCAL/MOL
REMARK 923 INTER-LIGAND FREE ENERGY PREDICTED BY IDOCK:   -9.92 KCAL/MOL
REMARK 924 INTRA-LIGAND FREE ENERGY PREDICTED BY IDOCK:   -1.79 KCAL/MOL
REMARK 927      BINDING AFFINITY PREDICTED BY RF-SCORE:    0.00 PKD
ROOT
HETATM    1  O   UNL     1      -9.651   2.632  66.041  1.00  0.00    -0.375 OA 
HETATM    2  C   UNL     1      -8.915   3.226  67.111  1.00  0.00    -0.157 C  
HETATM    3  H   UNL     1      -9.146   1.947  65.619  1.00  0.00     0.000 HD 
ENDROOT
BRANCH   2   4
HETATM    4  C   UNL     1      -9.715   4.313  67.780  1.00  0.00    -0.179 A  
HETATM    5  C   UNL     1     -10.347   5.346  67.078  1.00  0.00    -0.248 A  
HETATM    6  O   UNL     1     -10.341   5.399  65.712  1.00  0.00    -0.420 OA 
HETATM    7  C   UNL     1     -11.016   6.371  67.741  1.00  0.00    -0.425 A  
HETATM    8  C   UNL     1     -11.074   6.376  69.133  1.00  0.00    -0.428 A  
HETATM    9  H   UNL     1     -10.770   6.100  65.236  1.00  0.00     0.000 HD 
HETATM   10  C   UNL     1     -10.456   5.359  69.873  1.00  0.00    -0.378 A  
HETATM   11  C   UNL     1      -9.770   4.343  69.185  1.00  0.00    -0.240 A  
BRANCH  10  12
HETATM   12  C   UNL     1     -10.471   5.420  71.386  1.00  0.00    -0.226 C  
HETATM   13  O   UNL     1      -9.608   4.412  71.931  1.00  0.00    -0.137 OA 
HETATM   14  H   UNL     1      -9.617   4.451  72.880  1.00  0.00     0.000 HD 
BRANCH  12  15
HETATM   15  C   UNL     1     -10.013   6.811  71.872  1.00  0.00    -0.176 C  
BRANCH  15  16
HETATM   16  N   UNL     1     -11.044   7.454  72.704  1.00  0.00    -0.306 NA 
HETATM   17  H   UNL     1     -10.791   7.458  73.692  1.00  0.00     0.000 HD 
BRANCH  16  18
HETATM   18  C   UNL     1     -11.324   8.798  72.209  1.00  0.00    -0.285 C  
BRANCH  18  19
HETATM   19  C   UNL     1     -12.831   9.027  72.131  1.00  0.00    -0.478 C  
BRANCH  19  20
HETATM   20  C   UNL     1     -13.126  10.352  71.428  1.00  0.00    -0.512 C  
BRANCH  20  21
HETATM   21  C   UNL     1     -11.869  10.925  70.784  1.00  0.00    -0.424 C  
BRANCH  21  22
HETATM   22  C   UNL     1     -12.130  12.312  70.206  1.00  0.00    -0.376 C  
BRANCH  22  23
HETATM   23  C   UNL     1     -12.688  13.241  71.272  1.00  0.00    -0.323 C  
BRANCH  23  24
HETATM   24  O   UNL     1     -13.022  14.485  70.667  1.00  0.00    -0.354 OA 
BRANCH  24  25
HETATM   25  C   UNL     1     -11.845  15.180  70.260  1.00  0.00    -0.311 C  
BRANCH  25  26
HETATM   26  C   UNL     1     -12.019  15.693  68.840  1.00  0.00    -0.279 C  
BRANCH  26  27
HETATM   27  O   UNL     1     -10.731  15.960  68.286  1.00  0.00    -0.267 OA 
BRANCH  27  28
HETATM   28  C   UNL     1     -10.625  15.463  66.959  1.00  0.00    -0.309 C  
BRANCH  28  29
HETATM   29  C   UNL     1     -10.482  13.966  67.015  1.00  0.00    -0.278 A  
HETATM   30  C   UNL     1     -11.436  13.119  66.425  1.00  0.00    -0.334 A  
HETATM   31 CL   UNL     1     -12.863  13.728  65.657  1.00  0.00    -0.519 Cl 
HETATM   32  C   UNL     1     -11.272  11.727  66.435  1.00  0.00    -0.382 A  
HETATM   33  C   UNL     1     -10.166  11.156  67.055  1.00  0.00    -0.251 A  
HETATM   34  C   UNL     1      -9.238  11.973  67.692  1.00  0.00    -0.182 A  
HETATM   35  C   UNL     1      -9.400  13.365  67.683  1.00  0.00    -0.217 A  
HETATM   36 CL   UNL     1      -8.209  14.292  68.530  1.00  0.00    -0.143 Cl 
ENDBRANCH  28  29
ENDBRANCH  27  28
ENDBRANCH  26  27
ENDBRANCH  25  26
ENDBRANCH  24  25
ENDBRANCH  23  24
ENDBRANCH  22  23
ENDBRANCH  21  22
ENDBRANCH  20  21
ENDBRANCH  19  20
ENDBRANCH  18  19
ENDBRANCH  16  18
ENDBRANCH  15  16
ENDBRANCH  12  15
ENDBRANCH  10  12
ENDBRANCH   2   4
TORSDOF 16
ENDMDL
MODEL      167
REMARK 921   NORMALIZED FREE ENERGY PREDICTED BY IDOCK:   -4.98 KCAL/MOL
REMARK 922        TOTAL FREE ENERGY PREDICTED BY IDOCK:  -11.71 KCAL/MOL
REMARK 923 INTER-LIGAND FREE ENERGY PREDICTED BY IDOCK:   -9.78 KCAL/MOL
REMARK 924 INTRA-LIGAND FREE ENERGY PREDICTED BY IDOCK:   -1.93 KCAL/MOL
REMARK 927      BINDING AFFINITY PREDICTED BY RF-SCORE:    0.00 PKD
ROOT
HETATM    1  O   UNL     1      -8.604  10.243  67.180  1.00  0.00    -0.125 OA 
HETATM    2  C   UNL     1      -8.251  11.356  66.358  1.00  0.00    -0.124 C  
HETATM    3  H   UNL     1      -7.907  10.037  67.792  1.00  0.00     0.000 HD 
ENDROOT
BRANCH   2   4
HETATM    4  C   UNL     1      -9.356  11.683  65.388  1.00  0.00    -0.143 A  
HETATM    5  C   UNL     1      -9.874  10.761  64.471  1.00  0.00    -0.310 A  
HETATM    6  O   UNL     1      -9.455   9.460  64.443  1.00  0.00    -0.424 OA 
HETATM    7  C   UNL     1     -10.845  11.125  63.544  1.00  0.00    -0.275 A  
HETATM    8  C   UNL     1     -11.329  12.431  63.521  1.00  0.00    -0.553 A  
HETATM    9  H   UNL     1      -9.806   8.833  63.821  1.00  0.00     0.000 HD 
HETATM   10  C   UNL     1     -10.839  13.386  64.423  1.00  0.00    -0.422 A  
HETATM   11  C   UNL     1      -9.844  13.001  65.340  1.00  0.00    -0.127 A  
BRANCH  10  12
HETATM   12  C   UNL     1     -11.327  14.817  64.338  1.00  0.00    -0.213 C  
HETATM   13  O   UNL     1     -12.710  14.846  63.961  1.00  0.00    -0.792 OA 
HETATM   14  H   UNL     1     -13.017  15.744  63.908  1.00  0.00     0.000 HD 
BRANCH  12  15
HETATM   15  C   UNL     1     -11.144  15.527  65.695  1.00  0.00    -0.235 C  
BRANCH  15  16
HETATM   16  N   UNL     1      -9.939  16.374  65.699  1.00  0.00    -0.529 NA 
HETATM   17  H   UNL     1      -9.545  16.482  64.764  1.00  0.00     0.000 HD 
BRANCH  16  18
HETATM   18  C   UNL     1     -10.232  17.662  66.318  1.00  0.00    -0.362 C  
BRANCH  18  19
HETATM   19  C   UNL     1     -10.651  17.463  67.772  1.00  0.00    -0.371 C  
BRANCH  19  20
HETATM   20  C   UNL     1      -9.873  18.416  68.679  1.00  0.00    -0.403 C  
BRANCH  20  21
HETATM   21  C   UNL     1      -8.460  18.643  68.156  1.00  0.00    -0.336 C  
BRANCH  21  22
HETATM   22  C   UNL     1      -7.434  17.885  68.991  1.00  0.00    -0.171 C  
BRANCH  22  23
HETATM   23  C   UNL     1      -7.268  16.464  68.475  1.00  0.00    -0.170 C  
BRANCH  23  24
HETATM   24  O   UNL     1      -8.043  15.588  69.287  1.00  0.00    -0.217 OA 
BRANCH  24  25
HETATM   25  C   UNL     1      -8.213  14.326  68.647  1.00  0.00    -0.139 C  
BRANCH  25  26
HETATM   26  C   UNL     1      -9.695  14.018  68.506  1.00  0.00    -0.215 C  
BRANCH  26  27
HETATM   27  O   UNL     1      -9.910  12.640  68.811  1.00  0.00    -0.116 OA 
BRANCH  27  28
HETATM   28  C   UNL     1     -11.252  12.256  68.550  1.00  0.00    -0.271 C  
BRANCH  28  29
HETATM   29  C   UNL     1     -11.835  11.659  69.803  1.00  0.00    -0.428 A  
HETATM   30  C   UNL     1     -12.452  12.463  70.777  1.00  0.00    -0.267 A  
HETATM   31 CL   UNL     1     -12.527  14.187  70.640  1.00  0.00    -0.410 Cl 
HETATM   32  C   UNL     1     -13.038  11.896  71.917  1.00  0.00    -0.474 A  
HETATM   33  C   UNL     1     -12.997  10.521  72.116  1.00  0.00    -0.366 A  
HETATM   34  C   UNL     1     -12.344   9.712  71.192  1.00  0.00    -0.427 A  
HETATM   35  C   UNL     1     -11.758  10.276  70.051  1.00  0.00    -0.254 A  
HETATM   36 CL   UNL     1     -10.942   9.191  68.978  1.00  0.00    -0.106 Cl 
ENDBRANCH  28  29
ENDBRANCH  27  28
ENDBRANCH  26  27
ENDBRANCH  25  26
ENDBRANCH  24  25
ENDBRANCH  23  24
ENDBRANCH  22  23
ENDBRANCH  21  22
ENDBRANCH  20  21
ENDBRANCH  19  20
ENDBRANCH  18  19
ENDBRANCH  16  18
ENDBRANCH  15  16
ENDBRANCH  12  15
ENDBRANCH  10  12
ENDBRANCH   2   4
TORSDOF 16
ENDMDL
MODEL      168
REMARK 921   NORMALIZED FREE ENERGY PREDICTED BY IDOCK:   -4.98 KCAL/MOL
REMARK 922        TOTAL FREE ENERGY PREDICTED BY IDOCK:  -11.70 KCAL/MOL
REMARK 923 INTER-LIGAND FREE ENERGY PREDICTED BY IDOCK:   -9.61 KCAL/MOL
REMARK 924 INTRA-LIGAND FREE ENERGY PREDICTED BY IDOCK:   -2.09 KCAL/MOL
REMARK 927      BINDING AFFINITY PREDICTED BY RF-SCORE:    0.00 PKD
ROOT
HETATM    1  O   UNL     1     -11.945  14.559  70.588  1.00  0.00    -0.284 OA 
HETATM    2  C   UNL     1     -12.284  13.827  69.410  1.00  0.00    -0.278 C  
HETATM    3  H   UNL     1     -12.460  14.268  71.331  1.00  0.00     0.000 HD 
ENDROOT
BRANCH   2   4
HETATM    4  C   UNL     1     -11.468  14.290  68.231  1.00  0.00    -0.334 A  
HETATM    5  C   UNL     1     -10.112  14.625  68.319  1.00  0.00    -0.228 A  
HETATM    6  O   UNL     1      -9.407  14.484  69.482  1.00  0.00    -0.402 OA 
HETATM    7  C   UNL     1      -9.413  15.118  67.220  1.00  0.00    -0.214 A  
HETATM    8  C   UNL     1     -10.063  15.277  65.998  1.00  0.00    -0.340 A  
HETATM    9  H   UNL     1      -8.487  14.711  69.541  1.00  0.00     0.000 HD 
HETATM   10  C   UNL     1     -11.420  14.951  65.868  1.00  0.00    -0.276 A  
HETATM   11  C   UNL     1     -12.112  14.473  66.994  1.00  0.00    -0.303 A  
BRANCH  10  12
HETATM   12  C   UNL     1     -12.125  15.196  64.550  1.00  0.00    -0.301 C  
HETATM   13  O   UNL     1     -11.551  16.330  63.885  1.00  0.00    -1.489 OA 
HETATM   14  H   UNL     1     -11.993  16.483  63.058  1.00  0.00     0.000 HD 
BRANCH  12  15
HETATM   15  C   UNL     1     -12.015  13.953  63.643  1.00  0.00    -0.165 C  
BRANCH  15  16
HETATM   16  N   UNL     1     -12.857  12.851  64.140  1.00  0.00    -0.688 NA 
HETATM   17  H   UNL     1     -13.769  12.832  63.683  1.00  0.00     0.000 HD 
BRANCH  16  18
HETATM   18  C   UNL     1     -12.153  11.581  64.006  1.00  0.00     0.019 C  
BRANCH  18  19
HETATM   19  C   UNL     1     -10.648  11.820  63.923  1.00  0.00    -0.445 C  
BRANCH  19  20
HETATM   20  C   UNL     1      -9.939  11.125  65.085  1.00  0.00    -0.323 C  
BRANCH  20  21
HETATM   21  C   UNL     1     -10.820  11.099  66.329  1.00  0.00    -0.266 C  
BRANCH  21  22
HETATM   22  C   UNL     1      -9.977  11.095  67.601  1.00  0.00    -0.195 C  
BRANCH  22  23
HETATM   23  C   UNL     1     -10.741  10.454  68.748  1.00  0.00    -0.225 C  
BRANCH  23  24
HETATM   24  O   UNL     1     -10.287   9.114  68.909  1.00  0.00    -0.205 OA 
BRANCH  24  25
HETATM   25  C   UNL     1      -9.412   9.010  70.030  1.00  0.00    -0.187 C  
BRANCH  25  26
HETATM   26  C   UNL     1      -8.337   7.973  69.746  1.00  0.00    -0.122 C  
BRANCH  26  27
HETATM   27  O   UNL     1      -8.512   6.873  70.639  1.00  0.00    -0.133 OA 
BRANCH  27  28
HETATM   28  C   UNL     1      -9.719   6.175  70.372  1.00  0.00    -0.169 C  
BRANCH  28  29
HETATM   29  C   UNL     1     -10.007   5.251  71.523  1.00  0.00    -0.241 A  
HETATM   30  C   UNL     1     -10.418   5.746  72.773  1.00  0.00    -0.210 A  
HETATM   31 CL   UNL     1     -10.555   7.441  73.095  1.00  0.00    -0.386 Cl 
HETATM   32  C   UNL     1     -10.734   4.878  73.827  1.00  0.00    -0.361 A  
HETATM   33  C   UNL     1     -10.624   3.502  73.659  1.00  0.00    -0.281 A  
HETATM   34  C   UNL     1     -10.168   2.993  72.447  1.00  0.00    -0.200 A  
HETATM   35  C   UNL     1      -9.851   3.859  71.392  1.00  0.00    -0.172 A  
HETATM   36 CL   UNL     1      -9.262   3.130  69.937  1.00  0.00    -0.208 Cl 
ENDBRANCH  28  29
ENDBRANCH  27  28
ENDBRANCH  26  27
ENDBRANCH  25  26
ENDBRANCH  24  25
ENDBRANCH  23  24
ENDBRANCH  22  23
ENDBRANCH  21  22
ENDBRANCH  20  21
ENDBRANCH  19  20
ENDBRANCH  18  19
ENDBRANCH  16  18
ENDBRANCH  15  16
ENDBRANCH  12  15
ENDBRANCH  10  12
ENDBRANCH   2   4
TORSDOF 16
ENDMDL
MODEL      169
REMARK 921   NORMALIZED FREE ENERGY PREDICTED BY IDOCK:   -4.97 KCAL/MOL
REMARK 922        TOTAL FREE ENERGY PREDICTED BY IDOCK:  -11.69 KCAL/MOL
REMARK 923 INTER-LIGAND FREE ENERGY PREDICTED BY IDOCK:   -9.52 KCAL/MOL
REMARK 924 INTRA-LIGAND FREE ENERGY PREDICTED BY IDOCK:   -2.17 KCAL/MOL
REMARK 927      BINDING AFFINITY PREDICTED BY RF-SCORE:    0.00 PKD
ROOT
HETATM    1  O   UNL     1      -9.780   2.100  65.817  1.00  0.00    -0.337 OA 
HETATM    2  C   UNL     1      -8.970   3.273  65.727  1.00  0.00    -0.145 C  
HETATM    3  H   UNL     1      -9.401   1.384  65.321  1.00  0.00     0.000 HD 
ENDROOT
BRANCH   2   4
HETATM    4  C   UNL     1      -9.572   4.408  66.514  1.00  0.00    -0.209 A  
HETATM    5  C   UNL     1     -10.784   5.021  66.175  1.00  0.00    -0.203 A  
HETATM    6  O   UNL     1     -11.551   4.576  65.135  1.00  0.00    -1.102 OA 
HETATM    7  C   UNL     1     -11.268   6.114  66.887  1.00  0.00    -0.157 A  
HETATM    8  C   UNL     1     -10.546   6.615  67.968  1.00  0.00    -0.300 A  
HETATM    9  H   UNL     1     -12.374   4.992  64.906  1.00  0.00     0.000 HD 
HETATM   10  C   UNL     1      -9.328   6.029  68.341  1.00  0.00    -0.120 A  
HETATM   11  C   UNL     1      -8.848   4.937  67.597  1.00  0.00    -0.107 A  
BRANCH  10  12
HETATM   12  C   UNL     1      -8.524   6.630  69.475  1.00  0.00    -0.132 C  
HETATM   13  O   UNL     1      -7.765   7.752  69.003  1.00  0.00    -0.104 OA 
HETATM   14  H   UNL     1      -7.261   8.129  69.714  1.00  0.00     0.000 HD 
BRANCH  12  15
HETATM   15  C   UNL     1      -9.460   7.080  70.616  1.00  0.00    -0.165 C  
BRANCH  15  16
HETATM   16  N   UNL     1     -10.119   5.928  71.254  1.00  0.00    -0.190 NA 
HETATM   17  H   UNL     1      -9.479   5.404  71.851  1.00  0.00     0.000 HD 
BRANCH  16  18
HETATM   18  C   UNL     1     -11.305   6.368  71.981  1.00  0.00    -0.294 C  
BRANCH  18  19
HETATM   19  C   UNL     1     -12.371   6.855  71.003  1.00  0.00    -0.401 C  
BRANCH  19  20
HETATM   20  C   UNL     1     -13.108   8.060  71.585  1.00  0.00    -0.354 C  
BRANCH  20  21
HETATM   21  C   UNL     1     -12.137   9.178  71.945  1.00  0.00    -0.448 C  
BRANCH  21  22
HETATM   22  C   UNL     1     -12.826  10.538  71.919  1.00  0.00    -0.509 C  
BRANCH  22  23
HETATM   23  C   UNL     1     -12.573  11.242  70.596  1.00  0.00    -0.288 C  
BRANCH  23  24
HETATM   24  O   UNL     1     -12.433  12.638  70.838  1.00  0.00    -0.369 OA 
BRANCH  24  25
HETATM   25  C   UNL     1     -12.406  13.362  69.611  1.00  0.00    -0.131 C  
BRANCH  25  26
HETATM   26  C   UNL     1     -10.977  13.755  69.278  1.00  0.00    -0.163 C  
BRANCH  26  27
HETATM   27  O   UNL     1     -10.767  13.588  67.876  1.00  0.00    -0.239 OA 
BRANCH  27  28
HETATM   28  C   UNL     1     -11.738  12.721  67.307  1.00  0.00    -0.378 C  
BRANCH  28  29
HETATM   29  C   UNL     1     -11.086  11.917  66.215  1.00  0.00    -0.364 A  
HETATM   30  C   UNL     1     -10.461  10.687  66.488  1.00  0.00    -0.224 A  
HETATM   31 CL   UNL     1     -10.340  10.048  68.091  1.00  0.00    -0.212 Cl 
HETATM   32  C   UNL     1      -9.901   9.917  65.459  1.00  0.00    -0.381 A  
HETATM   33  C   UNL     1      -9.932  10.373  64.145  1.00  0.00    -0.337 A  
HETATM   34  C   UNL     1     -10.497  11.612  63.862  1.00  0.00    -0.433 A  
HETATM   35  C   UNL     1     -11.058  12.383  64.888  1.00  0.00    -0.303 A  
HETATM   36 CL   UNL     1     -11.707  13.923  64.439  1.00  0.00    -0.418 Cl 
ENDBRANCH  28  29
ENDBRANCH  27  28
ENDBRANCH  26  27
ENDBRANCH  25  26
ENDBRANCH  24  25
ENDBRANCH  23  24
ENDBRANCH  22  23
ENDBRANCH  21  22
ENDBRANCH  20  21
ENDBRANCH  19  20
ENDBRANCH  18  19
ENDBRANCH  16  18
ENDBRANCH  15  16
ENDBRANCH  12  15
ENDBRANCH  10  12
ENDBRANCH   2   4
TORSDOF 16
ENDMDL
MODEL      170
REMARK 921   NORMALIZED FREE ENERGY PREDICTED BY IDOCK:   -4.97 KCAL/MOL
REMARK 922        TOTAL FREE ENERGY PREDICTED BY IDOCK:  -11.69 KCAL/MOL
REMARK 923 INTER-LIGAND FREE ENERGY PREDICTED BY IDOCK:   -9.50 KCAL/MOL
REMARK 924 INTRA-LIGAND FREE ENERGY PREDICTED BY IDOCK:   -2.18 KCAL/MOL
REMARK 927      BINDING AFFINITY PREDICTED BY RF-SCORE:    0.00 PKD
ROOT
HETATM    1  O   UNL     1     -11.316   5.520  66.150  1.00  0.00    -0.751 OA 
HETATM    2  C   UNL     1     -10.944   6.563  67.052  1.00  0.00    -0.396 C  
HETATM    3  H   UNL     1     -11.484   5.865  65.281  1.00  0.00     0.000 HD 
ENDROOT
BRANCH   2   4
HETATM    4  C   UNL     1     -10.679   6.015  68.431  1.00  0.00    -0.351 A  
HETATM    5  C   UNL     1      -9.835   4.926  68.677  1.00  0.00    -0.152 A  
HETATM    6  O   UNL     1      -9.127   4.322  67.676  1.00  0.00    -0.118 OA 
HETATM    7  C   UNL     1      -9.674   4.407  69.958  1.00  0.00    -0.286 A  
HETATM    8  C   UNL     1     -10.355   4.980  71.030  1.00  0.00    -0.254 A  
HETATM    9  H   UNL     1      -8.554   3.583  67.843  1.00  0.00     0.000 HD 
HETATM   10  C   UNL     1     -11.209   6.073  70.827  1.00  0.00    -0.340 A  
HETATM   11  C   UNL     1     -11.371   6.571  69.521  1.00  0.00    -0.419 A  
BRANCH  10  12
HETATM   12  C   UNL     1     -11.993   6.638  71.993  1.00  0.00    -0.319 C  
HETATM   13  O   UNL     1     -12.127   5.650  73.024  1.00  0.00    -0.531 OA 
HETATM   14  H   UNL     1     -12.619   6.005  73.755  1.00  0.00     0.000 HD 
BRANCH  12  15
HETATM   15  C   UNL     1     -11.286   7.887  72.560  1.00  0.00    -0.390 C  
BRANCH  15  16
HETATM   16  N   UNL     1     -10.455   7.547  73.728  1.00  0.00    -0.351 NA 
HETATM   17  H   UNL     1     -10.489   6.551  73.944  1.00  0.00     0.000 HD 
BRANCH  16  18
HETATM   18  C   UNL     1      -9.088   8.014  73.523  1.00  0.00    -0.259 C  
BRANCH  18  19
HETATM   19  C   UNL     1      -8.232   6.893  72.940  1.00  0.00    -0.117 C  
BRANCH  19  20
HETATM   20  C   UNL     1      -7.745   7.275  71.543  1.00  0.00    -0.087 C  
BRANCH  20  21
HETATM   21  C   UNL     1      -7.955   8.761  71.275  1.00  0.00    -0.176 C  
BRANCH  21  22
HETATM   22  C   UNL     1      -7.670   9.104  69.816  1.00  0.00    -0.082 C  
BRANCH  22  23
HETATM   23  C   UNL     1      -8.960   9.418  69.077  1.00  0.00    -0.141 C  
BRANCH  23  24
HETATM   24  O   UNL     1      -9.542  10.587  69.646  1.00  0.00    -0.160 OA 
BRANCH  24  25
HETATM   25  C   UNL     1     -10.928  10.382  69.911  1.00  0.00    -0.305 C  
BRANCH  25  26
HETATM   26  C   UNL     1     -11.679  11.693  69.748  1.00  0.00    -0.352 C  
BRANCH  26  27
HETATM   27  O   UNL     1     -11.130  12.404  68.638  1.00  0.00    -0.228 OA 
BRANCH  27  28
HETATM   28  C   UNL     1     -11.894  13.563  68.336  1.00  0.00    -0.373 C  
BRANCH  28  29
HETATM   29  C   UNL     1     -11.067  14.474  67.471  1.00  0.00    -0.316 A  
HETATM   30  C   UNL     1     -10.071  15.299  68.023  1.00  0.00    -0.229 A  
HETATM   31 CL   UNL     1      -9.773  15.376  69.726  1.00  0.00    -0.261 Cl 
HETATM   32  C   UNL     1      -9.268  16.108  67.206  1.00  0.00    -0.218 A  
HETATM   33  C   UNL     1      -9.462  16.126  65.829  1.00  0.00    -0.254 A  
HETATM   34  C   UNL     1     -10.477  15.358  65.269  1.00  0.00    -0.440 A  
HETATM   35  C   UNL     1     -11.281  14.548  66.083  1.00  0.00    -0.339 A  
HETATM   36 CL   UNL     1     -12.537  13.656  65.295  1.00  0.00    -0.505 Cl 
ENDBRANCH  28  29
ENDBRANCH  27  28
ENDBRANCH  26  27
ENDBRANCH  25  26
ENDBRANCH  24  25
ENDBRANCH  23  24
ENDBRANCH  22  23
ENDBRANCH  21  22
ENDBRANCH  20  21
ENDBRANCH  19  20
ENDBRANCH  18  19
ENDBRANCH  16  18
ENDBRANCH  15  16
ENDBRANCH  12  15
ENDBRANCH  10  12
ENDBRANCH   2   4
TORSDOF 16
ENDMDL
MODEL      171
REMARK 921   NORMALIZED FREE ENERGY PREDICTED BY IDOCK:   -4.96 KCAL/MOL
REMARK 922        TOTAL FREE ENERGY PREDICTED BY IDOCK:  -11.67 KCAL/MOL
REMARK 923 INTER-LIGAND FREE ENERGY PREDICTED BY IDOCK:   -9.29 KCAL/MOL
REMARK 924 INTRA-LIGAND FREE ENERGY PREDICTED BY IDOCK:   -2.38 KCAL/MOL
REMARK 927      BINDING AFFINITY PREDICTED BY RF-SCORE:    0.00 PKD
ROOT
HETATM    1  O   UNL     1     -11.925  10.511  68.266  1.00  0.00    -0.790 OA 
HETATM    2  C   UNL     1     -10.708  10.312  67.548  1.00  0.00    -0.294 C  
HETATM    3  H   UNL     1     -11.878  10.123  69.132  1.00  0.00     0.000 HD 
ENDROOT
BRANCH   2   4
HETATM    4  C   UNL     1     -10.783  10.928  66.175  1.00  0.00    -0.225 A  
HETATM    5  C   UNL     1     -10.210  10.346  65.038  1.00  0.00    -0.264 A  
HETATM    6  O   UNL     1      -9.596   9.126  65.084  1.00  0.00    -0.456 OA 
HETATM    7  C   UNL     1     -10.240  10.985  63.802  1.00  0.00    -0.425 A  
HETATM    8  C   UNL     1     -10.860  12.226  63.676  1.00  0.00    -0.522 A  
HETATM    9  H   UNL     1      -9.207   8.731  64.313  1.00  0.00     0.000 HD 
HETATM   10  C   UNL     1     -11.447  12.842  64.790  1.00  0.00    -0.360 A  
HETATM   11  C   UNL     1     -11.389  12.189  66.034  1.00  0.00    -0.410 A  
BRANCH  10  12
HETATM   12  C   UNL     1     -12.055  14.222  64.648  1.00  0.00    -0.463 C  
HETATM   13  O   UNL     1     -13.213  14.342  65.486  1.00  0.00    -0.641 OA 
HETATM   14  H   UNL     1     -13.594  15.208  65.398  1.00  0.00     0.000 HD 
BRANCH  12  15
HETATM   15  C   UNL     1     -11.024  15.304  65.032  1.00  0.00    -0.437 C  
BRANCH  15  16
HETATM   16  N   UNL     1     -11.122  15.655  66.460  1.00  0.00    -0.207 NA 
HETATM   17  H   UNL     1     -11.630  14.949  66.992  1.00  0.00     0.000 HD 
BRANCH  16  18
HETATM   18  C   UNL     1      -9.792  15.899  67.009  1.00  0.00    -0.232 C  
BRANCH  18  19
HETATM   19  C   UNL     1      -8.916  14.661  66.834  1.00  0.00    -0.275 C  
BRANCH  19  20
HETATM   20  C   UNL     1      -8.977  13.792  68.090  1.00  0.00    -0.190 C  
BRANCH  20  21
HETATM   21  C   UNL     1      -7.717  12.945  68.234  1.00  0.00    -0.137 C  
BRANCH  21  22
HETATM   22  C   UNL     1      -7.556  11.991  67.054  1.00  0.00    -0.111 C  
BRANCH  22  23
HETATM   23  C   UNL     1      -6.815  10.734  67.479  1.00  0.00    -0.079 C  
BRANCH  23  24
HETATM   24  O   UNL     1      -6.861   9.792  66.412  1.00  0.00    -0.084 OA 
BRANCH  24  25
HETATM   25  C   UNL     1      -6.856   8.459  66.917  1.00  0.00    -0.069 C  
BRANCH  25  26
HETATM   26  C   UNL     1      -7.197   8.470  68.398  1.00  0.00    -0.085 C  
BRANCH  26  27
HETATM   27  O   UNL     1      -8.462   7.835  68.585  1.00  0.00    -0.128 OA 
BRANCH  27  28
HETATM   28  C   UNL     1      -8.456   6.997  69.731  1.00  0.00    -0.137 C  
BRANCH  28  29
HETATM   29  C   UNL     1      -9.691   7.281  70.543  1.00  0.00    -0.176 A  
HETATM   30  C   UNL     1     -10.964   6.879  70.102  1.00  0.00    -0.281 A  
HETATM   31 CL   UNL     1     -11.209   6.096  68.578  1.00  0.00    -0.364 Cl 
HETATM   32  C   UNL     1     -12.104   7.101  70.886  1.00  0.00    -0.368 A  
HETATM   33  C   UNL     1     -11.997   7.749  72.112  1.00  0.00    -0.362 A  
HETATM   34  C   UNL     1     -10.754   8.203  72.542  1.00  0.00    -0.419 A  
HETATM   35  C   UNL     1      -9.613   7.982  71.760  1.00  0.00    -0.176 A  
HETATM   36 CL   UNL     1      -8.120   8.613  72.367  1.00  0.00    -0.124 Cl 
ENDBRANCH  28  29
ENDBRANCH  27  28
ENDBRANCH  26  27
ENDBRANCH  25  26
ENDBRANCH  24  25
ENDBRANCH  23  24
ENDBRANCH  22  23
ENDBRANCH  21  22
ENDBRANCH  20  21
ENDBRANCH  19  20
ENDBRANCH  18  19
ENDBRANCH  16  18
ENDBRANCH  15  16
ENDBRANCH  12  15
ENDBRANCH  10  12
ENDBRANCH   2   4
TORSDOF 16
ENDMDL
MODEL      172
REMARK 921   NORMALIZED FREE ENERGY PREDICTED BY IDOCK:   -4.96 KCAL/MOL
REMARK 922        TOTAL FREE ENERGY PREDICTED BY IDOCK:  -11.67 KCAL/MOL
REMARK 923 INTER-LIGAND FREE ENERGY PREDICTED BY IDOCK:   -8.75 KCAL/MOL
REMARK 924 INTRA-LIGAND FREE ENERGY PREDICTED BY IDOCK:   -2.91 KCAL/MOL
REMARK 927      BINDING AFFINITY PREDICTED BY RF-SCORE:    0.00 PKD
ROOT
HETATM    1  O   UNL     1      -8.912   8.709  72.755  1.00  0.00    -0.356 OA 
HETATM    2  C   UNL     1      -8.790   7.801  73.851  1.00  0.00    -0.272 C  
HETATM    3  H   UNL     1      -8.421   9.505  72.916  1.00  0.00     0.000 HD 
ENDROOT
BRANCH   2   4
HETATM    4  C   UNL     1      -9.570   6.537  73.595  1.00  0.00    -0.193 A  
HETATM    5  C   UNL     1     -10.924   6.527  73.243  1.00  0.00    -0.195 A  
HETATM    6  O   UNL     1     -11.624   7.682  73.033  1.00  0.00    -0.596 OA 
HETATM    7  C   UNL     1     -11.625   5.334  73.086  1.00  0.00    -0.251 A  
HETATM    8  C   UNL     1     -10.974   4.117  73.272  1.00  0.00    -0.324 A  
HETATM    9  H   UNL     1     -12.544   7.675  72.794  1.00  0.00     0.000 HD 
HETATM   10  C   UNL     1      -9.618   4.083  73.623  1.00  0.00    -0.134 A  
HETATM   11  C   UNL     1      -8.933   5.300  73.795  1.00  0.00    -0.123 A  
BRANCH  10  12
HETATM   12  C   UNL     1      -8.945   2.752  73.888  1.00  0.00    -0.075 C  
HETATM   13  O   UNL     1      -9.892   1.683  73.751  1.00  0.00    -0.074 OA 
HETATM   14  H   UNL     1      -9.470   0.848  73.917  1.00  0.00     0.000 HD 
BRANCH  12  15
HETATM   15  C   UNL     1      -7.776   2.537  72.905  1.00  0.00    -0.046 C  
BRANCH  15  16
HETATM   16  N   UNL     1      -8.260   2.105  71.583  1.00  0.00    -0.051 NA 
HETATM   17  H   UNL     1      -9.234   1.805  71.612  1.00  0.00     0.000 HD 
BRANCH  16  18
HETATM   18  C   UNL     1      -8.044   3.162  70.600  1.00  0.00    -0.049 C  
BRANCH  18  19
HETATM   19  C   UNL     1      -9.360   3.515  69.911  1.00  0.00    -0.247 C  
BRANCH  19  20
HETATM   20  C   UNL     1      -9.637   5.012  70.043  1.00  0.00    -0.258 C  
BRANCH  20  21
HETATM   21  C   UNL     1     -10.576   5.496  68.944  1.00  0.00    -0.258 C  
BRANCH  21  22
HETATM   22  C   UNL     1     -11.400   6.693  69.410  1.00  0.00    -0.331 C  
BRANCH  22  23
HETATM   23  C   UNL     1     -10.541   7.947  69.459  1.00  0.00    -0.219 C  
BRANCH  23  24
HETATM   24  O   UNL     1     -11.021   8.790  70.501  1.00  0.00    -0.230 OA 
BRANCH  24  25
HETATM   25  C   UNL     1     -10.768  10.160  70.197  1.00  0.00    -0.300 C  
BRANCH  25  26
HETATM   26  C   UNL     1     -12.073  10.858  69.851  1.00  0.00    -0.354 C  
BRANCH  26  27
HETATM   27  O   UNL     1     -12.099  11.115  68.447  1.00  0.00    -0.605 OA 
BRANCH  27  28
HETATM   28  C   UNL     1     -10.863  11.646  67.994  1.00  0.00    -0.215 C  
BRANCH  28  29
HETATM   29  C   UNL     1     -10.896  11.732  66.493  1.00  0.00    -0.323 A  
HETATM   30  C   UNL     1     -11.487  12.825  65.836  1.00  0.00    -0.356 A  
HETATM   31 CL   UNL     1     -12.271  14.106  66.697  1.00  0.00    -0.484 Cl 
HETATM   32  C   UNL     1     -11.469  12.925  64.438  1.00  0.00    -0.405 A  
HETATM   33  C   UNL     1     -10.883  11.924  63.671  1.00  0.00    -0.510 A  
HETATM   34  C   UNL     1     -10.340  10.808  64.298  1.00  0.00    -0.401 A  
HETATM   35  C   UNL     1     -10.356  10.706  65.696  1.00  0.00    -0.216 A  
HETATM   36 CL   UNL     1      -9.685   9.264  66.379  1.00  0.00    -0.299 Cl 
ENDBRANCH  28  29
ENDBRANCH  27  28
ENDBRANCH  26  27
ENDBRANCH  25  26
ENDBRANCH  24  25
ENDBRANCH  23  24
ENDBRANCH  22  23
ENDBRANCH  21  22
ENDBRANCH  20  21
ENDBRANCH  19  20
ENDBRANCH  18  19
ENDBRANCH  16  18
ENDBRANCH  15  16
ENDBRANCH  12  15
ENDBRANCH  10  12
ENDBRANCH   2   4
TORSDOF 16
ENDMDL
MODEL      173
REMARK 921   NORMALIZED FREE ENERGY PREDICTED BY IDOCK:   -4.94 KCAL/MOL
REMARK 922        TOTAL FREE ENERGY PREDICTED BY IDOCK:  -11.62 KCAL/MOL
REMARK 923 INTER-LIGAND FREE ENERGY PREDICTED BY IDOCK:   -9.73 KCAL/MOL
REMARK 924 INTRA-LIGAND FREE ENERGY PREDICTED BY IDOCK:   -1.90 KCAL/MOL
REMARK 927      BINDING AFFINITY PREDICTED BY RF-SCORE:    0.00 PKD
ROOT
HETATM    1  O   UNL     1     -12.385  14.101  63.072  1.00  0.00    -1.070 OA 
HETATM    2  C   UNL     1     -12.295  12.700  63.333  1.00  0.00    -0.456 C  
HETATM    3  H   UNL     1     -12.621  14.265  62.167  1.00  0.00     0.000 HD 
ENDROOT
BRANCH   2   4
HETATM    4  C   UNL     1     -11.920  12.440  64.769  1.00  0.00    -0.462 A  
HETATM    5  C   UNL     1     -12.325  13.257  65.830  1.00  0.00    -0.447 A  
HETATM    6  O   UNL     1     -13.163  14.321  65.642  1.00  0.00    -0.630 OA 
HETATM    7  C   UNL     1     -11.897  13.022  67.133  1.00  0.00    -0.431 A  
HETATM    8  C   UNL     1     -11.052  11.948  67.403  1.00  0.00    -0.336 A  
HETATM    9  H   UNL     1     -13.438  14.876  66.362  1.00  0.00     0.000 HD 
HETATM   10  C   UNL     1     -10.623  11.104  66.369  1.00  0.00    -0.315 A  
HETATM   11  C   UNL     1     -11.053  11.370  65.057  1.00  0.00    -0.215 A  
BRANCH  10  12
HETATM   12  C   UNL     1      -9.650   9.984  66.671  1.00  0.00    -0.186 C  
HETATM   13  O   UNL     1     -10.096   8.763  66.064  1.00  0.00    -0.444 OA 
HETATM   14  H   UNL     1      -9.486   8.060  66.253  1.00  0.00     0.000 HD 
BRANCH  12  15
HETATM   15  C   UNL     1      -8.243  10.339  66.146  1.00  0.00    -0.138 C  
BRANCH  15  16
HETATM   16  N   UNL     1      -7.693   9.257  65.313  1.00  0.00    -0.101 NA 
HETATM   17  H   UNL     1      -7.618   9.530  64.333  1.00  0.00     0.000 HD 
BRANCH  16  18
HETATM   18  C   UNL     1      -6.414   8.807  65.853  1.00  0.00    -0.057 C  
BRANCH  18  19
HETATM   19  C   UNL     1      -6.579   7.450  66.532  1.00  0.00    -0.053 C  
BRANCH  19  20
HETATM   20  C   UNL     1      -7.730   6.676  65.890  1.00  0.00    -0.091 C  
BRANCH  20  21
HETATM   21  C   UNL     1      -7.552   5.174  66.075  1.00  0.00    -0.087 C  
BRANCH  21  22
HETATM   22  C   UNL     1      -8.874   4.435  65.889  1.00  0.00    -0.120 C  
BRANCH  22  23
HETATM   23  C   UNL     1     -10.023   5.236  66.481  1.00  0.00    -0.204 C  
BRANCH  23  24
HETATM   24  O   UNL     1     -10.240   4.805  67.820  1.00  0.00    -0.108 OA 
BRANCH  24  25
HETATM   25  C   UNL     1     -10.402   5.923  68.690  1.00  0.00    -0.215 C  
BRANCH  25  26
HETATM   26  C   UNL     1     -10.335   5.460  70.136  1.00  0.00    -0.290 C  
BRANCH  26  27
HETATM   27  O   UNL     1     -11.517   5.890  70.812  1.00  0.00    -0.230 OA 
BRANCH  27  28
HETATM   28  C   UNL     1     -11.214   6.805  71.855  1.00  0.00    -0.260 C  
BRANCH  28  29
HETATM   29  C   UNL     1     -11.766   8.155  71.488  1.00  0.00    -0.325 A  
HETATM   30  C   UNL     1     -13.145   8.423  71.551  1.00  0.00    -0.296 A  
HETATM   31 CL   UNL     1     -14.302   7.212  71.985  1.00  0.00    -0.441 Cl 
HETATM   32  C   UNL     1     -13.648   9.698  71.257  1.00  0.00    -0.294 A  
HETATM   33  C   UNL     1     -12.786  10.720  70.873  1.00  0.00    -0.443 A  
HETATM   34  C   UNL     1     -11.425  10.462  70.753  1.00  0.00    -0.422 A  
HETATM   35  C   UNL     1     -10.920   9.189  71.046  1.00  0.00    -0.305 A  
HETATM   36 CL   UNL     1      -9.217   8.959  70.835  1.00  0.00    -0.257 Cl 
ENDBRANCH  28  29
ENDBRANCH  27  28
ENDBRANCH  26  27
ENDBRANCH  25  26
ENDBRANCH  24  25
ENDBRANCH  23  24
ENDBRANCH  22  23
ENDBRANCH  21  22
ENDBRANCH  20  21
ENDBRANCH  19  20
ENDBRANCH  18  19
ENDBRANCH  16  18
ENDBRANCH  15  16
ENDBRANCH  12  15
ENDBRANCH  10  12
ENDBRANCH   2   4
TORSDOF 16
ENDMDL
MODEL      174
REMARK 921   NORMALIZED FREE ENERGY PREDICTED BY IDOCK:   -4.93 KCAL/MOL
REMARK 922        TOTAL FREE ENERGY PREDICTED BY IDOCK:  -11.62 KCAL/MOL
REMARK 923 INTER-LIGAND FREE ENERGY PREDICTED BY IDOCK:   -8.23 KCAL/MOL
REMARK 924 INTRA-LIGAND FREE ENERGY PREDICTED BY IDOCK:   -3.39 KCAL/MOL
REMARK 927      BINDING AFFINITY PREDICTED BY RF-SCORE:    0.00 PKD
ROOT
HETATM    1  O   UNL     1      -6.511   5.342  70.782  1.00  0.00    -0.028 OA 
HETATM    2  C   UNL     1      -6.529   6.600  71.457  1.00  0.00    -0.042 C  
HETATM    3  H   UNL     1      -5.627   4.997  70.725  1.00  0.00     0.000 HD 
ENDROOT
BRANCH   2   4
HETATM    4  C   UNL     1      -7.930   7.145  71.547  1.00  0.00    -0.102 A  
HETATM    5  C   UNL     1      -8.331   8.083  72.506  1.00  0.00    -0.157 A  
HETATM    6  O   UNL     1      -7.447   8.630  73.394  1.00  0.00    -0.357 OA 
HETATM    7  C   UNL     1      -9.653   8.506  72.600  1.00  0.00    -0.294 A  
HETATM    8  C   UNL     1     -10.608   8.001  71.720  1.00  0.00    -0.296 A  
HETATM    9  H   UNL     1      -7.718   9.266  74.044  1.00  0.00     0.000 HD 
HETATM   10  C   UNL     1     -10.248   7.062  70.744  1.00  0.00    -0.208 A  
HETATM   11  C   UNL     1      -8.910   6.634  70.679  1.00  0.00    -0.148 A  
BRANCH  10  12
HETATM   12  C   UNL     1     -11.313   6.473  69.843  1.00  0.00    -0.406 C  
HETATM   13  O   UNL     1     -12.608   6.962  70.221  1.00  0.00    -0.581 OA 
HETATM   14  H   UNL     1     -13.276   6.593  69.655  1.00  0.00     0.000 HD 
BRANCH  12  15
HETATM   15  C   UNL     1     -11.031   6.838  68.370  1.00  0.00    -0.187 C  
BRANCH  15  16
HETATM   16  N   UNL     1     -10.476   5.691  67.631  1.00  0.00    -0.222 NA 
HETATM   17  H   UNL     1     -11.208   5.102  67.234  1.00  0.00     0.000 HD 
BRANCH  16  18
HETATM   18  C   UNL     1      -9.539   6.156  66.614  1.00  0.00    -0.152 C  
BRANCH  18  19
HETATM   19  C   UNL     1      -9.446   7.679  66.641  1.00  0.00    -0.255 C  
BRANCH  19  20
HETATM   20  C   UNL     1      -8.409   8.162  65.628  1.00  0.00    -0.148 C  
BRANCH  20  21
HETATM   21  C   UNL     1      -8.578   9.647  65.332  1.00  0.00    -0.167 C  
BRANCH  21  22
HETATM   22  C   UNL     1     -10.032   9.984  65.017  1.00  0.00    -0.320 C  
BRANCH  22  23
HETATM   23  C   UNL     1     -10.113  11.070  63.956  1.00  0.00    -0.350 C  
BRANCH  23  24
HETATM   24  O   UNL     1     -11.429  11.612  63.954  1.00  0.00    -0.385 OA 
BRANCH  24  25
HETATM   25  C   UNL     1     -11.402  13.006  64.252  1.00  0.00    -0.376 C  
BRANCH  25  26
HETATM   26  C   UNL     1     -12.381  13.309  65.374  1.00  0.00    -0.479 C  
BRANCH  26  27
HETATM   27  O   UNL     1     -12.212  12.340  66.408  1.00  0.00    -0.613 OA 
BRANCH  27  28
HETATM   28  C   UNL     1     -11.721  12.935  67.600  1.00  0.00    -0.370 C  
BRANCH  28  29
HETATM   29  C   UNL     1     -10.465  12.218  68.015  1.00  0.00    -0.231 A  
HETATM   30  C   UNL     1     -10.514  11.051  68.798  1.00  0.00    -0.198 A  
HETATM   31 CL   UNL     1     -12.003  10.399  69.391  1.00  0.00    -0.210 Cl 
HETATM   32  C   UNL     1      -9.343  10.359  69.138  1.00  0.00    -0.211 A  
HETATM   33  C   UNL     1      -8.103  10.833  68.723  1.00  0.00    -0.143 A  
HETATM   34  C   UNL     1      -8.028  12.015  67.994  1.00  0.00    -0.149 A  
HETATM   35  C   UNL     1      -9.197  12.708  67.653  1.00  0.00    -0.191 A  
HETATM   36 CL   UNL     1      -8.996  14.185  66.772  1.00  0.00    -0.252 Cl 
ENDBRANCH  28  29
ENDBRANCH  27  28
ENDBRANCH  26  27
ENDBRANCH  25  26
ENDBRANCH  24  25
ENDBRANCH  23  24
ENDBRANCH  22  23
ENDBRANCH  21  22
ENDBRANCH  20  21
ENDBRANCH  19  20
ENDBRANCH  18  19
ENDBRANCH  16  18
ENDBRANCH  15  16
ENDBRANCH  12  15
ENDBRANCH  10  12
ENDBRANCH   2   4
TORSDOF 16
ENDMDL
MODEL      175
REMARK 921   NORMALIZED FREE ENERGY PREDICTED BY IDOCK:   -4.93 KCAL/MOL
REMARK 922        TOTAL FREE ENERGY PREDICTED BY IDOCK:  -11.61 KCAL/MOL
REMARK 923 INTER-LIGAND FREE ENERGY PREDICTED BY IDOCK:   -9.80 KCAL/MOL
REMARK 924 INTRA-LIGAND FREE ENERGY PREDICTED BY IDOCK:   -1.81 KCAL/MOL
REMARK 927      BINDING AFFINITY PREDICTED BY RF-SCORE:    0.00 PKD
ROOT
HETATM    1  O   UNL     1     -10.177  10.189  64.881  1.00  0.00    -0.300 OA 
HETATM    2  C   UNL     1      -9.629  11.279  64.139  1.00  0.00    -0.225 C  
HETATM    3  H   UNL     1      -9.602   9.434  64.854  1.00  0.00     0.000 HD 
ENDROOT
BRANCH   2   4
HETATM    4  C   UNL     1     -10.542  12.476  64.182  1.00  0.00    -0.425 A  
HETATM    5  C   UNL     1     -11.829  12.482  63.632  1.00  0.00    -0.530 A  
HETATM    6  O   UNL     1     -12.381  11.362  63.075  1.00  0.00    -0.952 OA 
HETATM    7  C   UNL     1     -12.613  13.632  63.630  1.00  0.00    -0.065 A  
HETATM    8  C   UNL     1     -12.122  14.808  64.191  1.00  0.00    -0.323 A  
HETATM    9  H   UNL     1     -13.254  11.365  62.702  1.00  0.00     0.000 HD 
HETATM   10  C   UNL     1     -10.838  14.845  64.754  1.00  0.00    -0.382 A  
HETATM   11  C   UNL     1     -10.056  13.676  64.729  1.00  0.00    -0.268 A  
BRANCH  10  12
HETATM   12  C   UNL     1     -10.295  16.150  65.297  1.00  0.00    -0.252 C  
HETATM   13  O   UNL     1     -10.984  17.259  64.701  1.00  0.00    -1.013 OA 
HETATM   14  H   UNL     1     -10.643  18.077  65.042  1.00  0.00     0.000 HD 
BRANCH  12  15
HETATM   15  C   UNL     1     -10.459  16.202  66.830  1.00  0.00    -0.300 C  
BRANCH  15  16
HETATM   16  N   UNL     1      -9.480  17.116  67.443  1.00  0.00    -0.244 NA 
HETATM   17  H   UNL     1      -9.543  17.116  68.461  1.00  0.00     0.000 HD 
BRANCH  16  18
HETATM   18  C   UNL     1      -8.134  16.793  66.980  1.00  0.00    -0.194 C  
BRANCH  18  19
HETATM   19  C   UNL     1      -7.143  16.890  68.137  1.00  0.00    -0.166 C  
BRANCH  19  20
HETATM   20  C   UNL     1      -5.742  16.503  67.663  1.00  0.00    -0.159 C  
BRANCH  20  21
HETATM   21  C   UNL     1      -5.187  15.342  68.479  1.00  0.00    -0.099 C  
BRANCH  21  22
HETATM   22  C   UNL     1      -6.135  14.960  69.611  1.00  0.00    -0.125 C  
BRANCH  22  23
HETATM   23  C   UNL     1      -6.530  13.496  69.509  1.00  0.00    -0.089 C  
BRANCH  23  24
HETATM   24  O   UNL     1      -6.791  13.186  68.144  1.00  0.00    -0.085 OA 
BRANCH  24  25
HETATM   25  C   UNL     1      -8.020  12.474  68.015  1.00  0.00    -0.153 C  
BRANCH  25  26
HETATM   26  C   UNL     1      -9.185  13.407  68.306  1.00  0.00    -0.198 C  
BRANCH  26  27
HETATM   27  O   UNL     1     -10.128  12.723  69.130  1.00  0.00     0.103 OA 
BRANCH  27  28
HETATM   28  C   UNL     1     -11.463  13.045  68.767  1.00  0.00    -0.298 C  
BRANCH  28  29
HETATM   29  C   UNL     1     -12.272  13.233  70.021  1.00  0.00    -0.345 A  
HETATM   30  C   UNL     1     -12.640  12.140  70.825  1.00  0.00    -0.216 A  
HETATM   31 CL   UNL     1     -12.251  10.509  70.399  1.00  0.00    -0.394 Cl 
HETATM   32  C   UNL     1     -13.350  12.327  72.019  1.00  0.00    -0.491 A  
HETATM   33  C   UNL     1     -13.725  13.605  72.420  1.00  0.00    -0.697 A  
HETATM   34  C   UNL     1     -13.418  14.695  71.612  1.00  0.00    -0.452 A  
HETATM   35  C   UNL     1     -12.709  14.511  70.418  1.00  0.00    -0.322 A  
HETATM   36 CL   UNL     1     -12.404  15.925  69.468  1.00  0.00    -0.142 Cl 
ENDBRANCH  28  29
ENDBRANCH  27  28
ENDBRANCH  26  27
ENDBRANCH  25  26
ENDBRANCH  24  25
ENDBRANCH  23  24
ENDBRANCH  22  23
ENDBRANCH  21  22
ENDBRANCH  20  21
ENDBRANCH  19  20
ENDBRANCH  18  19
ENDBRANCH  16  18
ENDBRANCH  15  16
ENDBRANCH  12  15
ENDBRANCH  10  12
ENDBRANCH   2   4
TORSDOF 16
ENDMDL
MODEL      176
REMARK 921   NORMALIZED FREE ENERGY PREDICTED BY IDOCK:   -4.93 KCAL/MOL
REMARK 922        TOTAL FREE ENERGY PREDICTED BY IDOCK:  -11.61 KCAL/MOL
REMARK 923 INTER-LIGAND FREE ENERGY PREDICTED BY IDOCK:  -10.11 KCAL/MOL
REMARK 924 INTRA-LIGAND FREE ENERGY PREDICTED BY IDOCK:   -1.50 KCAL/MOL
REMARK 927      BINDING AFFINITY PREDICTED BY RF-SCORE:    0.00 PKD
ROOT
HETATM    1  O   UNL     1      -7.007   4.583  67.191  1.00  0.00    -0.058 OA 
HETATM    2  C   UNL     1      -7.831   4.927  66.077  1.00  0.00    -0.099 C  
HETATM    3  H   UNL     1      -6.480   3.816  67.002  1.00  0.00     0.000 HD 
ENDROOT
BRANCH   2   4
HETATM    4  C   UNL     1      -8.666   6.145  66.377  1.00  0.00    -0.138 A  
HETATM    5  C   UNL     1      -9.663   6.171  67.359  1.00  0.00    -0.120 A  
HETATM    6  O   UNL     1      -9.901   5.100  68.174  1.00  0.00    -0.141 OA 
HETATM    7  C   UNL     1     -10.460   7.295  67.555  1.00  0.00    -0.337 A  
HETATM    8  C   UNL     1     -10.267   8.429  66.769  1.00  0.00    -0.376 A  
HETATM    9  H   UNL     1     -10.577   5.117  68.840  1.00  0.00     0.000 HD 
HETATM   10  C   UNL     1      -9.278   8.445  65.776  1.00  0.00    -0.175 A  
HETATM   11  C   UNL     1      -8.496   7.292  65.582  1.00  0.00    -0.138 A  
BRANCH  10  12
HETATM   12  C   UNL     1      -9.129   9.661  64.886  1.00  0.00    -0.232 C  
HETATM   13  O   UNL     1      -9.165   9.273  63.506  1.00  0.00    -0.416 OA 
HETATM   14  H   UNL     1      -9.072  10.036  62.948  1.00  0.00     0.000 HD 
BRANCH  12  15
HETATM   15  C   UNL     1     -10.259  10.674  65.169  1.00  0.00    -0.299 C  
BRANCH  15  16
HETATM   16  N   UNL     1     -10.788  11.248  63.921  1.00  0.00    -0.456 NA 
HETATM   17  H   UNL     1     -10.842  10.555  63.174  1.00  0.00     0.000 HD 
BRANCH  16  18
HETATM   18  C   UNL     1     -12.078  11.885  64.168  1.00  0.00    -0.298 C  
BRANCH  18  19
HETATM   19  C   UNL     1     -11.978  13.387  63.921  1.00  0.00    -0.520 C  
BRANCH  19  20
HETATM   20  C   UNL     1     -10.670  13.930  64.498  1.00  0.00    -0.382 C  
BRANCH  20  21
HETATM   21  C   UNL     1     -10.825  15.380  64.941  1.00  0.00    -0.445 C  
BRANCH  21  22
HETATM   22  C   UNL     1     -10.541  15.534  66.432  1.00  0.00    -0.312 C  
BRANCH  22  23
HETATM   23  C   UNL     1     -10.231  16.983  66.771  1.00  0.00    -0.298 C  
BRANCH  23  24
HETATM   24  O   UNL     1     -10.592  17.224  68.127  1.00  0.00    -0.363 OA 
BRANCH  24  25
HETATM   25  C   UNL     1     -11.232  16.081  68.689  1.00  0.00    -0.366 C  
BRANCH  25  26
HETATM   26  C   UNL     1     -11.166  16.150  70.206  1.00  0.00    -0.381 C  
BRANCH  26  27
HETATM   27  O   UNL     1     -11.470  14.862  70.740  1.00  0.00    -0.282 OA 
BRANCH  27  28
HETATM   28  C   UNL     1     -12.258  14.100  69.837  1.00  0.00    -0.359 C  
BRANCH  28  29
HETATM   29  C   UNL     1     -12.343  12.686  70.345  1.00  0.00    -0.315 A  
HETATM   30  C   UNL     1     -11.662  11.637  69.703  1.00  0.00    -0.350 A  
HETATM   31 CL   UNL     1     -10.741  11.881  68.258  1.00  0.00    -0.236 Cl 
HETATM   32  C   UNL     1     -11.702  10.331  70.211  1.00  0.00    -0.388 A  
HETATM   33  C   UNL     1     -12.443  10.045  71.353  1.00  0.00    -0.510 A  
HETATM   34  C   UNL     1     -13.167  11.058  71.972  1.00  0.00    -0.447 A  
HETATM   35  C   UNL     1     -13.128  12.364  71.467  1.00  0.00    -0.264 A  
HETATM   36 CL   UNL     1     -14.089  13.546  72.289  1.00  0.00    -0.613 Cl 
ENDBRANCH  28  29
ENDBRANCH  27  28
ENDBRANCH  26  27
ENDBRANCH  25  26
ENDBRANCH  24  25
ENDBRANCH  23  24
ENDBRANCH  22  23
ENDBRANCH  21  22
ENDBRANCH  20  21
ENDBRANCH  19  20
ENDBRANCH  18  19
ENDBRANCH  16  18
ENDBRANCH  15  16
ENDBRANCH  12  15
ENDBRANCH  10  12
ENDBRANCH   2   4
TORSDOF 16
ENDMDL
MODEL      177
REMARK 921   NORMALIZED FREE ENERGY PREDICTED BY IDOCK:   -4.92 KCAL/MOL
REMARK 922        TOTAL FREE ENERGY PREDICTED BY IDOCK:  -11.59 KCAL/MOL
REMARK 923 INTER-LIGAND FREE ENERGY PREDICTED BY IDOCK:   -8.95 KCAL/MOL
REMARK 924 INTRA-LIGAND FREE ENERGY PREDICTED BY IDOCK:   -2.65 KCAL/MOL
REMARK 927      BINDING AFFINITY PREDICTED BY RF-SCORE:    0.00 PKD
ROOT
HETATM    1  O   UNL     1     -14.226   7.469  70.879  1.00  0.00    -0.644 OA 
HETATM    2  C   UNL     1     -13.250   7.166  71.877  1.00  0.00    -0.221 C  
HETATM    3  H   UNL     1     -15.000   7.860  71.267  1.00  0.00     0.000 HD 
ENDROOT
BRANCH   2   4
HETATM    4  C   UNL     1     -12.023   6.546  71.261  1.00  0.00    -0.364 A  
HETATM    5  C   UNL     1     -10.970   6.013  72.013  1.00  0.00    -0.263 A  
HETATM    6  O   UNL     1     -11.018   5.951  73.378  1.00  0.00    -0.348 OA 
HETATM    7  C   UNL     1      -9.822   5.514  71.405  1.00  0.00    -0.218 A  
HETATM    8  C   UNL     1      -9.708   5.533  70.016  1.00  0.00    -0.238 A  
HETATM    9  H   UNL     1     -10.304   5.589  73.889  1.00  0.00     0.000 HD 
HETATM   10  C   UNL     1     -10.740   6.057  69.226  1.00  0.00    -0.401 A  
HETATM   11  C   UNL     1     -11.883   6.572  69.862  1.00  0.00    -0.223 A  
BRANCH  10  12
HETATM   12  C   UNL     1     -10.568   6.131  67.723  1.00  0.00    -0.269 C  
HETATM   13  O   UNL     1     -11.831   6.384  67.092  1.00  0.00    -0.379 OA 
HETATM   14  H   UNL     1     -11.723   6.432  66.150  1.00  0.00     0.000 HD 
BRANCH  12  15
HETATM   15  C   UNL     1      -9.571   7.249  67.352  1.00  0.00    -0.142 C  
BRANCH  15  16
HETATM   16  N   UNL     1      -9.169   7.160  65.938  1.00  0.00    -0.377 NA 
HETATM   17  H   UNL     1      -9.482   7.969  65.401  1.00  0.00     0.000 HD 
BRANCH  16  18
HETATM   18  C   UNL     1      -7.726   6.964  65.837  1.00  0.00    -0.098 C  
BRANCH  18  19
HETATM   19  C   UNL     1      -7.058   8.236  65.322  1.00  0.00    -0.074 C  
BRANCH  19  20
HETATM   20  C   UNL     1      -7.730   8.697  64.029  1.00  0.00    -0.134 C  
BRANCH  20  21
HETATM   21  C   UNL     1      -8.090  10.177  64.095  1.00  0.00    -0.158 C  
BRANCH  21  22
HETATM   22  C   UNL     1      -9.535  10.374  64.542  1.00  0.00    -0.342 C  
BRANCH  22  23
HETATM   23  C   UNL     1     -10.342  11.068  63.457  1.00  0.00    -0.340 C  
BRANCH  23  24
HETATM   24  O   UNL     1     -11.307  11.913  64.073  1.00  0.00    -0.353 OA 
BRANCH  24  25
HETATM   25  C   UNL     1     -10.868  12.319  65.368  1.00  0.00    -0.286 C  
BRANCH  25  26
HETATM   26  C   UNL     1     -12.061  12.425  66.303  1.00  0.00    -0.180 C  
BRANCH  26  27
HETATM   27  O   UNL     1     -11.848  11.561  67.420  1.00  0.00    -0.607 OA 
BRANCH  27  28
HETATM   28  C   UNL     1     -11.037  12.182  68.407  1.00  0.00    -0.245 C  
BRANCH  28  29
HETATM   29  C   UNL     1     -10.399  11.111  69.250  1.00  0.00    -0.148 A  
HETATM   30  C   UNL     1      -9.077  10.690  69.019  1.00  0.00    -0.166 A  
HETATM   31 CL   UNL     1      -8.121  11.318  67.721  1.00  0.00    -0.115 Cl 
HETATM   32  C   UNL     1      -8.471   9.729  69.840  1.00  0.00    -0.217 A  
HETATM   33  C   UNL     1      -9.180   9.154  70.889  1.00  0.00    -0.326 A  
HETATM   34  C   UNL     1     -10.506   9.517  71.101  1.00  0.00    -0.358 A  
HETATM   35  C   UNL     1     -11.115  10.478  70.282  1.00  0.00    -0.285 A  
HETATM   36 CL   UNL     1     -12.776  10.837  70.606  1.00  0.00    -0.426 Cl 
ENDBRANCH  28  29
ENDBRANCH  27  28
ENDBRANCH  26  27
ENDBRANCH  25  26
ENDBRANCH  24  25
ENDBRANCH  23  24
ENDBRANCH  22  23
ENDBRANCH  21  22
ENDBRANCH  20  21
ENDBRANCH  19  20
ENDBRANCH  18  19
ENDBRANCH  16  18
ENDBRANCH  15  16
ENDBRANCH  12  15
ENDBRANCH  10  12
ENDBRANCH   2   4
TORSDOF 16
ENDMDL
MODEL      178
REMARK 921   NORMALIZED FREE ENERGY PREDICTED BY IDOCK:   -4.91 KCAL/MOL
REMARK 922        TOTAL FREE ENERGY PREDICTED BY IDOCK:  -11.58 KCAL/MOL
REMARK 923 INTER-LIGAND FREE ENERGY PREDICTED BY IDOCK:   -8.96 KCAL/MOL
REMARK 924 INTRA-LIGAND FREE ENERGY PREDICTED BY IDOCK:   -2.62 KCAL/MOL
REMARK 927      BINDING AFFINITY PREDICTED BY RF-SCORE:    0.00 PKD
ROOT
HETATM    1  O   UNL     1     -13.228  12.461  64.147  1.00  0.00    -0.761 OA 
HETATM    2  C   UNL     1     -12.236  13.404  63.739  1.00  0.00    -0.417 C  
HETATM    3  H   UNL     1     -13.521  11.935  63.412  1.00  0.00     0.000 HD 
ENDROOT
BRANCH   2   4
HETATM    4  C   UNL     1     -11.771  14.238  64.905  1.00  0.00    -0.399 A  
HETATM    5  C   UNL     1     -11.363  15.571  64.783  1.00  0.00    -0.357 A  
HETATM    6  O   UNL     1     -11.429  16.240  63.592  1.00  0.00    -1.361 OA 
HETATM    7  C   UNL     1     -10.873  16.284  65.873  1.00  0.00    -0.141 A  
HETATM    8  C   UNL     1     -10.789  15.671  67.122  1.00  0.00    -0.297 A  
HETATM    9  H   UNL     1     -11.152  17.144  63.509  1.00  0.00     0.000 HD 
HETATM   10  C   UNL     1     -11.189  14.338  67.287  1.00  0.00    -0.330 A  
HETATM   11  C   UNL     1     -11.664  13.631  66.168  1.00  0.00    -0.391 A  
BRANCH  10  12
HETATM   12  C   UNL     1     -11.026  13.669  68.636  1.00  0.00    -0.267 C  
HETATM   13  O   UNL     1     -12.108  14.033  69.504  1.00  0.00    -0.320 OA 
HETATM   14  H   UNL     1     -12.006  13.613  70.350  1.00  0.00     0.000 HD 
BRANCH  12  15
HETATM   15  C   UNL     1     -10.986  12.135  68.473  1.00  0.00    -0.238 C  
BRANCH  15  16
HETATM   16  N   UNL     1      -9.697  11.582  68.922  1.00  0.00    -0.393 NA 
HETATM   17  H   UNL     1      -9.779  10.605  69.206  1.00  0.00     0.000 HD 
BRANCH  16  18
HETATM   18  C   UNL     1      -8.684  11.767  67.889  1.00  0.00    -0.164 C  
BRANCH  18  19
HETATM   19  C   UNL     1      -9.115  11.074  66.600  1.00  0.00    -0.177 C  
BRANCH  19  20
HETATM   20  C   UNL     1      -8.397   9.732  66.457  1.00  0.00    -0.124 C  
BRANCH  20  21
HETATM   21  C   UNL     1      -9.372   8.624  66.078  1.00  0.00    -0.284 C  
BRANCH  21  22
HETATM   22  C   UNL     1     -10.289   8.273  67.246  1.00  0.00    -0.372 C  
BRANCH  22  23
HETATM   23  C   UNL     1     -10.836   6.863  67.092  1.00  0.00    -0.377 C  
BRANCH  23  24
HETATM   24  O   UNL     1      -9.962   6.122  66.248  1.00  0.00    -0.114 OA 
BRANCH  24  25
HETATM   25  C   UNL     1     -10.265   4.730  66.307  1.00  0.00    -0.282 C  
BRANCH  25  26
HETATM   26  C   UNL     1      -9.395   4.059  67.357  1.00  0.00    -0.183 C  
BRANCH  26  27
HETATM   27  O   UNL     1      -8.165   4.777  67.463  1.00  0.00    -0.104 OA 
BRANCH  27  28
HETATM   28  C   UNL     1      -7.683   4.785  68.799  1.00  0.00    -0.072 C  
BRANCH  28  29
HETATM   29  C   UNL     1      -7.925   6.146  69.391  1.00  0.00    -0.104 A  
HETATM   30  C   UNL     1      -9.005   6.384  70.259  1.00  0.00    -0.154 A  
HETATM   31 CL   UNL     1     -10.162   5.158  70.651  1.00  0.00    -0.323 Cl 
HETATM   32  C   UNL     1      -9.195   7.642  70.848  1.00  0.00    -0.150 A  
HETATM   33  C   UNL     1      -8.326   8.689  70.563  1.00  0.00    -0.147 A  
HETATM   34  C   UNL     1      -7.282   8.489  69.666  1.00  0.00    -0.052 A  
HETATM   35  C   UNL     1      -7.089   7.233  69.076  1.00  0.00    -0.080 A  
HETATM   36 CL   UNL     1      -5.783   7.095  67.948  1.00  0.00    -0.024 Cl 
ENDBRANCH  28  29
ENDBRANCH  27  28
ENDBRANCH  26  27
ENDBRANCH  25  26
ENDBRANCH  24  25
ENDBRANCH  23  24
ENDBRANCH  22  23
ENDBRANCH  21  22
ENDBRANCH  20  21
ENDBRANCH  19  20
ENDBRANCH  18  19
ENDBRANCH  16  18
ENDBRANCH  15  16
ENDBRANCH  12  15
ENDBRANCH  10  12
ENDBRANCH   2   4
TORSDOF 16
ENDMDL
MODEL      179
REMARK 921   NORMALIZED FREE ENERGY PREDICTED BY IDOCK:   -4.91 KCAL/MOL
REMARK 922        TOTAL FREE ENERGY PREDICTED BY IDOCK:  -11.58 KCAL/MOL
REMARK 923 INTER-LIGAND FREE ENERGY PREDICTED BY IDOCK:   -8.63 KCAL/MOL
REMARK 924 INTRA-LIGAND FREE ENERGY PREDICTED BY IDOCK:   -2.95 KCAL/MOL
REMARK 927      BINDING AFFINITY PREDICTED BY RF-SCORE:    0.00 PKD
ROOT
HETATM    1  O   UNL     1     -10.029   9.286  65.033  1.00  0.00    -0.351 OA 
HETATM    2  C   UNL     1      -8.683   9.156  65.492  1.00  0.00    -0.181 C  
HETATM    3  H   UNL     1     -10.065   9.765  64.213  1.00  0.00     0.000 HD 
ENDROOT
BRANCH   2   4
HETATM    4  C   UNL     1      -8.627   8.397  66.792  1.00  0.00    -0.123 A  
HETATM    5  C   UNL     1      -9.259   7.164  66.992  1.00  0.00    -0.144 A  
HETATM    6  O   UNL     1      -9.919   6.520  65.983  1.00  0.00    -0.403 OA 
HETATM    7  C   UNL     1      -9.242   6.531  68.231  1.00  0.00    -0.116 A  
HETATM    8  C   UNL     1      -8.578   7.122  69.304  1.00  0.00    -0.137 A  
HETATM    9  H   UNL     1     -10.348   5.684  66.118  1.00  0.00     0.000 HD 
HETATM   10  C   UNL     1      -7.931   8.356  69.146  1.00  0.00    -0.110 A  
HETATM   11  C   UNL     1      -7.975   8.987  67.890  1.00  0.00    -0.102 A  
BRANCH  10  12
HETATM   12  C   UNL     1      -7.273   9.015  70.341  1.00  0.00    -0.069 C  
HETATM   13  O   UNL     1      -7.804  10.333  70.532  1.00  0.00    -0.427 OA 
HETATM   14  H   UNL     1      -7.392  10.747  71.282  1.00  0.00     0.000 HD 
BRANCH  12  15
HETATM   15  C   UNL     1      -7.506   8.173  71.613  1.00  0.00    -0.085 C  
BRANCH  15  16
HETATM   16  N   UNL     1      -8.239   8.938  72.635  1.00  0.00    -0.340 NA 
HETATM   17  H   UNL     1      -9.082   9.371  72.256  1.00  0.00     0.000 HD 
BRANCH  16  18
HETATM   18  C   UNL     1      -8.533   8.088  73.784  1.00  0.00    -0.257 C  
BRANCH  18  19
HETATM   19  C   UNL     1      -9.440   6.934  73.366  1.00  0.00    -0.190 C  
BRANCH  19  20
HETATM   20  C   UNL     1     -10.869   7.435  73.161  1.00  0.00    -0.435 C  
BRANCH  20  21
HETATM   21  C   UNL     1     -11.466   6.885  71.871  1.00  0.00    -0.308 C  
BRANCH  21  22
HETATM   22  C   UNL     1     -11.933   8.013  70.955  1.00  0.00    -0.260 C  
BRANCH  22  23
HETATM   23  C   UNL     1     -11.650   9.367  71.586  1.00  0.00    -0.396 C  
BRANCH  23  24
HETATM   24  O   UNL     1     -10.656  10.033  70.814  1.00  0.00    -0.287 OA 
BRANCH  24  25
HETATM   25  C   UNL     1     -11.124  10.275  69.490  1.00  0.00    -0.262 C  
BRANCH  25  26
HETATM   26  C   UNL     1     -11.764  11.652  69.417  1.00  0.00    -0.340 C  
BRANCH  26  27
HETATM   27  O   UNL     1     -12.056  11.953  68.052  1.00  0.00    -0.541 OA 
BRANCH  27  28
HETATM   28  C   UNL     1     -10.867  12.126  67.294  1.00  0.00    -0.244 C  
BRANCH  28  29
HETATM   29  C   UNL     1     -10.951  13.436  66.559  1.00  0.00    -0.299 A  
HETATM   30  C   UNL     1     -10.708  14.658  67.212  1.00  0.00    -0.290 A  
HETATM   31 CL   UNL     1     -10.365  14.747  68.906  1.00  0.00    -0.238 Cl 
HETATM   32  C   UNL     1     -10.737  15.871  66.510  1.00  0.00    -0.258 A  
HETATM   33  C   UNL     1     -11.032  15.888  65.151  1.00  0.00    -0.389 A  
HETATM   34  C   UNL     1     -11.329  14.696  64.498  1.00  0.00    -0.316 A  
HETATM   35  C   UNL     1     -11.300  13.482  65.197  1.00  0.00    -0.301 A  
HETATM   36 CL   UNL     1     -11.715  12.060  64.303  1.00  0.00    -0.427 Cl 
ENDBRANCH  28  29
ENDBRANCH  27  28
ENDBRANCH  26  27
ENDBRANCH  25  26
ENDBRANCH  24  25
ENDBRANCH  23  24
ENDBRANCH  22  23
ENDBRANCH  21  22
ENDBRANCH  20  21
ENDBRANCH  19  20
ENDBRANCH  18  19
ENDBRANCH  16  18
ENDBRANCH  15  16
ENDBRANCH  12  15
ENDBRANCH  10  12
ENDBRANCH   2   4
TORSDOF 16
ENDMDL
MODEL      180
REMARK 921   NORMALIZED FREE ENERGY PREDICTED BY IDOCK:   -4.90 KCAL/MOL
REMARK 922        TOTAL FREE ENERGY PREDICTED BY IDOCK:  -11.55 KCAL/MOL
REMARK 923 INTER-LIGAND FREE ENERGY PREDICTED BY IDOCK:   -9.92 KCAL/MOL
REMARK 924 INTRA-LIGAND FREE ENERGY PREDICTED BY IDOCK:   -1.63 KCAL/MOL
REMARK 927      BINDING AFFINITY PREDICTED BY RF-SCORE:    0.00 PKD
ROOT
HETATM    1  O   UNL     1     -13.231  12.387  64.410  1.00  0.00    -0.816 OA 
HETATM    2  C   UNL     1     -12.399  13.428  63.896  1.00  0.00    -0.343 C  
HETATM    3  H   UNL     1     -13.700  11.948  63.711  1.00  0.00     0.000 HD 
ENDROOT
BRANCH   2   4
HETATM    4  C   UNL     1     -11.654  14.123  65.007  1.00  0.00    -0.362 A  
HETATM    5  C   UNL     1     -11.221  15.451  64.928  1.00  0.00    -0.403 A  
HETATM    6  O   UNL     1     -11.510  16.242  63.851  1.00  0.00    -1.484 OA 
HETATM    7  C   UNL     1     -10.473  16.033  65.948  1.00  0.00    -0.373 A  
HETATM    8  C   UNL     1     -10.149  15.291  67.082  1.00  0.00    -0.240 A  
HETATM    9  H   UNL     1     -11.216  17.144  63.798  1.00  0.00     0.000 HD 
HETATM   10  C   UNL     1     -10.566  13.958  67.201  1.00  0.00    -0.277 A  
HETATM   11  C   UNL     1     -11.305  13.384  66.151  1.00  0.00    -0.324 A  
BRANCH  10  12
HETATM   12  C   UNL     1     -10.146  13.147  68.409  1.00  0.00    -0.231 C  
HETATM   13  O   UNL     1      -9.408  13.968  69.324  1.00  0.00    -0.379 OA 
HETATM   14  H   UNL     1      -9.145  13.460  70.082  1.00  0.00     0.000 HD 
BRANCH  12  15
HETATM   15  C   UNL     1     -11.385  12.563  69.120  1.00  0.00    -0.274 C  
BRANCH  15  16
HETATM   16  N   UNL     1     -11.878  13.472  70.169  1.00  0.00    -0.451 NA 
HETATM   17  H   UNL     1     -12.522  14.170  69.797  1.00  0.00     0.000 HD 
BRANCH  16  18
HETATM   18  C   UNL     1     -12.474  12.705  71.258  1.00  0.00    -0.175 C  
BRANCH  18  19
HETATM   19  C   UNL     1     -12.660  11.250  70.836  1.00  0.00    -0.467 C  
BRANCH  19  20
HETATM   20  C   UNL     1     -13.647  10.553  71.772  1.00  0.00    -0.212 C  
BRANCH  20  21
HETATM   21  C   UNL     1     -13.586   9.039  71.606  1.00  0.00    -0.446 C  
BRANCH  21  22
HETATM   22  C   UNL     1     -12.153   8.529  71.725  1.00  0.00    -0.391 C  
BRANCH  22  23
HETATM   23  C   UNL     1     -12.101   7.025  71.510  1.00  0.00    -0.353 C  
BRANCH  23  24
HETATM   24  O   UNL     1     -11.668   6.767  70.178  1.00  0.00    -0.357 OA 
BRANCH  24  25
HETATM   25  C   UNL     1     -10.695   7.726  69.770  1.00  0.00    -0.236 C  
BRANCH  25  26
HETATM   26  C   UNL     1     -10.516   7.665  68.262  1.00  0.00    -0.174 C  
BRANCH  26  27
HETATM   27  O   UNL     1      -9.165   7.306  67.973  1.00  0.00    -0.133 OA 
BRANCH  27  28
HETATM   28  C   UNL     1      -8.912   7.326  66.575  1.00  0.00    -0.152 C  
BRANCH  28  29
HETATM   29  C   UNL     1      -7.926   8.423  66.280  1.00  0.00    -0.099 A  
HETATM   30  C   UNL     1      -6.551   8.254  66.520  1.00  0.00    -0.056 A  
HETATM   31 CL   UNL     1      -5.908   6.812  67.229  1.00  0.00    -0.013 Cl 
HETATM   32  C   UNL     1      -5.631   9.260  66.195  1.00  0.00    -0.048 A  
HETATM   33  C   UNL     1      -6.069  10.460  65.647  1.00  0.00    -0.123 A  
HETATM   34  C   UNL     1      -7.430  10.669  65.451  1.00  0.00    -0.028 A  
HETATM   35  C   UNL     1      -8.352   9.665  65.775  1.00  0.00    -0.128 A  
HETATM   36 CL   UNL     1     -10.024  10.034  65.524  1.00  0.00    -0.373 Cl 
ENDBRANCH  28  29
ENDBRANCH  27  28
ENDBRANCH  26  27
ENDBRANCH  25  26
ENDBRANCH  24  25
ENDBRANCH  23  24
ENDBRANCH  22  23
ENDBRANCH  21  22
ENDBRANCH  20  21
ENDBRANCH  19  20
ENDBRANCH  18  19
ENDBRANCH  16  18
ENDBRANCH  15  16
ENDBRANCH  12  15
ENDBRANCH  10  12
ENDBRANCH   2   4
TORSDOF 16
ENDMDL
MODEL      181
REMARK 921   NORMALIZED FREE ENERGY PREDICTED BY IDOCK:   -4.89 KCAL/MOL
REMARK 922        TOTAL FREE ENERGY PREDICTED BY IDOCK:  -11.54 KCAL/MOL
REMARK 923 INTER-LIGAND FREE ENERGY PREDICTED BY IDOCK:   -9.85 KCAL/MOL
REMARK 924 INTRA-LIGAND FREE ENERGY PREDICTED BY IDOCK:   -1.69 KCAL/MOL
REMARK 927      BINDING AFFINITY PREDICTED BY RF-SCORE:    0.00 PKD
ROOT
HETATM    1  O   UNL     1     -11.545  16.385  63.824  1.00  0.00    -1.605 OA 
HETATM    2  C   UNL     1     -10.755  15.879  64.902  1.00  0.00    -0.341 C  
HETATM    3  H   UNL     1     -11.471  17.330  63.761  1.00  0.00     0.000 HD 
ENDROOT
BRANCH   2   4
HETATM    4  C   UNL     1     -10.873  14.381  65.001  1.00  0.00    -0.420 A  
HETATM    5  C   UNL     1     -11.751  13.624  64.217  1.00  0.00    -0.403 A  
HETATM    6  O   UNL     1     -12.521  14.194  63.242  1.00  0.00    -1.146 OA 
HETATM    7  C   UNL     1     -11.880  12.249  64.392  1.00  0.00    -0.464 A  
HETATM    8  C   UNL     1     -11.118  11.597  65.359  1.00  0.00    -0.299 A  
HETATM    9  H   UNL     1     -13.117  13.681  62.710  1.00  0.00     0.000 HD 
HETATM   10  C   UNL     1     -10.225  12.318  66.164  1.00  0.00    -0.263 A  
HETATM   11  C   UNL     1     -10.124  13.709  65.984  1.00  0.00    -0.320 A  
BRANCH  10  12
HETATM   12  C   UNL     1      -9.457  11.603  67.256  1.00  0.00    -0.168 C  
HETATM   13  O   UNL     1      -9.937  10.259  67.400  1.00  0.00    -0.176 OA 
HETATM   14  H   UNL     1      -9.454   9.810  68.084  1.00  0.00     0.000 HD 
BRANCH  12  15
HETATM   15  C   UNL     1      -7.950  11.583  66.926  1.00  0.00    -0.164 C  
BRANCH  15  16
HETATM   16  N   UNL     1      -7.604  10.432  66.074  1.00  0.00    -0.131 NA 
HETATM   17  H   UNL     1      -7.276  10.724  65.153  1.00  0.00     0.000 HD 
BRANCH  16  18
HETATM   18  C   UNL     1      -6.634   9.579  66.752  1.00  0.00    -0.068 C  
BRANCH  18  19
HETATM   19  C   UNL     1      -6.211  10.212  68.075  1.00  0.00    -0.056 C  
BRANCH  19  20
HETATM   20  C   UNL     1      -6.423   9.225  69.223  1.00  0.00    -0.045 C  
BRANCH  20  21
HETATM   21  C   UNL     1      -7.242   9.854  70.344  1.00  0.00    -0.143 C  
BRANCH  21  22
HETATM   22  C   UNL     1      -8.293   8.881  70.871  1.00  0.00    -0.219 C  
BRANCH  22  23
HETATM   23  C   UNL     1      -7.661   7.540  71.208  1.00  0.00    -0.081 C  
BRANCH  23  24
HETATM   24  O   UNL     1      -7.826   7.292  72.600  1.00  0.00    -0.092 OA 
BRANCH  24  25
HETATM   25  C   UNL     1      -8.888   8.083  73.130  1.00  0.00    -0.254 C  
BRANCH  25  26
HETATM   26  C   UNL     1      -9.851   7.196  73.901  1.00  0.00    -0.304 C  
BRANCH  26  27
HETATM   27  O   UNL     1      -9.680   5.845  73.470  1.00  0.00    -0.153 OA 
BRANCH  27  28
HETATM   28  C   UNL     1     -10.846   5.357  72.822  1.00  0.00    -0.263 C  
BRANCH  28  29
HETATM   29  C   UNL     1     -10.655   5.471  71.334  1.00  0.00    -0.310 A  
HETATM   30  C   UNL     1     -11.341   6.441  70.582  1.00  0.00    -0.357 A  
HETATM   31 CL   UNL     1     -12.493   7.518  71.295  1.00  0.00    -0.360 Cl 
HETATM   32  C   UNL     1     -11.120   6.577  69.205  1.00  0.00    -0.387 A  
HETATM   33  C   UNL     1     -10.230   5.732  68.550  1.00  0.00    -0.246 A  
HETATM   34  C   UNL     1      -9.582   4.731  69.266  1.00  0.00    -0.243 A  
HETATM   35  C   UNL     1      -9.800   4.593  70.643  1.00  0.00    -0.226 A  
HETATM   36 CL   UNL     1      -8.971   3.298  71.437  1.00  0.00    -0.141 Cl 
ENDBRANCH  28  29
ENDBRANCH  27  28
ENDBRANCH  26  27
ENDBRANCH  25  26
ENDBRANCH  24  25
ENDBRANCH  23  24
ENDBRANCH  22  23
ENDBRANCH  21  22
ENDBRANCH  20  21
ENDBRANCH  19  20
ENDBRANCH  18  19
ENDBRANCH  16  18
ENDBRANCH  15  16
ENDBRANCH  12  15
ENDBRANCH  10  12
ENDBRANCH   2   4
TORSDOF 16
ENDMDL
MODEL      182
REMARK 921   NORMALIZED FREE ENERGY PREDICTED BY IDOCK:   -4.87 KCAL/MOL
REMARK 922        TOTAL FREE ENERGY PREDICTED BY IDOCK:  -11.50 KCAL/MOL
REMARK 923 INTER-LIGAND FREE ENERGY PREDICTED BY IDOCK:  -10.30 KCAL/MOL
REMARK 924 INTRA-LIGAND FREE ENERGY PREDICTED BY IDOCK:   -1.21 KCAL/MOL
REMARK 927      BINDING AFFINITY PREDICTED BY RF-SCORE:    0.00 PKD
ROOT
HETATM    1  O   UNL     1     -10.707  20.125  68.855  1.00  0.00    -0.416 OA 
HETATM    2  C   UNL     1     -10.930  19.569  67.559  1.00  0.00    -0.268 C  
HETATM    3  H   UNL     1     -11.439  20.668  69.124  1.00  0.00     0.000 HD 
ENDROOT
BRANCH   2   4
HETATM    4  C   UNL     1      -9.769  18.708  67.134  1.00  0.00    -0.324 A  
HETATM    5  C   UNL     1      -8.518  19.225  66.775  1.00  0.00    -0.305 A  
HETATM    6  O   UNL     1      -8.239  20.561  66.859  1.00  0.00    -0.470 OA 
HETATM    7  C   UNL     1      -7.495  18.400  66.319  1.00  0.00    -0.294 A  
HETATM    8  C   UNL     1      -7.702  17.026  66.219  1.00  0.00    -0.346 A  
HETATM    9  H   UNL     1      -7.391  20.912  66.616  1.00  0.00     0.000 HD 
HETATM   10  C   UNL     1      -8.940  16.468  66.570  1.00  0.00    -0.312 A  
HETATM   11  C   UNL     1      -9.966  17.322  67.011  1.00  0.00    -0.289 A  
BRANCH  10  12
HETATM   12  C   UNL     1      -9.168  14.982  66.389  1.00  0.00    -0.295 C  
HETATM   13  O   UNL     1      -9.651  14.403  67.610  1.00  0.00    -0.209 OA 
HETATM   14  H   UNL     1      -9.795  13.471  67.497  1.00  0.00     0.000 HD 
BRANCH  12  15
HETATM   15  C   UNL     1     -10.188  14.729  65.258  1.00  0.00    -0.384 C  
BRANCH  15  16
HETATM   16  N   UNL     1      -9.993  13.403  64.648  1.00  0.00    -0.629 NA 
HETATM   17  H   UNL     1      -9.289  12.855  65.143  1.00  0.00     0.000 HD 
BRANCH  16  18
HETATM   18  C   UNL     1     -11.268  12.700  64.558  1.00  0.00    -0.333 C  
BRANCH  18  19
HETATM   19  C   UNL     1     -11.718  12.248  65.945  1.00  0.00    -0.451 C  
BRANCH  19  20
HETATM   20  C   UNL     1     -10.684  11.298  66.550  1.00  0.00    -0.323 C  
BRANCH  20  21
HETATM   21  C   UNL     1     -11.190  10.693  67.854  1.00  0.00    -0.376 C  
BRANCH  21  22
HETATM   22  C   UNL     1     -11.881  11.744  68.718  1.00  0.00    -0.380 C  
BRANCH  22  23
HETATM   23  C   UNL     1     -11.838  11.344  70.184  1.00  0.00    -0.355 C  
BRANCH  23  24
HETATM   24  O   UNL     1     -12.891  10.420  70.438  1.00  0.00    -0.314 OA 
BRANCH  24  25
HETATM   25  C   UNL     1     -12.970  10.117  71.829  1.00  0.00    -0.462 C  
BRANCH  25  26
HETATM   26  C   UNL     1     -13.086   8.613  72.020  1.00  0.00    -0.381 C  
BRANCH  26  27
HETATM   27  O   UNL     1     -12.203   7.963  71.106  1.00  0.00    -0.304 OA 
BRANCH  27  28
HETATM   28  C   UNL     1     -10.950   7.677  71.710  1.00  0.00    -0.239 C  
BRANCH  28  29
HETATM   29  C   UNL     1     -10.468   6.342  71.211  1.00  0.00    -0.258 A  
HETATM   30  C   UNL     1      -9.999   6.179  69.895  1.00  0.00    -0.172 A  
HETATM   31 CL   UNL     1     -10.006   7.474  68.746  1.00  0.00    -0.167 Cl 
HETATM   32  C   UNL     1      -9.503   4.946  69.452  1.00  0.00    -0.218 A  
HETATM   33  C   UNL     1      -9.489   3.848  70.305  1.00  0.00    -0.255 A  
HETATM   34  C   UNL     1      -9.998   3.974  71.593  1.00  0.00    -0.232 A  
HETATM   35  C   UNL     1     -10.494   5.205  72.039  1.00  0.00    -0.215 A  
HETATM   36 CL   UNL     1     -11.134   5.251  73.647  1.00  0.00    -0.320 Cl 
ENDBRANCH  28  29
ENDBRANCH  27  28
ENDBRANCH  26  27
ENDBRANCH  25  26
ENDBRANCH  24  25
ENDBRANCH  23  24
ENDBRANCH  22  23
ENDBRANCH  21  22
ENDBRANCH  20  21
ENDBRANCH  19  20
ENDBRANCH  18  19
ENDBRANCH  16  18
ENDBRANCH  15  16
ENDBRANCH  12  15
ENDBRANCH  10  12
ENDBRANCH   2   4
TORSDOF 16
ENDMDL
MODEL      183
REMARK 921   NORMALIZED FREE ENERGY PREDICTED BY IDOCK:   -4.87 KCAL/MOL
REMARK 922        TOTAL FREE ENERGY PREDICTED BY IDOCK:  -11.50 KCAL/MOL
REMARK 923 INTER-LIGAND FREE ENERGY PREDICTED BY IDOCK:   -9.14 KCAL/MOL
REMARK 924 INTRA-LIGAND FREE ENERGY PREDICTED BY IDOCK:   -2.36 KCAL/MOL
REMARK 927      BINDING AFFINITY PREDICTED BY RF-SCORE:    0.00 PKD
ROOT
HETATM    1  O   UNL     1     -11.658  11.098  62.877  1.00  0.00    -0.784 OA 
HETATM    2  C   UNL     1     -12.442  12.113  63.506  1.00  0.00    -0.555 C  
HETATM    3  H   UNL     1     -12.054  10.819  62.060  1.00  0.00     0.000 HD 
ENDROOT
BRANCH   2   4
HETATM    4  C   UNL     1     -11.813  12.555  64.802  1.00  0.00    -0.440 A  
HETATM    5  C   UNL     1     -12.314  13.605  65.581  1.00  0.00    -0.478 A  
HETATM    6  O   UNL     1     -13.465  14.263  65.250  1.00  0.00    -0.564 OA 
HETATM    7  C   UNL     1     -11.661  14.029  66.735  1.00  0.00    -0.406 A  
HETATM    8  C   UNL     1     -10.487  13.397  67.140  1.00  0.00    -0.249 A  
HETATM    9  H   UNL     1     -13.805  14.976  65.778  1.00  0.00     0.000 HD 
HETATM   10  C   UNL     1      -9.954  12.340  66.390  1.00  0.00    -0.243 A  
HETATM   11  C   UNL     1     -10.619  11.940  65.217  1.00  0.00    -0.320 A  
BRANCH  10  12
HETATM   12  C   UNL     1      -8.641  11.712  66.809  1.00  0.00    -0.180 C  
HETATM   13  O   UNL     1      -7.796  11.522  65.666  1.00  0.00    -0.327 OA 
HETATM   14  H   UNL     1      -6.972  11.128  65.929  1.00  0.00     0.000 HD 
BRANCH  12  15
HETATM   15  C   UNL     1      -7.923  12.608  67.841  1.00  0.00    -0.156 C  
BRANCH  15  16
HETATM   16  N   UNL     1      -6.616  12.046  68.219  1.00  0.00    -0.052 NA 
HETATM   17  H   UNL     1      -5.962  12.769  68.519  1.00  0.00     0.000 HD 
BRANCH  16  18
HETATM   18  C   UNL     1      -6.788  11.012  69.234  1.00  0.00    -0.110 C  
BRANCH  18  19
HETATM   19  C   UNL     1      -6.336   9.660  68.689  1.00  0.00    -0.047 C  
BRANCH  19  20
HETATM   20  C   UNL     1      -7.538   8.731  68.523  1.00  0.00    -0.098 C  
BRANCH  20  21
HETATM   21  C   UNL     1      -7.536   8.069  67.150  1.00  0.00    -0.092 C  
BRANCH  21  22
HETATM   22  C   UNL     1      -8.920   8.121  66.511  1.00  0.00    -0.191 C  
BRANCH  22  23
HETATM   23  C   UNL     1      -9.362   6.733  66.077  1.00  0.00     0.016 C  
BRANCH  23  24
HETATM   24  O   UNL     1     -10.543   6.384  66.790  1.00  0.00    -0.256 OA 
BRANCH  24  25
HETATM   25  C   UNL     1     -10.325   5.224  67.590  1.00  0.00    -0.146 C  
BRANCH  25  26
HETATM   26  C   UNL     1     -10.260   5.618  69.057  1.00  0.00    -0.222 C  
BRANCH  26  27
HETATM   27  O   UNL     1     -10.924   6.870  69.227  1.00  0.00    -0.244 OA 
BRANCH  27  28
HETATM   28  C   UNL     1     -10.363   7.612  70.301  1.00  0.00    -0.214 C  
BRANCH  28  29
HETATM   29  C   UNL     1     -11.445   8.454  70.921  1.00  0.00    -0.295 A  
HETATM   30  C   UNL     1     -11.553   9.827  70.640  1.00  0.00    -0.313 A  
HETATM   31 CL   UNL     1     -10.421  10.654  69.624  1.00  0.00    -0.245 Cl 
HETATM   32  C   UNL     1     -12.593  10.596  71.180  1.00  0.00    -0.526 A  
HETATM   33  C   UNL     1     -13.528  10.014  72.029  1.00  0.00    -0.448 A  
HETATM   34  C   UNL     1     -13.408   8.669  72.363  1.00  0.00    -0.383 A  
HETATM   35  C   UNL     1     -12.369   7.898  71.824  1.00  0.00    -0.320 A  
HETATM   36 CL   UNL     1     -12.287   6.244  72.326  1.00  0.00    -0.251 Cl 
ENDBRANCH  28  29
ENDBRANCH  27  28
ENDBRANCH  26  27
ENDBRANCH  25  26
ENDBRANCH  24  25
ENDBRANCH  23  24
ENDBRANCH  22  23
ENDBRANCH  21  22
ENDBRANCH  20  21
ENDBRANCH  19  20
ENDBRANCH  18  19
ENDBRANCH  16  18
ENDBRANCH  15  16
ENDBRANCH  12  15
ENDBRANCH  10  12
ENDBRANCH   2   4
TORSDOF 16
ENDMDL
MODEL      184
REMARK 921   NORMALIZED FREE ENERGY PREDICTED BY IDOCK:   -4.86 KCAL/MOL
REMARK 922        TOTAL FREE ENERGY PREDICTED BY IDOCK:  -11.48 KCAL/MOL
REMARK 923 INTER-LIGAND FREE ENERGY PREDICTED BY IDOCK:  -10.39 KCAL/MOL
REMARK 924 INTRA-LIGAND FREE ENERGY PREDICTED BY IDOCK:   -1.09 KCAL/MOL
REMARK 927      BINDING AFFINITY PREDICTED BY RF-SCORE:    0.00 PKD
ROOT
HETATM    1  O   UNL     1     -10.673  18.325  67.221  1.00  0.00    -0.404 OA 
HETATM    2  C   UNL     1     -10.252  17.776  65.971  1.00  0.00    -0.293 C  
HETATM    3  H   UNL     1     -10.494  19.257  67.261  1.00  0.00     0.000 HD 
ENDROOT
BRANCH   2   4
HETATM    4  C   UNL     1     -10.535  16.297  65.907  1.00  0.00    -0.359 A  
HETATM    5  C   UNL     1     -11.182  15.684  64.828  1.00  0.00    -0.382 A  
HETATM    6  O   UNL     1     -11.541  16.383  63.710  1.00  0.00    -1.605 OA 
HETATM    7  C   UNL     1     -11.489  14.327  64.842  1.00  0.00    -0.378 A  
HETATM    8  C   UNL     1     -11.143  13.547  65.943  1.00  0.00    -0.292 A  
HETATM    9  H   UNL     1     -11.979  15.967  62.977  1.00  0.00     0.000 HD 
HETATM   10  C   UNL     1     -10.493  14.122  67.044  1.00  0.00    -0.271 A  
HETATM   11  C   UNL     1     -10.209  15.499  67.018  1.00  0.00    -0.271 A  
BRANCH  10  12
HETATM   12  C   UNL     1     -10.187  13.273  68.260  1.00  0.00    -0.250 C  
HETATM   13  O   UNL     1      -9.819  14.109  69.367  1.00  0.00    -0.410 OA 
HETATM   14  H   UNL     1      -9.628  13.576  70.130  1.00  0.00     0.000 HD 
BRANCH  12  15
HETATM   15  C   UNL     1     -11.415  12.420  68.641  1.00  0.00    -0.303 C  
BRANCH  15  16
HETATM   16  N   UNL     1     -11.338  11.964  70.040  1.00  0.00    -0.510 NA 
HETATM   17  H   UNL     1     -11.531  12.718  70.699  1.00  0.00     0.000 HD 
BRANCH  16  18
HETATM   18  C   UNL     1     -12.221  10.821  70.245  1.00  0.00    -0.348 C  
BRANCH  18  19
HETATM   19  C   UNL     1     -12.750  10.816  71.677  1.00  0.00    -0.520 C  
BRANCH  19  20
HETATM   20  C   UNL     1     -12.806   9.386  72.212  1.00  0.00    -0.452 C  
BRANCH  20  21
HETATM   21  C   UNL     1     -14.214   8.812  72.100  1.00  0.00    -0.504 C  
BRANCH  21  22
HETATM   22  C   UNL     1     -14.183   7.369  71.605  1.00  0.00    -0.583 C  
BRANCH  22  23
HETATM   23  C   UNL     1     -12.797   6.771  71.781  1.00  0.00    -0.259 C  
BRANCH  23  24
HETATM   24  O   UNL     1     -12.064   6.948  70.574  1.00  0.00    -0.353 OA 
BRANCH  24  25
HETATM   25  C   UNL     1     -10.759   6.386  70.689  1.00  0.00    -0.257 C  
BRANCH  25  26
HETATM   26  C   UNL     1      -9.777   7.456  71.137  1.00  0.00    -0.163 C  
BRANCH  26  27
HETATM   27  O   UNL     1      -8.904   7.765  70.051  1.00  0.00    -0.140 OA 
BRANCH  27  28
HETATM   28  C   UNL     1      -9.586   8.467  69.021  1.00  0.00    -0.160 C  
BRANCH  28  29
HETATM   29  C   UNL     1      -8.625   8.720  67.892  1.00  0.00    -0.130 A  
HETATM   30  C   UNL     1      -7.723   9.798  67.928  1.00  0.00    -0.087 A  
HETATM   31 CL   UNL     1      -7.699  10.939  69.228  1.00  0.00    -0.126 Cl 
HETATM   32  C   UNL     1      -6.795   9.998  66.897  1.00  0.00    -0.087 A  
HETATM   33  C   UNL     1      -6.767   9.142  65.801  1.00  0.00    -0.072 A  
HETATM   34  C   UNL     1      -7.686   8.101  65.721  1.00  0.00    -0.092 A  
HETATM   35  C   UNL     1      -8.615   7.898  66.750  1.00  0.00    -0.131 A  
HETATM   36 CL   UNL     1      -9.737   6.597  66.541  1.00  0.00    -0.200 Cl 
ENDBRANCH  28  29
ENDBRANCH  27  28
ENDBRANCH  26  27
ENDBRANCH  25  26
ENDBRANCH  24  25
ENDBRANCH  23  24
ENDBRANCH  22  23
ENDBRANCH  21  22
ENDBRANCH  20  21
ENDBRANCH  19  20
ENDBRANCH  18  19
ENDBRANCH  16  18
ENDBRANCH  15  16
ENDBRANCH  12  15
ENDBRANCH  10  12
ENDBRANCH   2   4
TORSDOF 16
ENDMDL
MODEL      185
REMARK 921   NORMALIZED FREE ENERGY PREDICTED BY IDOCK:   -4.86 KCAL/MOL
REMARK 922        TOTAL FREE ENERGY PREDICTED BY IDOCK:  -11.48 KCAL/MOL
REMARK 923 INTER-LIGAND FREE ENERGY PREDICTED BY IDOCK:  -10.17 KCAL/MOL
REMARK 924 INTRA-LIGAND FREE ENERGY PREDICTED BY IDOCK:   -1.31 KCAL/MOL
REMARK 927      BINDING AFFINITY PREDICTED BY RF-SCORE:    0.00 PKD
ROOT
HETATM    1  O   UNL     1      -7.463   9.803  69.053  1.00  0.00    -0.074 OA 
HETATM    2  C   UNL     1      -8.001   9.381  67.800  1.00  0.00    -0.096 C  
HETATM    3  H   UNL     1      -6.851  10.520  68.938  1.00  0.00     0.000 HD 
ENDROOT
BRANCH   2   4
HETATM    4  C   UNL     1      -8.973   8.245  67.983  1.00  0.00    -0.138 A  
HETATM    5  C   UNL     1      -9.949   7.907  67.039  1.00  0.00    -0.252 A  
HETATM    6  O   UNL     1     -10.042   8.549  65.836  1.00  0.00    -0.445 OA 
HETATM    7  C   UNL     1     -10.874   6.896  67.280  1.00  0.00    -0.426 A  
HETATM    8  C   UNL     1     -10.834   6.189  68.480  1.00  0.00    -0.389 A  
HETATM    9  H   UNL     1     -10.704   8.320  65.195  1.00  0.00     0.000 HD 
HETATM   10  C   UNL     1      -9.871   6.495  69.452  1.00  0.00    -0.161 A  
HETATM   11  C   UNL     1      -8.957   7.533  69.196  1.00  0.00    -0.135 A  
BRANCH  10  12
HETATM   12  C   UNL     1      -9.886   5.763  70.778  1.00  0.00    -0.183 C  
HETATM   13  O   UNL     1      -8.815   6.227  71.612  1.00  0.00    -0.137 OA 
HETATM   14  H   UNL     1      -8.825   5.768  72.444  1.00  0.00     0.000 HD 
BRANCH  12  15
HETATM   15  C   UNL     1     -11.234   5.982  71.496  1.00  0.00    -0.264 C  
BRANCH  15  16
HETATM   16  N   UNL     1     -11.891   7.217  71.037  1.00  0.00    -0.308 NA 
HETATM   17  H   UNL     1     -12.894   7.090  70.903  1.00  0.00     0.000 HD 
BRANCH  16  18
HETATM   18  C   UNL     1     -11.599   8.313  71.956  1.00  0.00    -0.340 C  
BRANCH  18  19
HETATM   19  C   UNL     1     -11.253   9.577  71.173  1.00  0.00    -0.446 C  
BRANCH  19  20
HETATM   20  C   UNL     1     -12.531  10.272  70.705  1.00  0.00    -0.407 C  
BRANCH  20  21
HETATM   21  C   UNL     1     -13.124  11.135  71.812  1.00  0.00    -0.536 C  
BRANCH  21  22
HETATM   22  C   UNL     1     -12.808  12.611  71.591  1.00  0.00    -0.367 C  
BRANCH  22  23
HETATM   23  C   UNL     1     -13.781  13.489  72.363  1.00  0.00    -0.602 C  
BRANCH  23  24
HETATM   24  O   UNL     1     -13.517  14.852  72.048  1.00  0.00    -0.331 OA 
BRANCH  24  25
HETATM   25  C   UNL     1     -12.125  15.136  72.166  1.00  0.00    -0.393 C  
BRANCH  25  26
HETATM   26  C   UNL     1     -11.698  16.077  71.051  1.00  0.00    -0.417 C  
BRANCH  26  27
HETATM   27  O   UNL     1     -11.902  15.427  69.796  1.00  0.00    -0.304 OA 
BRANCH  27  28
HETATM   28  C   UNL     1     -10.669  15.042  69.206  1.00  0.00    -0.248 C  
BRANCH  28  29
HETATM   29  C   UNL     1     -10.822  15.067  67.710  1.00  0.00    -0.284 A  
HETATM   30  C   UNL     1     -10.487  16.208  66.959  1.00  0.00    -0.306 A  
HETATM   31 CL   UNL     1      -9.944  17.674  67.701  1.00  0.00    -0.310 Cl 
HETATM   32  C   UNL     1     -10.583  16.207  65.561  1.00  0.00    -0.394 A  
HETATM   33  C   UNL     1     -11.038  15.077  64.890  1.00  0.00    -0.425 A  
HETATM   34  C   UNL     1     -11.425  13.957  65.616  1.00  0.00    -0.321 A  
HETATM   35  C   UNL     1     -11.330  13.954  67.014  1.00  0.00    -0.326 A  
HETATM   36 CL   UNL     1     -11.866  12.524  67.828  1.00  0.00    -0.408 Cl 
ENDBRANCH  28  29
ENDBRANCH  27  28
ENDBRANCH  26  27
ENDBRANCH  25  26
ENDBRANCH  24  25
ENDBRANCH  23  24
ENDBRANCH  22  23
ENDBRANCH  21  22
ENDBRANCH  20  21
ENDBRANCH  19  20
ENDBRANCH  18  19
ENDBRANCH  16  18
ENDBRANCH  15  16
ENDBRANCH  12  15
ENDBRANCH  10  12
ENDBRANCH   2   4
TORSDOF 16
ENDMDL
MODEL      186
REMARK 921   NORMALIZED FREE ENERGY PREDICTED BY IDOCK:   -4.86 KCAL/MOL
REMARK 922        TOTAL FREE ENERGY PREDICTED BY IDOCK:  -11.47 KCAL/MOL
REMARK 923 INTER-LIGAND FREE ENERGY PREDICTED BY IDOCK:   -8.98 KCAL/MOL
REMARK 924 INTRA-LIGAND FREE ENERGY PREDICTED BY IDOCK:   -2.49 KCAL/MOL
REMARK 927      BINDING AFFINITY PREDICTED BY RF-SCORE:    0.00 PKD
ROOT
HETATM    1  O   UNL     1      -7.693  15.603  67.601  1.00  0.00    -0.133 OA 
HETATM    2  C   UNL     1      -8.909  16.251  67.225  1.00  0.00    -0.188 C  
HETATM    3  H   UNL     1      -6.963  16.211  67.586  1.00  0.00     0.000 HD 
ENDROOT
BRANCH   2   4
HETATM    4  C   UNL     1     -10.065  15.285  67.248  1.00  0.00    -0.236 A  
HETATM    5  C   UNL     1     -10.348  14.449  68.334  1.00  0.00    -0.244 A  
HETATM    6  O   UNL     1      -9.627  14.505  69.494  1.00  0.00    -0.413 OA 
HETATM    7  C   UNL     1     -11.383  13.520  68.285  1.00  0.00    -0.328 A  
HETATM    8  C   UNL     1     -12.169  13.416  67.140  1.00  0.00    -0.306 A  
HETATM    9  H   UNL     1      -9.819  13.937  70.232  1.00  0.00     0.000 HD 
HETATM   10  C   UNL     1     -11.920  14.235  66.031  1.00  0.00    -0.412 A  
HETATM   11  C   UNL     1     -10.857  15.155  66.094  1.00  0.00    -0.330 A  
BRANCH  10  12
HETATM   12  C   UNL     1     -12.740  14.059  64.770  1.00  0.00    -0.205 C  
HETATM   13  O   UNL     1     -12.183  14.840  63.704  1.00  0.00    -0.969 OA 
HETATM   14  H   UNL     1     -12.698  14.729  62.913  1.00  0.00     0.000 HD 
BRANCH  12  15
HETATM   15  C   UNL     1     -12.778  12.572  64.358  1.00  0.00    -0.358 C  
BRANCH  15  16
HETATM   16  N   UNL     1     -11.836  12.297  63.260  1.00  0.00    -0.727 NA 
HETATM   17  H   UNL     1     -11.368  13.144  62.937  1.00  0.00     0.000 HD 
BRANCH  16  18
HETATM   18  C   UNL     1     -10.883  11.268  63.662  1.00  0.00    -0.333 C  
BRANCH  18  19
HETATM   19  C   UNL     1      -9.632  11.912  64.254  1.00  0.00    -0.045 C  
BRANCH  19  20
HETATM   20  C   UNL     1      -9.383  11.378  65.665  1.00  0.00    -0.242 C  
BRANCH  20  21
HETATM   21  C   UNL     1     -10.404  10.309  66.036  1.00  0.00    -0.248 C  
BRANCH  21  22
HETATM   22  C   UNL     1     -10.048   9.644  67.362  1.00  0.00    -0.257 C  
BRANCH  22  23
HETATM   23  C   UNL     1      -9.641   8.196  67.142  1.00  0.00    -0.174 C  
BRANCH  23  24
HETATM   24  O   UNL     1     -10.805   7.432  66.843  1.00  0.00    -0.357 OA 
BRANCH  24  25
HETATM   25  C   UNL     1     -10.946   6.349  67.759  1.00  0.00    -0.332 C  
BRANCH  25  26
HETATM   26  C   UNL     1      -9.578   5.931  68.274  1.00  0.00    -0.121 C  
BRANCH  26  27
HETATM   27  O   UNL     1      -9.673   5.672  69.674  1.00  0.00    -0.152 OA 
BRANCH  27  28
HETATM   28  C   UNL     1     -10.556   6.583  70.312  1.00  0.00    -0.228 C  
BRANCH  28  29
HETATM   29  C   UNL     1     -10.068   6.827  71.714  1.00  0.00    -0.195 A  
HETATM   30  C   UNL     1     -10.304   5.897  72.742  1.00  0.00    -0.196 A  
HETATM   31 CL   UNL     1     -11.221   4.452  72.487  1.00  0.00     0.029 Cl 
HETATM   32  C   UNL     1      -9.802   6.105  74.034  1.00  0.00    -0.231 A  
HETATM   33  C   UNL     1      -9.078   7.255  74.329  1.00  0.00    -0.245 A  
HETATM   34  C   UNL     1      -8.879   8.213  73.340  1.00  0.00    -0.322 A  
HETATM   35  C   UNL     1      -9.379   8.008  72.048  1.00  0.00    -0.178 A  
HETATM   36 CL   UNL     1      -9.107   9.272  70.898  1.00  0.00    -0.304 Cl 
ENDBRANCH  28  29
ENDBRANCH  27  28
ENDBRANCH  26  27
ENDBRANCH  25  26
ENDBRANCH  24  25
ENDBRANCH  23  24
ENDBRANCH  22  23
ENDBRANCH  21  22
ENDBRANCH  20  21
ENDBRANCH  19  20
ENDBRANCH  18  19
ENDBRANCH  16  18
ENDBRANCH  15  16
ENDBRANCH  12  15
ENDBRANCH  10  12
ENDBRANCH   2   4
TORSDOF 16
ENDMDL
MODEL      187
REMARK 921   NORMALIZED FREE ENERGY PREDICTED BY IDOCK:   -4.85 KCAL/MOL
REMARK 922        TOTAL FREE ENERGY PREDICTED BY IDOCK:  -11.46 KCAL/MOL
REMARK 923 INTER-LIGAND FREE ENERGY PREDICTED BY IDOCK:  -10.38 KCAL/MOL
REMARK 924 INTRA-LIGAND FREE ENERGY PREDICTED BY IDOCK:   -1.08 KCAL/MOL
REMARK 927      BINDING AFFINITY PREDICTED BY RF-SCORE:    0.00 PKD
ROOT
HETATM    1  O   UNL     1     -14.030   6.370  72.365  1.00  0.00    -0.498 OA 
HETATM    2  C   UNL     1     -13.306   7.282  71.538  1.00  0.00    -0.369 C  
HETATM    3  H   UNL     1     -14.817   6.774  72.711  1.00  0.00     0.000 HD 
ENDROOT
BRANCH   2   4
HETATM    4  C   UNL     1     -12.058   6.640  70.990  1.00  0.00    -0.384 A  
HETATM    5  C   UNL     1     -11.085   6.037  71.795  1.00  0.00    -0.276 A  
HETATM    6  O   UNL     1     -11.239   5.922  73.148  1.00  0.00    -0.393 OA 
HETATM    7  C   UNL     1      -9.912   5.520  71.253  1.00  0.00    -0.249 A  
HETATM    8  C   UNL     1      -9.692   5.590  69.879  1.00  0.00    -0.233 A  
HETATM    9  H   UNL     1     -10.579   5.513  73.695  1.00  0.00     0.000 HD 
HETATM   10  C   UNL     1     -10.642   6.185  69.037  1.00  0.00    -0.341 A  
HETATM   11  C   UNL     1     -11.812   6.717  69.607  1.00  0.00    -0.049 A  
BRANCH  10  12
HETATM   12  C   UNL     1     -10.354   6.313  67.556  1.00  0.00    -0.200 C  
HETATM   13  O   UNL     1     -11.575   6.504  66.829  1.00  0.00    -0.731 OA 
HETATM   14  H   UNL     1     -11.394   6.585  65.900  1.00  0.00     0.000 HD 
BRANCH  12  15
HETATM   15  C   UNL     1      -9.404   7.501  67.295  1.00  0.00    -0.140 C  
BRANCH  15  16
HETATM   16  N   UNL     1      -9.972   8.434  66.308  1.00  0.00    -0.448 NA 
HETATM   17  H   UNL     1     -10.767   8.951  66.684  1.00  0.00     0.000 HD 
BRANCH  16  18
HETATM   18  C   UNL     1      -8.933   9.325  65.803  1.00  0.00    -0.192 C  
BRANCH  18  19
HETATM   19  C   UNL     1      -9.402  10.004  64.518  1.00  0.00    -0.345 C  
BRANCH  19  20
HETATM   20  C   UNL     1     -10.736  10.712  64.754  1.00  0.00    -0.055 C  
BRANCH  20  21
HETATM   21  C   UNL     1     -11.157  11.513  63.527  1.00  0.00    -0.434 C  
BRANCH  21  22
HETATM   22  C   UNL     1     -12.468  12.252  63.775  1.00  0.00    -0.619 C  
BRANCH  22  23
HETATM   23  C   UNL     1     -12.203  13.698  64.163  1.00  0.00    -0.399 C  
BRANCH  23  24
HETATM   24  O   UNL     1     -12.567  13.881  65.527  1.00  0.00    -0.489 OA 
BRANCH  24  25
HETATM   25  C   UNL     1     -11.614  14.702  66.197  1.00  0.00    -0.332 C  
BRANCH  25  26
HETATM   26  C   UNL     1     -10.320  14.740  65.401  1.00  0.00    -0.386 C  
BRANCH  26  27
HETATM   27  O   UNL     1      -9.743  16.040  65.521  1.00  0.00    -0.418 OA 
BRANCH  27  28
HETATM   28  C   UNL     1      -9.430  16.345  66.873  1.00  0.00    -0.235 C  
BRANCH  28  29
HETATM   29  C   UNL     1      -8.426  17.466  66.895  1.00  0.00    -0.264 A  
HETATM   30  C   UNL     1      -8.819  18.802  66.705  1.00  0.00    -0.314 A  
HETATM   31 CL   UNL     1     -10.458  19.244  66.369  1.00  0.00    -0.535 Cl 
HETATM   32  C   UNL     1      -7.887  19.847  66.778  1.00  0.00    -0.330 A  
HETATM   33  C   UNL     1      -6.545  19.574  67.016  1.00  0.00    -0.206 A  
HETATM   34  C   UNL     1      -6.126  18.254  67.153  1.00  0.00    -0.176 A  
HETATM   35  C   UNL     1      -7.056  17.208  67.081  1.00  0.00    -0.175 A  
HETATM   36 CL   UNL     1      -6.431  15.601  67.232  1.00  0.00    -0.165 Cl 
ENDBRANCH  28  29
ENDBRANCH  27  28
ENDBRANCH  26  27
ENDBRANCH  25  26
ENDBRANCH  24  25
ENDBRANCH  23  24
ENDBRANCH  22  23
ENDBRANCH  21  22
ENDBRANCH  20  21
ENDBRANCH  19  20
ENDBRANCH  18  19
ENDBRANCH  16  18
ENDBRANCH  15  16
ENDBRANCH  12  15
ENDBRANCH  10  12
ENDBRANCH   2   4
TORSDOF 16
ENDMDL
MODEL      188
REMARK 921   NORMALIZED FREE ENERGY PREDICTED BY IDOCK:   -4.85 KCAL/MOL
REMARK 922        TOTAL FREE ENERGY PREDICTED BY IDOCK:  -11.46 KCAL/MOL
REMARK 923 INTER-LIGAND FREE ENERGY PREDICTED BY IDOCK:   -9.60 KCAL/MOL
REMARK 924 INTRA-LIGAND FREE ENERGY PREDICTED BY IDOCK:   -1.86 KCAL/MOL
REMARK 927      BINDING AFFINITY PREDICTED BY RF-SCORE:    0.00 PKD
ROOT
HETATM    1  O   UNL     1      -8.484  13.358  68.651  1.00  0.00    -0.309 OA 
HETATM    2  C   UNL     1      -8.980  14.691  68.772  1.00  0.00    -0.173 C  
HETATM    3  H   UNL     1      -9.185  12.750  68.449  1.00  0.00     0.000 HD 
ENDROOT
BRANCH   2   4
HETATM    4  C   UNL     1      -7.867  15.655  69.092  1.00  0.00    -0.220 A  
HETATM    5  C   UNL     1      -6.772  15.325  69.898  1.00  0.00    -0.149 A  
HETATM    6  O   UNL     1      -6.598  14.065  70.399  1.00  0.00    -0.387 OA 
HETATM    7  C   UNL     1      -5.802  16.268  70.228  1.00  0.00    -0.113 A  
HETATM    8  C   UNL     1      -5.906  17.570  69.744  1.00  0.00    -0.244 A  
HETATM    9  H   UNL     1      -5.855  13.841  70.946  1.00  0.00     0.000 HD 
HETATM   10  C   UNL     1      -6.987  17.941  68.932  1.00  0.00    -0.260 A  
HETATM   11  C   UNL     1      -7.965  16.978  68.626  1.00  0.00    -0.258 A  
BRANCH  10  12
HETATM   12  C   UNL     1      -7.120  19.378  68.473  1.00  0.00    -0.315 C  
HETATM   13  O   UNL     1      -6.008  20.153  68.945  1.00  0.00    -0.261 OA 
HETATM   14  H   UNL     1      -6.092  21.055  68.656  1.00  0.00     0.000 HD 
BRANCH  12  15
HETATM   15  C   UNL     1      -7.181  19.446  66.933  1.00  0.00    -0.209 C  
BRANCH  15  16
HETATM   16  N   UNL     1      -8.172  20.436  66.479  1.00  0.00    -0.529 NA 
HETATM   17  H   UNL     1      -8.339  20.378  65.474  1.00  0.00     0.000 HD 
BRANCH  16  18
HETATM   18  C   UNL     1      -9.407  20.298  67.245  1.00  0.00    -0.407 C  
BRANCH  18  19
HETATM   19  C   UNL     1     -10.486  19.641  66.388  1.00  0.00    -0.618 C  
BRANCH  19  20
HETATM   20  C   UNL     1     -10.667  18.180  66.799  1.00  0.00    -0.216 C  
BRANCH  20  21
HETATM   21  C   UNL     1      -9.977  17.243  65.816  1.00  0.00    -0.105 C  
BRANCH  21  22
HETATM   22  C   UNL     1     -10.991  16.384  65.068  1.00  0.00    -0.265 C  
BRANCH  22  23
HETATM   23  C   UNL     1     -10.529  14.936  65.011  1.00  0.00    -0.401 C  
BRANCH  23  24
HETATM   24  O   UNL     1     -11.560  14.149  64.424  1.00  0.00    -0.389 OA 
BRANCH  24  25
HETATM   25  C   UNL     1     -12.645  13.979  65.334  1.00  0.00    -0.505 C  
BRANCH  25  26
HETATM   26  C   UNL     1     -12.137  13.360  66.626  1.00  0.00    -0.373 C  
BRANCH  26  27
HETATM   27  O   UNL     1     -11.820  11.988  66.386  1.00  0.00    -0.578 OA 
BRANCH  27  28
HETATM   28  C   UNL     1     -10.463  11.708  66.696  1.00  0.00    -0.233 C  
BRANCH  28  29
HETATM   29  C   UNL     1     -10.367  10.301  67.218  1.00  0.00    -0.284 A  
HETATM   30  C   UNL     1     -10.756   9.980  68.530  1.00  0.00    -0.231 A  
HETATM   31 CL   UNL     1     -11.303  11.181  69.651  1.00  0.00    -0.337 Cl 
HETATM   32  C   UNL     1     -10.714   8.658  68.995  1.00  0.00    -0.122 A  
HETATM   33  C   UNL     1     -10.260   7.638  68.166  1.00  0.00    -0.236 A  
HETATM   34  C   UNL     1      -9.820   7.942  66.881  1.00  0.00    -0.309 A  
HETATM   35  C   UNL     1      -9.862   9.262  66.415  1.00  0.00    -0.277 A  
HETATM   36 CL   UNL     1      -9.262   9.542  64.815  1.00  0.00    -0.286 Cl 
ENDBRANCH  28  29
ENDBRANCH  27  28
ENDBRANCH  26  27
ENDBRANCH  25  26
ENDBRANCH  24  25
ENDBRANCH  23  24
ENDBRANCH  22  23
ENDBRANCH  21  22
ENDBRANCH  20  21
ENDBRANCH  19  20
ENDBRANCH  18  19
ENDBRANCH  16  18
ENDBRANCH  15  16
ENDBRANCH  12  15
ENDBRANCH  10  12
ENDBRANCH   2   4
TORSDOF 16
ENDMDL
MODEL      189
REMARK 921   NORMALIZED FREE ENERGY PREDICTED BY IDOCK:   -4.84 KCAL/MOL
REMARK 922        TOTAL FREE ENERGY PREDICTED BY IDOCK:  -11.43 KCAL/MOL
REMARK 923 INTER-LIGAND FREE ENERGY PREDICTED BY IDOCK:   -9.78 KCAL/MOL
REMARK 924 INTRA-LIGAND FREE ENERGY PREDICTED BY IDOCK:   -1.65 KCAL/MOL
REMARK 927      BINDING AFFINITY PREDICTED BY RF-SCORE:    0.00 PKD
ROOT
HETATM    1  O   UNL     1     -13.712  15.570  70.564  1.00  0.00    -0.837 OA 
HETATM    2  C   UNL     1     -12.284  15.583  70.523  1.00  0.00    -0.404 C  
HETATM    3  H   UNL     1     -14.028  15.656  71.455  1.00  0.00     0.000 HD 
ENDROOT
BRANCH   2   4
HETATM    4  C   UNL     1     -11.783  15.446  69.108  1.00  0.00    -0.364 A  
HETATM    5  C   UNL     1     -11.004  16.419  68.471  1.00  0.00    -0.350 A  
HETATM    6  O   UNL     1     -10.578  17.543  69.122  1.00  0.00    -0.387 OA 
HETATM    7  C   UNL     1     -10.623  16.286  67.139  1.00  0.00    -0.291 A  
HETATM    8  C   UNL     1     -11.009  15.160  66.415  1.00  0.00    -0.329 A  
HETATM    9  H   UNL     1     -10.050  18.203  68.690  1.00  0.00     0.000 HD 
HETATM   10  C   UNL     1     -11.788  14.162  67.016  1.00  0.00    -0.458 A  
HETATM   11  C   UNL     1     -12.178  14.325  68.358  1.00  0.00    -0.197 A  
BRANCH  10  12
HETATM   12  C   UNL     1     -12.256  12.980  66.194  1.00  0.00    -0.360 C  
HETATM   13  O   UNL     1     -12.922  13.435  65.008  1.00  0.00    -0.720 OA 
HETATM   14  H   UNL     1     -13.216  12.694  64.491  1.00  0.00     0.000 HD 
BRANCH  12  15
HETATM   15  C   UNL     1     -11.058  12.089  65.805  1.00  0.00    -0.324 C  
BRANCH  15  16
HETATM   16  N   UNL     1     -10.353  11.589  66.997  1.00  0.00    -0.213 NA 
HETATM   17  H   UNL     1      -9.975  12.349  67.563  1.00  0.00     0.000 HD 
BRANCH  16  18
HETATM   18  C   UNL     1     -11.230  10.718  67.771  1.00  0.00    -0.316 C  
BRANCH  18  19
HETATM   19  C   UNL     1     -10.955  10.886  69.263  1.00  0.00    -0.295 C  
BRANCH  19  20
HETATM   20  C   UNL     1     -12.226  11.330  69.986  1.00  0.00    -0.389 C  
BRANCH  20  21
HETATM   21  C   UNL     1     -12.485  10.473  71.220  1.00  0.00    -0.524 C  
BRANCH  21  22
HETATM   22  C   UNL     1     -11.883   9.080  71.060  1.00  0.00    -0.339 C  
BRANCH  22  23
HETATM   23  C   UNL     1     -11.981   8.302  72.362  1.00  0.00    -0.384 C  
BRANCH  23  24
HETATM   24  O   UNL     1     -10.666   8.067  72.856  1.00  0.00    -0.355 OA 
BRANCH  24  25
HETATM   25  C   UNL     1     -10.578   6.780  73.463  1.00  0.00    -0.332 C  
BRANCH  25  26
HETATM   26  C   UNL     1     -11.190   5.737  72.543  1.00  0.00    -0.297 C  
BRANCH  26  27
HETATM   27  O   UNL     1     -10.157   5.167  71.741  1.00  0.00    -0.186 OA 
BRANCH  27  28
HETATM   28  C   UNL     1     -10.401   5.375  70.357  1.00  0.00    -0.283 C  
BRANCH  28  29
HETATM   29  C   UNL     1      -9.103   5.224  69.610  1.00  0.00    -0.149 A  
HETATM   30  C   UNL     1      -8.661   3.968  69.160  1.00  0.00    -0.087 A  
HETATM   31 CL   UNL     1      -9.535   2.510  69.487  1.00  0.00    -0.172 Cl 
HETATM   32  C   UNL     1      -7.478   3.840  68.420  1.00  0.00    -0.054 A  
HETATM   33  C   UNL     1      -6.703   4.960  68.138  1.00  0.00    -0.054 A  
HETATM   34  C   UNL     1      -7.094   6.205  68.620  1.00  0.00    -0.082 A  
HETATM   35  C   UNL     1      -8.277   6.335  69.360  1.00  0.00    -0.114 A  
HETATM   36 CL   UNL     1      -8.660   7.919  69.942  1.00  0.00    -0.138 Cl 
ENDBRANCH  28  29
ENDBRANCH  27  28
ENDBRANCH  26  27
ENDBRANCH  25  26
ENDBRANCH  24  25
ENDBRANCH  23  24
ENDBRANCH  22  23
ENDBRANCH  21  22
ENDBRANCH  20  21
ENDBRANCH  19  20
ENDBRANCH  18  19
ENDBRANCH  16  18
ENDBRANCH  15  16
ENDBRANCH  12  15
ENDBRANCH  10  12
ENDBRANCH   2   4
TORSDOF 16
ENDMDL
MODEL      190
REMARK 921   NORMALIZED FREE ENERGY PREDICTED BY IDOCK:   -4.84 KCAL/MOL
REMARK 922        TOTAL FREE ENERGY PREDICTED BY IDOCK:  -11.43 KCAL/MOL
REMARK 923 INTER-LIGAND FREE ENERGY PREDICTED BY IDOCK:   -9.56 KCAL/MOL
REMARK 924 INTRA-LIGAND FREE ENERGY PREDICTED BY IDOCK:   -1.87 KCAL/MOL
REMARK 927      BINDING AFFINITY PREDICTED BY RF-SCORE:    0.00 PKD
ROOT
HETATM    1  O   UNL     1     -11.326  14.458  70.440  1.00  0.00    -0.439 OA 
HETATM    2  C   UNL     1     -11.981  13.844  69.329  1.00  0.00    -0.357 C  
HETATM    3  H   UNL     1     -11.791  14.282  71.249  1.00  0.00     0.000 HD 
ENDROOT
BRANCH   2   4
HETATM    4  C   UNL     1     -11.243  14.123  68.045  1.00  0.00    -0.302 A  
HETATM    5  C   UNL     1      -9.848  14.194  67.960  1.00  0.00    -0.223 A  
HETATM    6  O   UNL     1      -9.045  13.940  69.036  1.00  0.00    -0.388 OA 
HETATM    7  C   UNL     1      -9.210  14.525  66.768  1.00  0.00    -0.286 A  
HETATM    8  C   UNL     1      -9.963  14.785  65.625  1.00  0.00    -0.390 A  
HETATM    9  H   UNL     1      -8.099  13.989  68.979  1.00  0.00     0.000 HD 
HETATM   10  C   UNL     1     -11.362  14.723  65.668  1.00  0.00    -0.343 A  
HETATM   11  C   UNL     1     -11.988  14.404  66.886  1.00  0.00    -0.425 A  
BRANCH  10  12
HETATM   12  C   UNL     1     -12.166  15.076  64.433  1.00  0.00    -0.337 C  
HETATM   13  O   UNL     1     -11.699  16.313  63.877  1.00  0.00    -1.441 OA 
HETATM   14  H   UNL     1     -12.203  16.534  63.102  1.00  0.00     0.000 HD 
BRANCH  12  15
HETATM   15  C   UNL     1     -12.048  13.956  63.378  1.00  0.00     0.065 C  
BRANCH  15  16
HETATM   16  N   UNL     1     -12.837  12.773  63.763  1.00  0.00    -0.710 NA 
HETATM   17  H   UNL     1     -13.775  12.794  63.364  1.00  0.00     0.000 HD 
BRANCH  16  18
HETATM   18  C   UNL     1     -12.120  11.554  63.406  1.00  0.00    -0.028 C  
BRANCH  18  19
HETATM   19  C   UNL     1     -10.621  11.832  63.318  1.00  0.00    -0.427 C  
BRANCH  19  20
HETATM   20  C   UNL     1      -9.875  11.032  64.385  1.00  0.00    -0.351 C  
BRANCH  20  21
HETATM   21  C   UNL     1     -10.608  11.078  65.721  1.00  0.00    -0.260 C  
BRANCH  21  22
HETATM   22  C   UNL     1      -9.804  10.383  66.816  1.00  0.00    -0.242 C  
BRANCH  22  23
HETATM   23  C   UNL     1     -10.731   9.705  67.812  1.00  0.00    -0.257 C  
BRANCH  23  24
HETATM   24  O   UNL     1     -10.589   8.294  67.683  1.00  0.00    -0.241 OA 
BRANCH  24  25
HETATM   25  C   UNL     1      -9.682   7.788  68.661  1.00  0.00    -0.157 C  
BRANCH  25  26
HETATM   26  C   UNL     1     -10.440   6.954  69.680  1.00  0.00    -0.218 C  
BRANCH  26  27
HETATM   27  O   UNL     1     -10.796   7.787  70.784  1.00  0.00    -0.230 OA 
BRANCH  27  28
HETATM   28  C   UNL     1      -9.831   8.807  70.996  1.00  0.00    -0.230 C  
BRANCH  28  29
HETATM   29  C   UNL     1      -8.804   8.303  71.972  1.00  0.00    -0.256 A  
HETATM   30  C   UNL     1      -9.180   7.613  73.138  1.00  0.00    -0.216 A  
HETATM   31 CL   UNL     1     -10.837   7.354  73.564  1.00  0.00    -0.376 Cl 
HETATM   32  C   UNL     1      -8.217   7.101  74.018  1.00  0.00    -0.163 A  
HETATM   33  C   UNL     1      -6.863   7.290  73.763  1.00  0.00    -0.082 A  
HETATM   34  C   UNL     1      -6.470   8.016  72.644  1.00  0.00    -0.076 A  
HETATM   35  C   UNL     1      -7.431   8.529  71.762  1.00  0.00    -0.099 A  
HETATM   36 CL   UNL     1      -6.843   9.445  70.417  1.00  0.00    -0.076 Cl 
ENDBRANCH  28  29
ENDBRANCH  27  28
ENDBRANCH  26  27
ENDBRANCH  25  26
ENDBRANCH  24  25
ENDBRANCH  23  24
ENDBRANCH  22  23
ENDBRANCH  21  22
ENDBRANCH  20  21
ENDBRANCH  19  20
ENDBRANCH  18  19
ENDBRANCH  16  18
ENDBRANCH  15  16
ENDBRANCH  12  15
ENDBRANCH  10  12
ENDBRANCH   2   4
TORSDOF 16
ENDMDL
MODEL      191
REMARK 921   NORMALIZED FREE ENERGY PREDICTED BY IDOCK:   -4.83 KCAL/MOL
REMARK 922        TOTAL FREE ENERGY PREDICTED BY IDOCK:  -11.41 KCAL/MOL
REMARK 923 INTER-LIGAND FREE ENERGY PREDICTED BY IDOCK:   -8.59 KCAL/MOL
REMARK 924 INTRA-LIGAND FREE ENERGY PREDICTED BY IDOCK:   -2.82 KCAL/MOL
REMARK 927      BINDING AFFINITY PREDICTED BY RF-SCORE:    0.00 PKD
ROOT
HETATM    1  O   UNL     1     -12.491  11.242  62.936  1.00  0.00    -0.906 OA 
HETATM    2  C   UNL     1     -12.259  12.598  63.321  1.00  0.00    -0.417 C  
HETATM    3  H   UNL     1     -12.796  11.190  62.038  1.00  0.00     0.000 HD 
ENDROOT
BRANCH   2   4
HETATM    4  C   UNL     1     -11.775  12.680  64.745  1.00  0.00    -0.402 A  
HETATM    5  C   UNL     1     -12.355  13.514  65.708  1.00  0.00    -0.468 A  
HETATM    6  O   UNL     1     -13.463  14.267  65.437  1.00  0.00    -0.599 OA 
HETATM    7  C   UNL     1     -11.830  13.613  66.994  1.00  0.00    -0.448 A  
HETATM    8  C   UNL     1     -10.709  12.865  67.346  1.00  0.00    -0.252 A  
HETATM    9  H   UNL     1     -13.856  14.833  66.091  1.00  0.00     0.000 HD 
HETATM   10  C   UNL     1     -10.099  12.016  66.412  1.00  0.00    -0.242 A  
HETATM   11  C   UNL     1     -10.634  11.945  65.113  1.00  0.00    -0.333 A  
BRANCH  10  12
HETATM   12  C   UNL     1      -8.841  11.264  66.793  1.00  0.00    -0.170 C  
HETATM   13  O   UNL     1      -7.890  11.317  65.721  1.00  0.00    -0.368 OA 
HETATM   14  H   UNL     1      -7.100  10.845  65.960  1.00  0.00     0.000 HD 
BRANCH  12  15
HETATM   15  C   UNL     1      -8.219  11.871  68.068  1.00  0.00    -0.157 C  
BRANCH  15  16
HETATM   16  N   UNL     1      -7.036  11.109  68.502  1.00  0.00    -0.068 NA 
HETATM   17  H   UNL     1      -6.172  11.635  68.368  1.00  0.00     0.000 HD 
BRANCH  16  18
HETATM   18  C   UNL     1      -7.200  10.671  69.884  1.00  0.00    -0.102 C  
BRANCH  18  19
HETATM   19  C   UNL     1      -7.361   9.154  69.939  1.00  0.00    -0.064 C  
BRANCH  19  20
HETATM   20  C   UNL     1      -7.878   8.730  71.314  1.00  0.00    -0.167 C  
BRANCH  20  21
HETATM   21  C   UNL     1      -7.480   7.293  71.631  1.00  0.00    -0.085 C  
BRANCH  21  22
HETATM   22  C   UNL     1      -8.297   6.738  72.793  1.00  0.00    -0.115 C  
BRANCH  22  23
HETATM   23  C   UNL     1      -8.100   5.236  72.919  1.00  0.00    -0.109 C  
BRANCH  23  24
HETATM   24  O   UNL     1      -9.166   4.576  72.245  1.00  0.00    -0.123 OA 
BRANCH  24  25
HETATM   25  C   UNL     1      -8.664   3.744  71.202  1.00  0.00    -0.081 C  
BRANCH  25  26
HETATM   26  C   UNL     1      -9.470   3.971  69.933  1.00  0.00    -0.194 C  
BRANCH  26  27
HETATM   27  O   UNL     1      -9.512   5.371  69.658  1.00  0.00    -0.132 OA 
BRANCH  27  28
HETATM   28  C   UNL     1     -10.825   5.793  69.318  1.00  0.00    -0.303 C  
BRANCH  28  29
HETATM   29  C   UNL     1     -10.995   7.227  69.741  1.00  0.00    -0.235 A  
HETATM   30  C   UNL     1     -11.424   7.560  71.038  1.00  0.00    -0.278 A  
HETATM   31 CL   UNL     1     -11.846   6.358  72.209  1.00  0.00    -0.338 Cl 
HETATM   32  C   UNL     1     -11.531   8.898  71.442  1.00  0.00    -0.381 A  
HETATM   33  C   UNL     1     -11.237   9.925  70.552  1.00  0.00    -0.399 A  
HETATM   34  C   UNL     1     -10.863   9.618  69.248  1.00  0.00    -0.227 A  
HETATM   35  C   UNL     1     -10.755   8.281  68.842  1.00  0.00    -0.062 A  
HETATM   36 CL   UNL     1     -10.314   8.003  67.191  1.00  0.00    -0.368 Cl 
ENDBRANCH  28  29
ENDBRANCH  27  28
ENDBRANCH  26  27
ENDBRANCH  25  26
ENDBRANCH  24  25
ENDBRANCH  23  24
ENDBRANCH  22  23
ENDBRANCH  21  22
ENDBRANCH  20  21
ENDBRANCH  19  20
ENDBRANCH  18  19
ENDBRANCH  16  18
ENDBRANCH  15  16
ENDBRANCH  12  15
ENDBRANCH  10  12
ENDBRANCH   2   4
TORSDOF 16
ENDMDL
MODEL      192
REMARK 921   NORMALIZED FREE ENERGY PREDICTED BY IDOCK:   -4.82 KCAL/MOL
REMARK 922        TOTAL FREE ENERGY PREDICTED BY IDOCK:  -11.41 KCAL/MOL
REMARK 923 INTER-LIGAND FREE ENERGY PREDICTED BY IDOCK:   -9.16 KCAL/MOL
REMARK 924 INTRA-LIGAND FREE ENERGY PREDICTED BY IDOCK:   -2.25 KCAL/MOL
REMARK 927      BINDING AFFINITY PREDICTED BY RF-SCORE:    0.00 PKD
ROOT
HETATM    1  O   UNL     1     -10.404  13.579  63.846  1.00  0.00    -0.627 OA 
HETATM    2  C   UNL     1     -11.239  12.580  64.433  1.00  0.00    -0.339 C  
HETATM    3  H   UNL     1     -10.892  14.377  63.682  1.00  0.00     0.000 HD 
ENDROOT
BRANCH   2   4
HETATM    4  C   UNL     1     -10.465  11.313  64.693  1.00  0.00    -0.387 A  
HETATM    5  C   UNL     1      -9.648  10.701  63.735  1.00  0.00    -0.306 A  
HETATM    6  O   UNL     1      -9.436  11.259  62.505  1.00  0.00    -0.525 OA 
HETATM    7  C   UNL     1      -9.007   9.493  63.993  1.00  0.00    -0.228 A  
HETATM    8  C   UNL     1      -9.167   8.872  65.229  1.00  0.00    -0.158 A  
HETATM    9  H   UNL     1      -8.881  10.844  61.856  1.00  0.00     0.000 HD 
HETATM   10  C   UNL     1      -9.975   9.452  66.217  1.00  0.00    -0.353 A  
HETATM   11  C   UNL     1     -10.628  10.664  65.929  1.00  0.00    -0.178 A  
BRANCH  10  12
HETATM   12  C   UNL     1     -10.192   8.728  67.529  1.00  0.00    -0.246 C  
HETATM   13  O   UNL     1      -9.613   7.416  67.472  1.00  0.00    -0.134 OA 
HETATM   14  H   UNL     1      -9.748   6.962  68.295  1.00  0.00     0.000 HD 
BRANCH  12  15
HETATM   15  C   UNL     1      -9.560   9.522  68.691  1.00  0.00    -0.146 C  
BRANCH  15  16
HETATM   16  N   UNL     1      -8.089   9.460  68.645  1.00  0.00    -0.103 NA 
HETATM   17  H   UNL     1      -7.734   9.517  67.690  1.00  0.00     0.000 HD 
BRANCH  16  18
HETATM   18  C   UNL     1      -7.515  10.491  69.503  1.00  0.00    -0.146 C  
BRANCH  18  19
HETATM   19  C   UNL     1      -7.371  11.799  68.728  1.00  0.00    -0.114 C  
BRANCH  19  20
HETATM   20  C   UNL     1      -6.294  12.674  69.368  1.00  0.00    -0.112 C  
BRANCH  20  21
HETATM   21  C   UNL     1      -6.364  14.104  68.845  1.00  0.00    -0.091 C  
BRANCH  21  22
HETATM   22  C   UNL     1      -7.384  14.228  67.717  1.00  0.00    -0.185 C  
BRANCH  22  23
HETATM   23  C   UNL     1      -7.947  15.640  67.657  1.00  0.00    -0.153 C  
BRANCH  23  24
HETATM   24  O   UNL     1      -8.434  15.994  68.947  1.00  0.00    -0.204 OA 
BRANCH  24  25
HETATM   25  C   UNL     1      -9.174  17.211  68.889  1.00  0.00    -0.200 C  
BRANCH  25  26
HETATM   26  C   UNL     1     -10.659  16.904  68.792  1.00  0.00    -0.355 C  
BRANCH  26  27
HETATM   27  O   UNL     1     -11.025  16.047  69.874  1.00  0.00    -0.299 OA 
BRANCH  27  28
HETATM   28  C   UNL     1     -12.389  15.661  69.792  1.00  0.00    -0.190 C  
BRANCH  28  29
HETATM   29  C   UNL     1     -12.526  14.258  70.316  1.00  0.00    -0.422 A  
HETATM   30  C   UNL     1     -11.936  13.168  69.652  1.00  0.00    -0.306 A  
HETATM   31 CL   UNL     1     -11.075  13.351  68.162  1.00  0.00    -0.270 Cl 
HETATM   32  C   UNL     1     -12.023  11.870  70.173  1.00  0.00    -0.413 A  
HETATM   33  C   UNL     1     -12.721  11.633  71.353  1.00  0.00    -0.445 A  
HETATM   34  C   UNL     1     -13.358  12.689  71.997  1.00  0.00    -0.555 A  
HETATM   35  C   UNL     1     -13.272  13.987  71.478  1.00  0.00    -0.359 A  
HETATM   36 CL   UNL     1     -14.125  15.226  72.335  1.00  0.00    -0.613 Cl 
ENDBRANCH  28  29
ENDBRANCH  27  28
ENDBRANCH  26  27
ENDBRANCH  25  26
ENDBRANCH  24  25
ENDBRANCH  23  24
ENDBRANCH  22  23
ENDBRANCH  21  22
ENDBRANCH  20  21
ENDBRANCH  19  20
ENDBRANCH  18  19
ENDBRANCH  16  18
ENDBRANCH  15  16
ENDBRANCH  12  15
ENDBRANCH  10  12
ENDBRANCH   2   4
TORSDOF 16
ENDMDL
MODEL      193
REMARK 921   NORMALIZED FREE ENERGY PREDICTED BY IDOCK:   -4.82 KCAL/MOL
REMARK 922        TOTAL FREE ENERGY PREDICTED BY IDOCK:  -11.41 KCAL/MOL
REMARK 923 INTER-LIGAND FREE ENERGY PREDICTED BY IDOCK:   -9.66 KCAL/MOL
REMARK 924 INTRA-LIGAND FREE ENERGY PREDICTED BY IDOCK:   -1.75 KCAL/MOL
REMARK 927      BINDING AFFINITY PREDICTED BY RF-SCORE:    0.00 PKD
ROOT
HETATM    1  O   UNL     1     -10.709   2.395  74.037  1.00  0.00    -0.145 OA 
HETATM    2  C   UNL     1     -10.647   3.813  74.192  1.00  0.00    -0.211 C  
HETATM    3  H   UNL     1     -10.665   1.957  74.879  1.00  0.00     0.000 HD 
ENDROOT
BRANCH   2   4
HETATM    4  C   UNL     1     -10.717   4.507  72.856  1.00  0.00    -0.281 A  
HETATM    5  C   UNL     1      -9.987   4.094  71.736  1.00  0.00    -0.176 A  
HETATM    6  O   UNL     1      -9.205   2.973  71.758  1.00  0.00    -0.097 OA 
HETATM    7  C   UNL     1     -10.026   4.806  70.541  1.00  0.00    -0.306 A  
HETATM    8  C   UNL     1     -10.811   5.952  70.441  1.00  0.00    -0.378 A  
HETATM    9  H   UNL     1      -8.709   2.692  70.998  1.00  0.00     0.000 HD 
HETATM   10  C   UNL     1     -11.559   6.399  71.539  1.00  0.00    -0.364 A  
HETATM   11  C   UNL     1     -11.491   5.675  72.742  1.00  0.00    -0.328 A  
BRANCH  10  12
HETATM   12  C   UNL     1     -12.351   7.685  71.431  1.00  0.00    -0.333 C  
HETATM   13  O   UNL     1     -12.665   8.184  72.739  1.00  0.00    -0.599 OA 
HETATM   14  H   UNL     1     -13.162   8.990  72.672  1.00  0.00     0.000 HD 
BRANCH  12  15
HETATM   15  C   UNL     1     -11.548   8.747  70.651  1.00  0.00    -0.205 C  
BRANCH  15  16
HETATM   16  N   UNL     1     -11.639  10.067  71.296  1.00  0.00    -0.370 NA 
HETATM   17  H   UNL     1     -10.725  10.415  71.585  1.00  0.00     0.000 HD 
BRANCH  16  18
HETATM   18  C   UNL     1     -12.326  11.009  70.418  1.00  0.00    -0.356 C  
BRANCH  18  19
HETATM   19  C   UNL     1     -11.313  11.766  69.564  1.00  0.00    -0.317 C  
BRANCH  19  20
HETATM   20  C   UNL     1     -11.793  11.835  68.114  1.00  0.00    -0.324 C  
BRANCH  20  21
HETATM   21  C   UNL     1     -11.272  13.088  67.421  1.00  0.00    -0.325 C  
BRANCH  21  22
HETATM   22  C   UNL     1     -12.396  13.831  66.706  1.00  0.00    -0.365 C  
BRANCH  22  23
HETATM   23  C   UNL     1     -12.221  13.746  65.199  1.00  0.00    -0.431 C  
BRANCH  23  24
HETATM   24  O   UNL     1     -12.999  12.660  64.707  1.00  0.00    -0.816 OA 
BRANCH  24  25
HETATM   25  C   UNL     1     -12.407  12.106  63.534  1.00  0.00    -0.574 C  
BRANCH  25  26
HETATM   26  C   UNL     1     -10.913  11.927  63.750  1.00  0.00    -0.425 C  
BRANCH  26  27
HETATM   27  O   UNL     1     -10.698  10.747  64.525  1.00  0.00    -0.297 OA 
BRANCH  27  28
HETATM   28  C   UNL     1      -9.415  10.756  65.134  1.00  0.00    -0.226 C  
BRANCH  28  29
HETATM   29  C   UNL     1      -8.868   9.354  65.126  1.00  0.00    -0.233 A  
HETATM   30  C   UNL     1      -7.923   8.944  64.170  1.00  0.00    -0.148 A  
HETATM   31 CL   UNL     1      -7.377   9.990  62.904  1.00  0.00    -0.127 Cl 
HETATM   32  C   UNL     1      -7.379   7.652  64.199  1.00  0.00    -0.094 A  
HETATM   33  C   UNL     1      -7.786   6.741  65.167  1.00  0.00    -0.105 A  
HETATM   34  C   UNL     1      -8.759   7.110  66.090  1.00  0.00    -0.164 A  
HETATM   35  C   UNL     1      -9.304   8.400  66.064  1.00  0.00    -0.177 A  
HETATM   36 CL   UNL     1     -10.531   8.750  67.233  1.00  0.00    -0.358 Cl 
ENDBRANCH  28  29
ENDBRANCH  27  28
ENDBRANCH  26  27
ENDBRANCH  25  26
ENDBRANCH  24  25
ENDBRANCH  23  24
ENDBRANCH  22  23
ENDBRANCH  21  22
ENDBRANCH  20  21
ENDBRANCH  19  20
ENDBRANCH  18  19
ENDBRANCH  16  18
ENDBRANCH  15  16
ENDBRANCH  12  15
ENDBRANCH  10  12
ENDBRANCH   2   4
TORSDOF 16
ENDMDL
MODEL      194
REMARK 921   NORMALIZED FREE ENERGY PREDICTED BY IDOCK:   -4.81 KCAL/MOL
REMARK 922        TOTAL FREE ENERGY PREDICTED BY IDOCK:  -11.39 KCAL/MOL
REMARK 923 INTER-LIGAND FREE ENERGY PREDICTED BY IDOCK:  -10.64 KCAL/MOL
REMARK 924 INTRA-LIGAND FREE ENERGY PREDICTED BY IDOCK:   -0.75 KCAL/MOL
REMARK 927      BINDING AFFINITY PREDICTED BY RF-SCORE:    0.00 PKD
ROOT
HETATM    1  O   UNL     1     -12.935   6.140  72.299  1.00  0.00    -0.442 OA 
HETATM    2  C   UNL     1     -11.641   6.717  72.120  1.00  0.00    -0.298 C  
HETATM    3  H   UNL     1     -12.874   5.287  72.714  1.00  0.00     0.000 HD 
ENDROOT
BRANCH   2   4
HETATM    4  C   UNL     1     -11.739   8.069  71.462  1.00  0.00    -0.321 A  
HETATM    5  C   UNL     1     -12.628   9.065  71.880  1.00  0.00    -0.382 A  
HETATM    6  O   UNL     1     -13.429   8.904  72.976  1.00  0.00    -0.897 OA 
HETATM    7  C   UNL     1     -12.737  10.274  71.198  1.00  0.00    -0.502 A  
HETATM    8  C   UNL     1     -11.944  10.514  70.079  1.00  0.00    -0.367 A  
HETATM    9  H   UNL     1     -14.033   9.580  73.260  1.00  0.00     0.000 HD 
HETATM   10  C   UNL     1     -11.039   9.543  69.628  1.00  0.00    -0.196 A  
HETATM   11  C   UNL     1     -10.958   8.322  70.320  1.00  0.00    -0.233 A  
BRANCH  10  12
HETATM   12  C   UNL     1     -10.236   9.795  68.369  1.00  0.00    -0.185 C  
HETATM   13  O   UNL     1      -8.832   9.740  68.659  1.00  0.00    -0.121 OA 
HETATM   14  H   UNL     1      -8.328   9.898  67.869  1.00  0.00     0.000 HD 
BRANCH  12  15
HETATM   15  C   UNL     1     -10.584   8.747  67.292  1.00  0.00    -0.233 C  
BRANCH  15  16
HETATM   16  N   UNL     1     -10.096   9.161  65.965  1.00  0.00    -0.361 NA 
HETATM   17  H   UNL     1     -10.635   8.735  65.210  1.00  0.00     0.000 HD 
BRANCH  16  18
HETATM   18  C   UNL     1     -10.079  10.617  65.868  1.00  0.00    -0.261 C  
BRANCH  18  19
HETATM   19  C   UNL     1     -10.468  11.054  64.459  1.00  0.00    -0.411 C  
BRANCH  19  20
HETATM   20  C   UNL     1     -11.073  12.458  64.492  1.00  0.00    -0.360 C  
BRANCH  20  21
HETATM   21  C   UNL     1     -11.171  12.980  65.920  1.00  0.00    -0.315 C  
BRANCH  21  22
HETATM   22  C   UNL     1     -11.872  14.335  65.964  1.00  0.00    -0.399 C  
BRANCH  22  23
HETATM   23  C   UNL     1     -11.870  14.984  64.590  1.00  0.00    -0.375 C  
BRANCH  23  24
HETATM   24  O   UNL     1     -11.035  16.136  64.628  1.00  0.00    -0.642 OA 
BRANCH  24  25
HETATM   25  C   UNL     1     -10.388  16.248  65.893  1.00  0.00    -0.365 C  
BRANCH  25  26
HETATM   26  C   UNL     1     -10.591  17.647  66.451  1.00  0.00    -0.208 C  
BRANCH  26  27
HETATM   27  O   UNL     1      -9.969  18.587  65.575  1.00  0.00    -0.381 OA 
BRANCH  27  28
HETATM   28  C   UNL     1      -9.657  19.797  66.250  1.00  0.00    -0.423 C  
BRANCH  28  29
HETATM   29  C   UNL     1      -8.464  19.560  67.137  1.00  0.00    -0.329 A  
HETATM   30  C   UNL     1      -7.185  19.338  66.597  1.00  0.00    -0.216 A  
HETATM   31 CL   UNL     1      -6.904  19.256  64.892  1.00  0.00     0.012 Cl 
HETATM   32  C   UNL     1      -6.069  19.170  67.429  1.00  0.00    -0.192 A  
HETATM   33  C   UNL     1      -6.215  19.194  68.811  1.00  0.00    -0.266 A  
HETATM   34  C   UNL     1      -7.480  19.358  69.366  1.00  0.00    -0.195 A  
HETATM   35  C   UNL     1      -8.597  19.527  68.537  1.00  0.00    -0.339 A  
HETATM   36 CL   UNL     1     -10.131  19.691  69.322  1.00  0.00    -0.436 Cl 
ENDBRANCH  28  29
ENDBRANCH  27  28
ENDBRANCH  26  27
ENDBRANCH  25  26
ENDBRANCH  24  25
ENDBRANCH  23  24
ENDBRANCH  22  23
ENDBRANCH  21  22
ENDBRANCH  20  21
ENDBRANCH  19  20
ENDBRANCH  18  19
ENDBRANCH  16  18
ENDBRANCH  15  16
ENDBRANCH  12  15
ENDBRANCH  10  12
ENDBRANCH   2   4
TORSDOF 16
ENDMDL
MODEL      195
REMARK 921   NORMALIZED FREE ENERGY PREDICTED BY IDOCK:   -4.81 KCAL/MOL
REMARK 922        TOTAL FREE ENERGY PREDICTED BY IDOCK:  -11.38 KCAL/MOL
REMARK 923 INTER-LIGAND FREE ENERGY PREDICTED BY IDOCK:  -10.22 KCAL/MOL
REMARK 924 INTRA-LIGAND FREE ENERGY PREDICTED BY IDOCK:   -1.16 KCAL/MOL
REMARK 927      BINDING AFFINITY PREDICTED BY RF-SCORE:    0.00 PKD
ROOT
HETATM    1  O   UNL     1     -13.215  12.394  64.408  1.00  0.00    -0.816 OA 
HETATM    2  C   UNL     1     -12.407  13.432  63.854  1.00  0.00    -0.343 C  
HETATM    3  H   UNL     1     -13.677  11.920  63.726  1.00  0.00     0.000 HD 
ENDROOT
BRANCH   2   4
HETATM    4  C   UNL     1     -11.675  14.183  64.936  1.00  0.00    -0.395 A  
HETATM    5  C   UNL     1     -11.279  15.520  64.812  1.00  0.00    -0.390 A  
HETATM    6  O   UNL     1     -11.598  16.268  63.713  1.00  0.00    -1.539 OA 
HETATM    7  C   UNL     1     -10.542  16.154  65.807  1.00  0.00    -0.347 A  
HETATM    8  C   UNL     1     -10.191  15.459  66.962  1.00  0.00    -0.262 A  
HETATM    9  H   UNL     1     -11.329  17.175  63.628  1.00  0.00     0.000 HD 
HETATM   10  C   UNL     1     -10.569  14.119  67.126  1.00  0.00    -0.278 A  
HETATM   11  C   UNL     1     -11.298  13.491  66.100  1.00  0.00    -0.325 A  
BRANCH  10  12
HETATM   12  C   UNL     1     -10.119  13.360  68.357  1.00  0.00    -0.244 C  
HETATM   13  O   UNL     1      -9.470  14.248  69.277  1.00  0.00    -0.402 OA 
HETATM   14  H   UNL     1      -9.188  13.772  70.049  1.00  0.00     0.000 HD 
BRANCH  12  15
HETATM   15  C   UNL     1     -11.327  12.692  69.046  1.00  0.00    -0.292 C  
BRANCH  15  16
HETATM   16  N   UNL     1     -11.889  13.556  70.098  1.00  0.00    -0.451 NA 
HETATM   17  H   UNL     1     -12.592  14.197  69.730  1.00  0.00     0.000 HD 
BRANCH  16  18
HETATM   18  C   UNL     1     -12.412  12.743  71.191  1.00  0.00    -0.239 C  
BRANCH  18  19
HETATM   19  C   UNL     1     -12.467  11.276  70.774  1.00  0.00    -0.471 C  
BRANCH  19  20
HETATM   20  C   UNL     1     -13.328  10.482  71.756  1.00  0.00    -0.446 C  
BRANCH  20  21
HETATM   21  C   UNL     1     -13.117   8.982  71.584  1.00  0.00    -0.420 C  
BRANCH  21  22
HETATM   22  C   UNL     1     -11.632   8.631  71.584  1.00  0.00    -0.379 C  
BRANCH  22  23
HETATM   23  C   UNL     1     -11.430   7.158  71.267  1.00  0.00    -0.282 C  
BRANCH  23  24
HETATM   24  O   UNL     1     -11.096   7.027  69.890  1.00  0.00    -0.265 OA 
BRANCH  24  25
HETATM   25  C   UNL     1     -10.338   8.150  69.446  1.00  0.00    -0.218 C  
BRANCH  25  26
HETATM   26  C   UNL     1     -10.331   8.195  67.927  1.00  0.00    -0.220 C  
BRANCH  26  27
HETATM   27  O   UNL     1      -8.980   8.138  67.470  1.00  0.00    -0.136 OA 
BRANCH  27  28
HETATM   28  C   UNL     1      -8.436   6.834  67.623  1.00  0.00    -0.122 C  
BRANCH  28  29
HETATM   29  C   UNL     1      -8.199   6.247  66.258  1.00  0.00    -0.117 A  
HETATM   30  C   UNL     1      -7.086   6.622  65.485  1.00  0.00    -0.064 A  
HETATM   31 CL   UNL     1      -5.957   7.823  66.012  1.00  0.00    -0.037 Cl 
HETATM   32  C   UNL     1      -6.842   6.034  64.236  1.00  0.00    -0.046 A  
HETATM   33  C   UNL     1      -7.717   5.080  63.727  1.00  0.00    -0.078 A  
HETATM   34  C   UNL     1      -8.852   4.735  64.452  1.00  0.00    -0.142 A  
HETATM   35  C   UNL     1      -9.099   5.321  65.700  1.00  0.00    -0.153 A  
HETATM   36 CL   UNL     1     -10.554   4.848  66.509  1.00  0.00    -0.299 Cl 
ENDBRANCH  28  29
ENDBRANCH  27  28
ENDBRANCH  26  27
ENDBRANCH  25  26
ENDBRANCH  24  25
ENDBRANCH  23  24
ENDBRANCH  22  23
ENDBRANCH  21  22
ENDBRANCH  20  21
ENDBRANCH  19  20
ENDBRANCH  18  19
ENDBRANCH  16  18
ENDBRANCH  15  16
ENDBRANCH  12  15
ENDBRANCH  10  12
ENDBRANCH   2   4
TORSDOF 16
ENDMDL
MODEL      196
REMARK 921   NORMALIZED FREE ENERGY PREDICTED BY IDOCK:   -4.80 KCAL/MOL
REMARK 922        TOTAL FREE ENERGY PREDICTED BY IDOCK:  -11.37 KCAL/MOL
REMARK 923 INTER-LIGAND FREE ENERGY PREDICTED BY IDOCK:   -9.37 KCAL/MOL
REMARK 924 INTRA-LIGAND FREE ENERGY PREDICTED BY IDOCK:   -1.99 KCAL/MOL
REMARK 927      BINDING AFFINITY PREDICTED BY RF-SCORE:    0.00 PKD
ROOT
HETATM    1  O   UNL     1     -12.111  10.705  68.191  1.00  0.00    -0.797 OA 
HETATM    2  C   UNL     1     -10.939  10.300  67.483  1.00  0.00    -0.280 C  
HETATM    3  H   UNL     1     -12.134  10.322  69.060  1.00  0.00     0.000 HD 
ENDROOT
BRANCH   2   4
HETATM    4  C   UNL     1     -10.902  10.909  66.105  1.00  0.00    -0.166 A  
HETATM    5  C   UNL     1     -10.173  10.364  65.043  1.00  0.00    -0.264 A  
HETATM    6  O   UNL     1      -9.492   9.185  65.164  1.00  0.00    -0.435 OA 
HETATM    7  C   UNL     1     -10.108  10.999  63.806  1.00  0.00    -0.420 A  
HETATM    8  C   UNL     1     -10.786  12.199  63.604  1.00  0.00    -0.523 A  
HETATM    9  H   UNL     1      -8.997   8.815  64.443  1.00  0.00     0.000 HD 
HETATM   10  C   UNL     1     -11.530  12.777  64.642  1.00  0.00    -0.367 A  
HETATM   11  C   UNL     1     -11.567  12.129  65.890  1.00  0.00    -0.425 A  
BRANCH  10  12
HETATM   12  C   UNL     1     -12.203  14.116  64.425  1.00  0.00    -0.439 C  
HETATM   13  O   UNL     1     -13.275  14.289  65.362  1.00  0.00    -0.688 OA 
HETATM   14  H   UNL     1     -13.697  15.129  65.226  1.00  0.00     0.000 HD 
BRANCH  12  15
HETATM   15  C   UNL     1     -11.183  15.262  64.587  1.00  0.00    -0.356 C  
BRANCH  15  16
HETATM   16  N   UNL     1     -10.822  15.462  66.001  1.00  0.00    -0.321 NA 
HETATM   17  H   UNL     1     -10.518  14.595  66.444  1.00  0.00     0.000 HD 
BRANCH  16  18
HETATM   18  C   UNL     1      -9.819  16.515  66.120  1.00  0.00    -0.332 C  
BRANCH  18  19
HETATM   19  C   UNL     1      -8.466  15.913  66.488  1.00  0.00    -0.348 C  
BRANCH  19  20
HETATM   20  C   UNL     1      -8.635  14.880  67.601  1.00  0.00    -0.181 C  
BRANCH  20  21
HETATM   21  C   UNL     1      -7.492  13.871  67.592  1.00  0.00    -0.187 C  
BRANCH  21  22
HETATM   22  C   UNL     1      -7.978  12.493  67.152  1.00  0.00    -0.140 C  
BRANCH  22  23
HETATM   23  C   UNL     1      -7.322  11.403  67.985  1.00  0.00    -0.090 C  
BRANCH  23  24
HETATM   24  O   UNL     1      -7.559  10.145  67.361  1.00  0.00    -0.094 OA 
BRANCH  24  25
HETATM   25  C   UNL     1      -7.522   9.092  68.322  1.00  0.00    -0.083 C  
BRANCH  25  26
HETATM   26  C   UNL     1      -7.585   9.675  69.724  1.00  0.00    -0.123 C  
BRANCH  26  27
HETATM   27  O   UNL     1      -8.030   8.661  70.625  1.00  0.00    -0.088 OA 
BRANCH  27  28
HETATM   28  C   UNL     1      -9.257   9.021  71.244  1.00  0.00    -0.244 C  
BRANCH  28  29
HETATM   29  C   UNL     1      -9.880   7.785  71.835  1.00  0.00    -0.217 A  
HETATM   30  C   UNL     1      -9.594   7.381  73.151  1.00  0.00    -0.210 A  
HETATM   31 CL   UNL     1      -8.466   8.227  74.153  1.00  0.00    -0.270 Cl 
HETATM   32  C   UNL     1     -10.217   6.258  73.713  1.00  0.00    -0.285 A  
HETATM   33  C   UNL     1     -11.116   5.506  72.964  1.00  0.00    -0.350 A  
HETATM   34  C   UNL     1     -11.372   5.858  71.643  1.00  0.00    -0.272 A  
HETATM   35  C   UNL     1     -10.751   6.980  71.079  1.00  0.00    -0.233 A  
HETATM   36 CL   UNL     1     -11.109   7.316  69.419  1.00  0.00    -0.147 Cl 
ENDBRANCH  28  29
ENDBRANCH  27  28
ENDBRANCH  26  27
ENDBRANCH  25  26
ENDBRANCH  24  25
ENDBRANCH  23  24
ENDBRANCH  22  23
ENDBRANCH  21  22
ENDBRANCH  20  21
ENDBRANCH  19  20
ENDBRANCH  18  19
ENDBRANCH  16  18
ENDBRANCH  15  16
ENDBRANCH  12  15
ENDBRANCH  10  12
ENDBRANCH   2   4
TORSDOF 16
ENDMDL
MODEL      197
REMARK 921   NORMALIZED FREE ENERGY PREDICTED BY IDOCK:   -4.80 KCAL/MOL
REMARK 922        TOTAL FREE ENERGY PREDICTED BY IDOCK:  -11.36 KCAL/MOL
REMARK 923 INTER-LIGAND FREE ENERGY PREDICTED BY IDOCK:  -10.35 KCAL/MOL
REMARK 924 INTRA-LIGAND FREE ENERGY PREDICTED BY IDOCK:   -1.00 KCAL/MOL
REMARK 927      BINDING AFFINITY PREDICTED BY RF-SCORE:    0.00 PKD
ROOT
HETATM    1  O   UNL     1      -8.466   2.807  69.804  1.00  0.00    -0.050 OA 
HETATM    2  C   UNL     1      -9.456   3.820  69.985  1.00  0.00    -0.193 C  
HETATM    3  H   UNL     1      -8.226   2.724  68.889  1.00  0.00     0.000 HD 
ENDROOT
BRANCH   2   4
HETATM    4  C   UNL     1      -9.837   3.952  71.437  1.00  0.00    -0.243 A  
HETATM    5  C   UNL     1     -10.198   2.864  72.239  1.00  0.00    -0.110 A  
HETATM    6  O   UNL     1     -10.159   1.579  71.773  1.00  0.00    -0.146 OA 
HETATM    7  C   UNL     1     -10.612   3.039  73.556  1.00  0.00    -0.270 A  
HETATM    8  C   UNL     1     -10.665   4.318  74.104  1.00  0.00    -0.303 A  
HETATM    9  H   UNL     1     -10.404   0.841  72.317  1.00  0.00     0.000 HD 
HETATM   10  C   UNL     1     -10.310   5.435  73.334  1.00  0.00    -0.244 A  
HETATM   11  C   UNL     1      -9.912   5.238  72.000  1.00  0.00    -0.238 A  
BRANCH  10  12
HETATM   12  C   UNL     1     -10.440   6.823  73.925  1.00  0.00    -0.327 C  
HETATM   13  O   UNL     1      -9.195   7.231  74.509  1.00  0.00    -0.401 OA 
HETATM   14  H   UNL     1      -9.276   8.102  74.880  1.00  0.00     0.000 HD 
BRANCH  12  15
HETATM   15  C   UNL     1     -10.856   7.833  72.835  1.00  0.00    -0.392 C  
BRANCH  15  16
HETATM   16  N   UNL     1     -12.321   7.941  72.737  1.00  0.00    -0.591 NA 
HETATM   17  H   UNL     1     -12.730   8.368  73.568  1.00  0.00     0.000 HD 
BRANCH  16  18
HETATM   18  C   UNL     1     -12.692   8.656  71.520  1.00  0.00    -0.316 C  
BRANCH  18  19
HETATM   19  C   UNL     1     -13.361   9.982  71.871  1.00  0.00    -0.516 C  
BRANCH  19  20
HETATM   20  C   UNL     1     -12.597  11.142  71.233  1.00  0.00    -0.503 C  
BRANCH  20  21
HETATM   21  C   UNL     1     -13.194  12.484  71.643  1.00  0.00    -0.381 C  
BRANCH  21  22
HETATM   22  C   UNL     1     -12.504  13.637  70.920  1.00  0.00    -0.448 C  
BRANCH  22  23
HETATM   23  C   UNL     1     -12.875  14.966  71.558  1.00  0.00    -0.335 C  
BRANCH  23  24
HETATM   24  O   UNL     1     -12.188  16.010  70.875  1.00  0.00    -0.392 OA 
BRANCH  24  25
HETATM   25  C   UNL     1     -11.965  15.658  69.511  1.00  0.00    -0.345 C  
BRANCH  25  26
HETATM   26  C   UNL     1     -10.824  16.488  68.948  1.00  0.00    -0.336 C  
BRANCH  26  27
HETATM   27  O   UNL     1     -10.809  16.348  67.528  1.00  0.00    -0.315 OA 
BRANCH  27  28
HETATM   28  C   UNL     1      -9.991  15.260  67.122  1.00  0.00    -0.233 C  
BRANCH  28  29
HETATM   29  C   UNL     1     -10.819  14.316  66.293  1.00  0.00    -0.310 A  
HETATM   30  C   UNL     1     -11.509  14.759  65.152  1.00  0.00    -0.371 A  
HETATM   31 CL   UNL     1     -11.511  16.419  64.660  1.00  0.00    -0.254 Cl 
HETATM   32  C   UNL     1     -12.237  13.865  64.354  1.00  0.00    -0.449 A  
HETATM   33  C   UNL     1     -12.309  12.519  64.696  1.00  0.00    -0.547 A  
HETATM   34  C   UNL     1     -11.678  12.070  65.851  1.00  0.00    -0.312 A  
HETATM   35  C   UNL     1     -10.949  12.961  66.650  1.00  0.00    -0.276 A  
HETATM   36 CL   UNL     1     -10.228  12.311  68.083  1.00  0.00    -0.206 Cl 
ENDBRANCH  28  29
ENDBRANCH  27  28
ENDBRANCH  26  27
ENDBRANCH  25  26
ENDBRANCH  24  25
ENDBRANCH  23  24
ENDBRANCH  22  23
ENDBRANCH  21  22
ENDBRANCH  20  21
ENDBRANCH  19  20
ENDBRANCH  18  19
ENDBRANCH  16  18
ENDBRANCH  15  16
ENDBRANCH  12  15
ENDBRANCH  10  12
ENDBRANCH   2   4
TORSDOF 16
ENDMDL
MODEL      198
REMARK 921   NORMALIZED FREE ENERGY PREDICTED BY IDOCK:   -4.79 KCAL/MOL
REMARK 922        TOTAL FREE ENERGY PREDICTED BY IDOCK:  -11.35 KCAL/MOL
REMARK 923 INTER-LIGAND FREE ENERGY PREDICTED BY IDOCK:   -9.20 KCAL/MOL
REMARK 924 INTRA-LIGAND FREE ENERGY PREDICTED BY IDOCK:   -2.15 KCAL/MOL
REMARK 927      BINDING AFFINITY PREDICTED BY RF-SCORE:    0.00 PKD
ROOT
HETATM    1  O   UNL     1     -14.401   8.301  71.079  1.00  0.00    -0.656 OA 
HETATM    2  C   UNL     1     -13.494   9.403  71.136  1.00  0.00    -0.191 C  
HETATM    3  H   UNL     1     -15.272   8.588  70.833  1.00  0.00     0.000 HD 
ENDROOT
BRANCH   2   4
HETATM    4  C   UNL     1     -12.113   8.946  71.527  1.00  0.00    -0.395 A  
HETATM    5  C   UNL     1     -10.943   9.592  71.111  1.00  0.00    -0.368 A  
HETATM    6  O   UNL     1     -10.977  10.740  70.370  1.00  0.00    -0.452 OA 
HETATM    7  C   UNL     1      -9.684   9.095  71.436  1.00  0.00    -0.338 A  
HETATM    8  C   UNL     1      -9.571   7.935  72.199  1.00  0.00    -0.255 A  
HETATM    9  H   UNL     1     -10.183  11.179  70.088  1.00  0.00     0.000 HD 
HETATM   10  C   UNL     1     -10.718   7.259  72.637  1.00  0.00    -0.318 A  
HETATM   11  C   UNL     1     -11.980   7.768  72.282  1.00  0.00    -0.356 A  
BRANCH  10  12
HETATM   12  C   UNL     1     -10.575   5.962  73.407  1.00  0.00    -0.258 C  
HETATM   13  O   UNL     1     -11.822   5.254  73.420  1.00  0.00    -0.463 OA 
HETATM   14  H   UNL     1     -11.733   4.441  73.902  1.00  0.00     0.000 HD 
BRANCH  12  15
HETATM   15  C   UNL     1      -9.484   5.077  72.768  1.00  0.00    -0.139 C  
BRANCH  15  16
HETATM   16  N   UNL     1     -10.075   3.963  72.008  1.00  0.00    -0.173 NA 
HETATM   17  H   UNL     1     -11.066   4.112  71.820  1.00  0.00     0.000 HD 
BRANCH  16  18
HETATM   18  C   UNL     1      -9.316   3.732  70.783  1.00  0.00    -0.148 C  
BRANCH  18  19
HETATM   19  C   UNL     1      -9.296   4.999  69.931  1.00  0.00    -0.198 C  
BRANCH  19  20
HETATM   20  C   UNL     1     -10.719   5.385  69.528  1.00  0.00    -0.249 C  
BRANCH  20  21
HETATM   21  C   UNL     1     -10.732   6.118  68.192  1.00  0.00    -0.367 C  
BRANCH  21  22
HETATM   22  C   UNL     1      -9.829   5.427  67.175  1.00  0.00    -0.178 C  
BRANCH  22  23
HETATM   23  C   UNL     1      -9.056   6.452  66.361  1.00  0.00    -0.154 C  
BRANCH  23  24
HETATM   24  O   UNL     1      -8.334   7.295  67.252  1.00  0.00    -0.117 OA 
BRANCH  24  25
HETATM   25  C   UNL     1      -8.110   8.575  66.665  1.00  0.00    -0.104 C  
BRANCH  25  26
HETATM   26  C   UNL     1      -9.093   9.582  67.239  1.00  0.00    -0.130 C  
BRANCH  26  27
HETATM   27  O   UNL     1      -9.811  10.188  66.164  1.00  0.00    -0.209 OA 
BRANCH  27  28
HETATM   28  C   UNL     1      -9.340  11.502  65.903  1.00  0.00    -0.226 C  
BRANCH  28  29
HETATM   29  C   UNL     1     -10.513  12.444  65.906  1.00  0.00    -0.284 A  
HETATM   30  C   UNL     1     -11.443  12.458  64.851  1.00  0.00    -0.332 A  
HETATM   31 CL   UNL     1     -11.270  11.449  63.456  1.00  0.00    -0.425 Cl 
HETATM   32  C   UNL     1     -12.562  13.301  64.884  1.00  0.00    -0.444 A  
HETATM   33  C   UNL     1     -12.759  14.163  65.958  1.00  0.00    -0.325 A  
HETATM   34  C   UNL     1     -11.823  14.204  66.986  1.00  0.00    -0.458 A  
HETATM   35  C   UNL     1     -10.704  13.362  66.955  1.00  0.00    -0.268 A  
HETATM   36 CL   UNL     1      -9.581  13.512  68.264  1.00  0.00    -0.218 Cl 
ENDBRANCH  28  29
ENDBRANCH  27  28
ENDBRANCH  26  27
ENDBRANCH  25  26
ENDBRANCH  24  25
ENDBRANCH  23  24
ENDBRANCH  22  23
ENDBRANCH  21  22
ENDBRANCH  20  21
ENDBRANCH  19  20
ENDBRANCH  18  19
ENDBRANCH  16  18
ENDBRANCH  15  16
ENDBRANCH  12  15
ENDBRANCH  10  12
ENDBRANCH   2   4
TORSDOF 16
ENDMDL
MODEL      199
REMARK 921   NORMALIZED FREE ENERGY PREDICTED BY IDOCK:   -4.79 KCAL/MOL
REMARK 922        TOTAL FREE ENERGY PREDICTED BY IDOCK:  -11.34 KCAL/MOL
REMARK 923 INTER-LIGAND FREE ENERGY PREDICTED BY IDOCK:   -9.64 KCAL/MOL
REMARK 924 INTRA-LIGAND FREE ENERGY PREDICTED BY IDOCK:   -1.70 KCAL/MOL
REMARK 927      BINDING AFFINITY PREDICTED BY RF-SCORE:    0.00 PKD
ROOT
HETATM    1  O   UNL     1     -12.950   6.516  72.367  1.00  0.00    -0.533 OA 
HETATM    2  C   UNL     1     -11.660   6.138  71.886  1.00  0.00    -0.296 C  
HETATM    3  H   UNL     1     -13.242   5.932  73.057  1.00  0.00     0.000 HD 
ENDROOT
BRANCH   2   4
HETATM    4  C   UNL     1     -11.198   7.065  70.792  1.00  0.00    -0.323 A  
HETATM    5  C   UNL     1     -11.207   8.459  70.911  1.00  0.00    -0.262 A  
HETATM    6  O   UNL     1     -11.573   9.082  72.071  1.00  0.00    -0.361 OA 
HETATM    7  C   UNL     1     -10.839   9.281  69.849  1.00  0.00    -0.252 A  
HETATM    8  C   UNL     1     -10.443   8.717  68.639  1.00  0.00    -0.213 A  
HETATM    9  H   UNL     1     -11.579  10.028  72.152  1.00  0.00     0.000 HD 
HETATM   10  C   UNL     1     -10.418   7.325  68.479  1.00  0.00    -0.215 A  
HETATM   11  C   UNL     1     -10.811   6.513  69.558  1.00  0.00    -0.360 A  
BRANCH  10  12
HETATM   12  C   UNL     1     -10.051   6.732  67.134  1.00  0.00    -0.190 C  
HETATM   13  O   UNL     1     -11.223   6.231  66.478  1.00  0.00    -0.726 OA 
HETATM   14  H   UNL     1     -10.993   5.859  65.634  1.00  0.00     0.000 HD 
BRANCH  12  15
HETATM   15  C   UNL     1      -9.375   7.797  66.245  1.00  0.00    -0.151 C  
BRANCH  15  16
HETATM   16  N   UNL     1      -8.550   7.173  65.196  1.00  0.00    -0.344 NA 
HETATM   17  H   UNL     1      -9.047   6.423  64.716  1.00  0.00     0.000 HD 
BRANCH  16  18
HETATM   18  C   UNL     1      -8.067   8.189  64.268  1.00  0.00    -0.127 C  
BRANCH  18  19
HETATM   19  C   UNL     1      -8.773   9.517  64.527  1.00  0.00    -0.232 C  
BRANCH  19  20
HETATM   20  C   UNL     1      -8.451  10.511  63.412  1.00  0.00    -0.148 C  
BRANCH  20  21
HETATM   21  C   UNL     1      -9.714  11.198  62.905  1.00  0.00    -0.349 C  
BRANCH  21  22
HETATM   22  C   UNL     1     -10.101  12.370  63.801  1.00  0.00    -0.334 C  
BRANCH  22  23
HETATM   23  C   UNL     1     -11.437  12.107  64.479  1.00  0.00    -0.334 C  
BRANCH  23  24
HETATM   24  O   UNL     1     -11.199  11.741  65.834  1.00  0.00    -0.324 OA 
BRANCH  24  25
HETATM   25  C   UNL     1     -10.097  12.471  66.368  1.00  0.00    -0.243 C  
BRANCH  25  26
HETATM   26  C   UNL     1     -10.152  12.444  67.886  1.00  0.00    -0.208 C  
BRANCH  26  27
HETATM   27  O   UNL     1     -10.100  13.785  68.374  1.00  0.00    -0.233 OA 
BRANCH  27  28
HETATM   28  C   UNL     1     -11.203  14.549  67.907  1.00  0.00    -0.295 C  
BRANCH  28  29
HETATM   29  C   UNL     1     -10.799  15.997  67.855  1.00  0.00    -0.333 A  
HETATM   30  C   UNL     1     -10.493  16.627  66.636  1.00  0.00    -0.258 A  
HETATM   31 CL   UNL     1     -10.494  15.775  65.130  1.00  0.00    -0.425 Cl 
HETATM   32  C   UNL     1     -10.168  17.990  66.588  1.00  0.00    -0.375 A  
HETATM   33  C   UNL     1     -10.118  18.740  67.758  1.00  0.00    -0.417 A  
HETATM   34  C   UNL     1     -10.364  18.124  68.980  1.00  0.00    -0.135 A  
HETATM   35  C   UNL     1     -10.690  16.762  69.031  1.00  0.00    -0.331 A  
HETATM   36 CL   UNL     1     -10.947  16.081  70.601  1.00  0.00    -0.317 Cl 
ENDBRANCH  28  29
ENDBRANCH  27  28
ENDBRANCH  26  27
ENDBRANCH  25  26
ENDBRANCH  24  25
ENDBRANCH  23  24
ENDBRANCH  22  23
ENDBRANCH  21  22
ENDBRANCH  20  21
ENDBRANCH  19  20
ENDBRANCH  18  19
ENDBRANCH  16  18
ENDBRANCH  15  16
ENDBRANCH  12  15
ENDBRANCH  10  12
ENDBRANCH   2   4
TORSDOF 16
ENDMDL
MODEL      200
REMARK 921   NORMALIZED FREE ENERGY PREDICTED BY IDOCK:   -4.78 KCAL/MOL
REMARK 922        TOTAL FREE ENERGY PREDICTED BY IDOCK:  -11.33 KCAL/MOL
REMARK 923 INTER-LIGAND FREE ENERGY PREDICTED BY IDOCK:   -9.37 KCAL/MOL
REMARK 924 INTRA-LIGAND FREE ENERGY PREDICTED BY IDOCK:   -1.96 KCAL/MOL
REMARK 927      BINDING AFFINITY PREDICTED BY RF-SCORE:    0.00 PKD
ROOT
HETATM    1  O   UNL     1      -6.966   8.452  69.514  1.00  0.00    -0.044 OA 
HETATM    2  C   UNL     1      -7.078   9.308  70.651  1.00  0.00    -0.111 C  
HETATM    3  H   UNL     1      -6.324   8.784  68.898  1.00  0.00     0.000 HD 
ENDROOT
BRANCH   2   4
HETATM    4  C   UNL     1      -8.097   8.781  71.628  1.00  0.00    -0.153 A  
HETATM    5  C   UNL     1      -7.758   8.208  72.859  1.00  0.00    -0.140 A  
HETATM    6  O   UNL     1      -6.464   8.153  73.298  1.00  0.00    -0.085 OA 
HETATM    7  C   UNL     1      -8.726   7.667  73.699  1.00  0.00    -0.283 A  
HETATM    8  C   UNL     1     -10.068   7.697  73.324  1.00  0.00    -0.393 A  
HETATM    9  H   UNL     1      -6.234   7.765  74.133  1.00  0.00     0.000 HD 
HETATM   10  C   UNL     1     -10.450   8.264  72.100  1.00  0.00    -0.371 A  
HETATM   11  C   UNL     1      -9.453   8.788  71.257  1.00  0.00    -0.320 A  
BRANCH  10  12
HETATM   12  C   UNL     1     -11.904   8.225  71.678  1.00  0.00    -0.299 C  
HETATM   13  O   UNL     1     -12.132   9.149  70.605  1.00  0.00    -0.454 OA 
HETATM   14  H   UNL     1     -13.044   9.125  70.340  1.00  0.00     0.000 HD 
BRANCH  12  15
HETATM   15  C   UNL     1     -12.295   6.802  71.229  1.00  0.00    -0.344 C  
BRANCH  15  16
HETATM   16  N   UNL     1     -12.120   6.632  69.777  1.00  0.00    -0.545 NA 
HETATM   17  H   UNL     1     -12.041   7.527  69.294  1.00  0.00     0.000 HD 
BRANCH  16  18
HETATM   18  C   UNL     1     -10.980   5.763  69.506  1.00  0.00    -0.304 C  
BRANCH  18  19
HETATM   19  C   UNL     1     -10.038   6.429  68.506  1.00  0.00    -0.173 C  
BRANCH  19  20
HETATM   20  C   UNL     1     -10.838   7.027  67.348  1.00  0.00    -0.371 C  
BRANCH  20  21
HETATM   21  C   UNL     1     -10.574   8.522  67.213  1.00  0.00    -0.315 C  
BRANCH  21  22
HETATM   22  C   UNL     1      -9.301   8.788  66.415  1.00  0.00    -0.264 C  
BRANCH  22  23
HETATM   23  C   UNL     1      -9.560   9.807  65.318  1.00  0.00    -0.300 C  
BRANCH  23  24
HETATM   24  O   UNL     1      -8.499  10.756  65.313  1.00  0.00    -0.171 OA 
BRANCH  24  25
HETATM   25  C   UNL     1      -8.677  11.716  66.352  1.00  0.00    -0.170 C  
BRANCH  25  26
HETATM   26  C   UNL     1      -9.872  12.599  66.034  1.00  0.00    -0.254 C  
BRANCH  26  27
HETATM   27  O   UNL     1      -9.840  13.743  66.888  1.00  0.00    -0.250 OA 
BRANCH  27  28
HETATM   28  C   UNL     1     -11.130  14.322  67.028  1.00  0.00    -0.312 C  
BRANCH  28  29
HETATM   29  C   UNL     1     -11.428  14.487  68.493  1.00  0.00    -0.327 A  
HETATM   30  C   UNL     1     -11.276  15.729  69.134  1.00  0.00    -0.322 A  
HETATM   31 CL   UNL     1     -10.677  17.127  68.308  1.00  0.00    -0.375 Cl 
HETATM   32  C   UNL     1     -11.604  15.890  70.487  1.00  0.00    -0.402 A  
HETATM   33  C   UNL     1     -12.066  14.808  71.230  1.00  0.00    -0.399 A  
HETATM   34  C   UNL     1     -12.172  13.558  70.629  1.00  0.00    -0.434 A  
HETATM   35  C   UNL     1     -11.845  13.396  69.276  1.00  0.00    -0.334 A  
HETATM   36 CL   UNL     1     -11.980  11.795  68.630  1.00  0.00    -0.357 Cl 
ENDBRANCH  28  29
ENDBRANCH  27  28
ENDBRANCH  26  27
ENDBRANCH  25  26
ENDBRANCH  24  25
ENDBRANCH  23  24
ENDBRANCH  22  23
ENDBRANCH  21  22
ENDBRANCH  20  21
ENDBRANCH  19  20
ENDBRANCH  18  19
ENDBRANCH  16  18
ENDBRANCH  15  16
ENDBRANCH  12  15
ENDBRANCH  10  12
ENDBRANCH   2   4
TORSDOF 16
ENDMDL
MODEL      201
REMARK 921   NORMALIZED FREE ENERGY PREDICTED BY IDOCK:   -4.78 KCAL/MOL
REMARK 922        TOTAL FREE ENERGY PREDICTED BY IDOCK:  -11.33 KCAL/MOL
REMARK 923 INTER-LIGAND FREE ENERGY PREDICTED BY IDOCK:   -9.83 KCAL/MOL
REMARK 924 INTRA-LIGAND FREE ENERGY PREDICTED BY IDOCK:   -1.50 KCAL/MOL
REMARK 927      BINDING AFFINITY PREDICTED BY RF-SCORE:    0.00 PKD
ROOT
HETATM    1  O   UNL     1      -9.591   1.881  66.768  1.00  0.00    -0.362 OA 
HETATM    2  C   UNL     1      -9.153   3.054  66.082  1.00  0.00    -0.141 C  
HETATM    3  H   UNL     1      -9.274   1.095  66.339  1.00  0.00     0.000 HD 
ENDROOT
BRANCH   2   4
HETATM    4  C   UNL     1      -9.656   4.300  66.763  1.00  0.00    -0.221 A  
HETATM    5  C   UNL     1     -10.734   5.055  66.287  1.00  0.00    -0.199 A  
HETATM    6  O   UNL     1     -11.460   4.668  65.195  1.00  0.00    -1.082 OA 
HETATM    7  C   UNL     1     -11.121   6.239  66.907  1.00  0.00    -0.329 A  
HETATM    8  C   UNL     1     -10.435   6.690  68.033  1.00  0.00    -0.261 A  
HETATM    9  H   UNL     1     -12.191   5.181  64.872  1.00  0.00     0.000 HD 
HETATM   10  C   UNL     1      -9.352   5.962  68.543  1.00  0.00    -0.127 A  
HETATM   11  C   UNL     1      -8.965   4.778  67.891  1.00  0.00    -0.124 A  
BRANCH  10  12
HETATM   12  C   UNL     1      -8.576   6.504  69.726  1.00  0.00    -0.136 C  
HETATM   13  O   UNL     1      -7.596   7.453  69.282  1.00  0.00    -0.096 OA 
HETATM   14  H   UNL     1      -7.110   7.793  70.024  1.00  0.00     0.000 HD 
BRANCH  12  15
HETATM   15  C   UNL     1      -9.533   7.179  70.731  1.00  0.00    -0.164 C  
BRANCH  15  16
HETATM   16  N   UNL     1      -9.847   6.282  71.856  1.00  0.00    -0.156 NA 
HETATM   17  H   UNL     1      -9.118   6.295  72.570  1.00  0.00     0.000 HD 
BRANCH  16  18
HETATM   18  C   UNL     1     -11.157   6.609  72.409  1.00  0.00    -0.259 C  
BRANCH  18  19
HETATM   19  C   UNL     1     -12.198   6.667  71.294  1.00  0.00    -0.369 C  
BRANCH  19  20
HETATM   20  C   UNL     1     -13.173   7.817  71.544  1.00  0.00    -0.356 C  
BRANCH  20  21
HETATM   21  C   UNL     1     -12.470   9.001  72.198  1.00  0.00    -0.450 C  
BRANCH  21  22
HETATM   22  C   UNL     1     -12.931  10.321  71.589  1.00  0.00    -0.570 C  
BRANCH  22  23
HETATM   23  C   UNL     1     -11.830  10.930  70.736  1.00  0.00    -0.319 C  
BRANCH  23  24
HETATM   24  O   UNL     1     -11.445   9.986  69.742  1.00  0.00    -0.236 OA 
BRANCH  24  25
HETATM   25  C   UNL     1     -10.228  10.384  69.114  1.00  0.00    -0.222 C  
BRANCH  25  26
HETATM   26  C   UNL     1     -10.534  11.081  67.799  1.00  0.00    -0.199 C  
BRANCH  26  27
HETATM   27  O   UNL     1     -10.007  12.407  67.847  1.00  0.00    -0.193 OA 
BRANCH  27  28
HETATM   28  C   UNL     1      -9.287  12.721  66.664  1.00  0.00    -0.242 C  
BRANCH  28  29
HETATM   29  C   UNL     1     -10.246  12.741  65.506  1.00  0.00    -0.293 A  
HETATM   30  C   UNL     1     -10.205  11.753  64.506  1.00  0.00    -0.284 A  
HETATM   31 CL   UNL     1      -9.017  10.495  64.499  1.00  0.00    -0.214 Cl 
HETATM   32  C   UNL     1     -11.135  11.747  63.457  1.00  0.00    -0.503 A  
HETATM   33  C   UNL     1     -12.105  12.740  63.374  1.00  0.00    -0.619 A  
HETATM   34  C   UNL     1     -12.130  13.757  64.323  1.00  0.00    -0.481 A  
HETATM   35  C   UNL     1     -11.202  13.765  65.373  1.00  0.00    -0.302 A  
HETATM   36 CL   UNL     1     -11.295  15.089  66.483  1.00  0.00    -0.319 Cl 
ENDBRANCH  28  29
ENDBRANCH  27  28
ENDBRANCH  26  27
ENDBRANCH  25  26
ENDBRANCH  24  25
ENDBRANCH  23  24
ENDBRANCH  22  23
ENDBRANCH  21  22
ENDBRANCH  20  21
ENDBRANCH  19  20
ENDBRANCH  18  19
ENDBRANCH  16  18
ENDBRANCH  15  16
ENDBRANCH  12  15
ENDBRANCH  10  12
ENDBRANCH   2   4
TORSDOF 16
ENDMDL
MODEL      202
REMARK 921   NORMALIZED FREE ENERGY PREDICTED BY IDOCK:   -4.77 KCAL/MOL
REMARK 922        TOTAL FREE ENERGY PREDICTED BY IDOCK:  -11.31 KCAL/MOL
REMARK 923 INTER-LIGAND FREE ENERGY PREDICTED BY IDOCK:   -9.92 KCAL/MOL
REMARK 924 INTRA-LIGAND FREE ENERGY PREDICTED BY IDOCK:   -1.39 KCAL/MOL
REMARK 927      BINDING AFFINITY PREDICTED BY RF-SCORE:    0.00 PKD
ROOT
HETATM    1  O   UNL     1     -10.476  16.375  69.343  1.00  0.00    -0.272 OA 
HETATM    2  C   UNL     1     -11.686  16.065  68.651  1.00  0.00    -0.270 C  
HETATM    3  H   UNL     1     -10.433  17.300  69.557  1.00  0.00     0.000 HD 
ENDROOT
BRANCH   2   4
HETATM    4  C   UNL     1     -11.755  14.599  68.312  1.00  0.00    -0.359 A  
HETATM    5  C   UNL     1     -11.614  13.582  69.264  1.00  0.00    -0.316 A  
HETATM    6  O   UNL     1     -11.475  13.855  70.596  1.00  0.00    -0.513 OA 
HETATM    7  C   UNL     1     -11.611  12.239  68.897  1.00  0.00    -0.367 A  
HETATM    8  C   UNL     1     -11.760  11.885  67.558  1.00  0.00    -0.335 A  
HETATM    9  H   UNL     1     -11.379  13.165  71.242  1.00  0.00     0.000 HD 
HETATM   10  C   UNL     1     -11.906  12.872  66.574  1.00  0.00    -0.473 A  
HETATM   11  C   UNL     1     -11.887  14.223  66.964  1.00  0.00    -0.455 A  
BRANCH  10  12
HETATM   12  C   UNL     1     -11.998  12.470  65.117  1.00  0.00    -0.434 C  
HETATM   13  O   UNL     1     -13.370  12.416  64.703  1.00  0.00    -0.778 OA 
HETATM   14  H   UNL     1     -13.427  12.164  63.789  1.00  0.00     0.000 HD 
BRANCH  12  15
HETATM   15  C   UNL     1     -11.229  13.474  64.233  1.00  0.00    -0.360 C  
BRANCH  15  16
HETATM   16  N   UNL     1     -10.069  12.840  63.585  1.00  0.00    -0.699 NA 
HETATM   17  H   UNL     1      -9.200  13.034  64.082  1.00  0.00     0.000 HD 
BRANCH  16  18
HETATM   18  C   UNL     1     -10.301  11.407  63.432  1.00  0.00    -0.402 C  
BRANCH  18  19
HETATM   19  C   UNL     1      -9.087  10.623  63.924  1.00  0.00    -0.244 C  
BRANCH  19  20
HETATM   20  C   UNL     1      -8.495   9.799  62.780  1.00  0.00    -0.176 C  
BRANCH  20  21
HETATM   21  C   UNL     1      -8.110   8.402  63.252  1.00  0.00    -0.151 C  
BRANCH  21  22
HETATM   22  C   UNL     1      -7.087   8.464  64.383  1.00  0.00    -0.081 C  
BRANCH  22  23
HETATM   23  C   UNL     1      -7.564   7.657  65.580  1.00  0.00    -0.092 C  
BRANCH  23  24
HETATM   24  O   UNL     1      -8.963   7.862  65.744  1.00  0.00    -0.155 OA 
BRANCH  24  25
HETATM   25  C   UNL     1      -9.341   7.689  67.108  1.00  0.00    -0.146 C  
BRANCH  25  26
HETATM   26  C   UNL     1     -10.138   8.895  67.576  1.00  0.00    -0.227 C  
BRANCH  26  27
HETATM   27  O   UNL     1     -10.535   8.688  68.931  1.00  0.00    -0.215 OA 
BRANCH  27  28
HETATM   28  C   UNL     1      -9.802   9.519  69.819  1.00  0.00    -0.215 C  
BRANCH  28  29
HETATM   29  C   UNL     1      -9.770   8.867  71.175  1.00  0.00    -0.344 A  
HETATM   30  C   UNL     1     -10.953   8.594  71.883  1.00  0.00    -0.342 A  
HETATM   31 CL   UNL     1     -12.513   9.043  71.283  1.00  0.00    -0.354 Cl 
HETATM   32  C   UNL     1     -10.919   7.939  73.122  1.00  0.00    -0.301 A  
HETATM   33  C   UNL     1      -9.704   7.569  73.686  1.00  0.00    -0.341 A  
HETATM   34  C   UNL     1      -8.518   7.878  73.028  1.00  0.00    -0.233 A  
HETATM   35  C   UNL     1      -8.549   8.532  71.789  1.00  0.00    -0.190 A  
HETATM   36 CL   UNL     1      -7.021   8.901  71.065  1.00  0.00    -0.077 Cl 
ENDBRANCH  28  29
ENDBRANCH  27  28
ENDBRANCH  26  27
ENDBRANCH  25  26
ENDBRANCH  24  25
ENDBRANCH  23  24
ENDBRANCH  22  23
ENDBRANCH  21  22
ENDBRANCH  20  21
ENDBRANCH  19  20
ENDBRANCH  18  19
ENDBRANCH  16  18
ENDBRANCH  15  16
ENDBRANCH  12  15
ENDBRANCH  10  12
ENDBRANCH   2   4
TORSDOF 16
ENDMDL
MODEL      203
REMARK 921   NORMALIZED FREE ENERGY PREDICTED BY IDOCK:   -4.77 KCAL/MOL
REMARK 922        TOTAL FREE ENERGY PREDICTED BY IDOCK:  -11.30 KCAL/MOL
REMARK 923 INTER-LIGAND FREE ENERGY PREDICTED BY IDOCK:   -9.03 KCAL/MOL
REMARK 924 INTRA-LIGAND FREE ENERGY PREDICTED BY IDOCK:   -2.28 KCAL/MOL
REMARK 927      BINDING AFFINITY PREDICTED BY RF-SCORE:    0.00 PKD
ROOT
HETATM    1  O   UNL     1     -11.809  13.713  63.620  1.00  0.00    -0.669 OA 
HETATM    2  C   UNL     1     -12.385  12.704  64.450  1.00  0.00    -0.446 C  
HETATM    3  H   UNL     1     -12.472  14.316  63.306  1.00  0.00     0.000 HD 
ENDROOT
BRANCH   2   4
HETATM    4  C   UNL     1     -11.332  11.748  64.948  1.00  0.00    -0.299 A  
HETATM    5  C   UNL     1     -10.513  10.995  64.099  1.00  0.00    -0.366 A  
HETATM    6  O   UNL     1     -10.564  11.131  62.739  1.00  0.00    -0.754 OA 
HETATM    7  C   UNL     1      -9.602  10.070  64.600  1.00  0.00    -0.363 A  
HETATM    8  C   UNL     1      -9.486   9.885  65.976  1.00  0.00    -0.258 A  
HETATM    9  H   UNL     1     -10.008  10.620  62.163  1.00  0.00     0.000 HD 
HETATM   10  C   UNL     1     -10.287  10.621  66.861  1.00  0.00    -0.288 A  
HETATM   11  C   UNL     1     -11.213  11.537  66.333  1.00  0.00    -0.307 A  
BRANCH  10  12
HETATM   12  C   UNL     1     -10.195  10.356  68.350  1.00  0.00    -0.165 C  
HETATM   13  O   UNL     1      -9.717   9.025  68.588  1.00  0.00    -0.154 OA 
HETATM   14  H   UNL     1      -9.659   8.860  69.521  1.00  0.00     0.000 HD 
BRANCH  12  15
HETATM   15  C   UNL     1      -9.247  11.374  69.018  1.00  0.00     0.071 C  
BRANCH  15  16
HETATM   16  N   UNL     1      -8.014  11.553  68.233  1.00  0.00    -0.134 NA 
HETATM   17  H   UNL     1      -8.211  11.775  67.257  1.00  0.00     0.000 HD 
BRANCH  16  18
HETATM   18  C   UNL     1      -7.162  12.559  68.858  1.00  0.00    -0.050 C  
BRANCH  18  19
HETATM   19  C   UNL     1      -6.647  13.539  67.807  1.00  0.00    -0.175 C  
BRANCH  19  20
HETATM   20  C   UNL     1      -7.478  14.821  67.831  1.00  0.00    -0.156 C  
BRANCH  20  21
HETATM   21  C   UNL     1      -6.595  16.052  67.657  1.00  0.00    -0.187 C  
BRANCH  21  22
HETATM   22  C   UNL     1      -7.045  16.889  66.465  1.00  0.00    -0.281 C  
BRANCH  22  23
HETATM   23  C   UNL     1      -6.850  18.370  66.746  1.00  0.00    -0.192 C  
BRANCH  23  24
HETATM   24  O   UNL     1      -5.966  18.514  67.853  1.00  0.00    -0.182 OA 
BRANCH  24  25
HETATM   25  C   UNL     1      -6.553  19.330  68.865  1.00  0.00    -0.296 C  
BRANCH  25  26
HETATM   26  C   UNL     1      -7.928  19.794  68.414  1.00  0.00    -0.280 C  
BRANCH  26  27
HETATM   27  O   UNL     1      -8.917  19.168  69.231  1.00  0.00    -0.173 OA 
BRANCH  27  28
HETATM   28  C   UNL     1     -10.215  19.306  68.671  1.00  0.00    -0.355 C  
BRANCH  28  29
HETATM   29  C   UNL     1     -10.477  18.133  67.766  1.00  0.00    -0.421 A  
HETATM   30  C   UNL     1     -10.552  18.289  66.371  1.00  0.00    -0.293 A  
HETATM   31 CL   UNL     1     -10.417  19.836  65.606  1.00  0.00    -0.544 Cl 
HETATM   32  C   UNL     1     -10.744  17.185  65.529  1.00  0.00    -0.124 A  
HETATM   33  C   UNL     1     -10.890  15.911  66.066  1.00  0.00    -0.226 A  
HETATM   34  C   UNL     1     -10.872  15.742  67.447  1.00  0.00    -0.306 A  
HETATM   35  C   UNL     1     -10.680  16.844  68.290  1.00  0.00    -0.377 A  
HETATM   36 CL   UNL     1     -10.706  16.534  69.993  1.00  0.00    -0.278 Cl 
ENDBRANCH  28  29
ENDBRANCH  27  28
ENDBRANCH  26  27
ENDBRANCH  25  26
ENDBRANCH  24  25
ENDBRANCH  23  24
ENDBRANCH  22  23
ENDBRANCH  21  22
ENDBRANCH  20  21
ENDBRANCH  19  20
ENDBRANCH  18  19
ENDBRANCH  16  18
ENDBRANCH  15  16
ENDBRANCH  12  15
ENDBRANCH  10  12
ENDBRANCH   2   4
TORSDOF 16
ENDMDL
MODEL      204
REMARK 921   NORMALIZED FREE ENERGY PREDICTED BY IDOCK:   -4.77 KCAL/MOL
REMARK 922        TOTAL FREE ENERGY PREDICTED BY IDOCK:  -11.30 KCAL/MOL
REMARK 923 INTER-LIGAND FREE ENERGY PREDICTED BY IDOCK:   -9.57 KCAL/MOL
REMARK 924 INTRA-LIGAND FREE ENERGY PREDICTED BY IDOCK:   -1.73 KCAL/MOL
REMARK 927      BINDING AFFINITY PREDICTED BY RF-SCORE:    0.00 PKD
ROOT
HETATM    1  O   UNL     1      -8.689  11.575  67.761  1.00  0.00    -0.134 OA 
HETATM    2  C   UNL     1      -8.791  11.881  66.370  1.00  0.00    -0.152 C  
HETATM    3  H   UNL     1      -7.889  11.098  67.948  1.00  0.00     0.000 HD 
ENDROOT
BRANCH   2   4
HETATM    4  C   UNL     1     -10.060  12.639  66.075  1.00  0.00    -0.274 A  
HETATM    5  C   UNL     1     -11.338  12.093  66.240  1.00  0.00    -0.357 A  
HETATM    6  O   UNL     1     -11.527  10.842  66.758  1.00  0.00    -0.235 OA 
HETATM    7  C   UNL     1     -12.482  12.802  65.887  1.00  0.00    -0.160 A  
HETATM    8  C   UNL     1     -12.368  14.088  65.364  1.00  0.00    -0.495 A  
HETATM    9  H   UNL     1     -12.394  10.471  66.870  1.00  0.00     0.000 HD 
HETATM   10  C   UNL     1     -11.106  14.672  65.184  1.00  0.00    -0.382 A  
HETATM   11  C   UNL     1      -9.962  13.931  65.530  1.00  0.00    -0.275 A  
BRANCH  10  12
HETATM   12  C   UNL     1     -11.000  16.044  64.550  1.00  0.00    -0.159 C  
HETATM   13  O   UNL     1     -12.061  16.236  63.605  1.00  0.00    -1.254 OA 
HETATM   14  H   UNL     1     -11.995  17.097  63.208  1.00  0.00     0.000 HD 
BRANCH  12  15
HETATM   15  C   UNL     1     -11.065  17.141  65.633  1.00  0.00     0.262 C  
BRANCH  15  16
HETATM   16  N   UNL     1     -10.134  18.243  65.335  1.00  0.00    -0.133 NA 
HETATM   17  H   UNL     1      -9.960  18.336  64.334  1.00  0.00     0.000 HD 
BRANCH  16  18
HETATM   18  C   UNL     1     -10.623  19.486  65.921  1.00  0.00    -0.476 C  
BRANCH  18  19
HETATM   19  C   UNL     1     -10.911  19.289  67.407  1.00  0.00    -0.445 C  
BRANCH  19  20
HETATM   20  C   UNL     1      -9.769  19.864  68.245  1.00  0.00    -0.479 C  
BRANCH  20  21
HETATM   21  C   UNL     1      -8.437  19.742  67.516  1.00  0.00    -0.366 C  
BRANCH  21  22
HETATM   22  C   UNL     1      -7.489  18.800  68.253  1.00  0.00    -0.300 C  
BRANCH  22  23
HETATM   23  C   UNL     1      -7.753  17.357  67.856  1.00  0.00    -0.199 C  
BRANCH  23  24
HETATM   24  O   UNL     1      -8.087  16.614  69.024  1.00  0.00    -0.239 OA 
BRANCH  24  25
HETATM   25  C   UNL     1      -9.005  15.569  68.711  1.00  0.00    -0.204 C  
BRANCH  25  26
HETATM   26  C   UNL     1     -10.425  16.110  68.734  1.00  0.00    -0.264 C  
BRANCH  26  27
HETATM   27  O   UNL     1     -11.335  15.012  68.809  1.00  0.00    -0.261 OA 
BRANCH  27  28
HETATM   28  C   UNL     1     -10.868  14.012  69.702  1.00  0.00     0.030 C  
BRANCH  28  29
HETATM   29  C   UNL     1     -11.945  13.727  70.713  1.00  0.00    -0.318 A  
HETATM   30  C   UNL     1     -12.295  14.671  71.694  1.00  0.00    -0.351 A  
HETATM   31 CL   UNL     1     -11.476  16.188  71.850  1.00  0.00    -0.435 Cl 
HETATM   32  C   UNL     1     -13.335  14.421  72.600  1.00  0.00    -0.599 A  
HETATM   33  C   UNL     1     -14.025  13.214  72.559  1.00  0.00    -0.409 A  
HETATM   34  C   UNL     1     -13.659  12.245  71.632  1.00  0.00     0.084 A  
HETATM   35  C   UNL     1     -12.620  12.493  70.725  1.00  0.00    -0.212 A  
HETATM   36 CL   UNL     1     -12.219  11.211  69.632  1.00  0.00    -0.376 Cl 
ENDBRANCH  28  29
ENDBRANCH  27  28
ENDBRANCH  26  27
ENDBRANCH  25  26
ENDBRANCH  24  25
ENDBRANCH  23  24
ENDBRANCH  22  23
ENDBRANCH  21  22
ENDBRANCH  20  21
ENDBRANCH  19  20
ENDBRANCH  18  19
ENDBRANCH  16  18
ENDBRANCH  15  16
ENDBRANCH  12  15
ENDBRANCH  10  12
ENDBRANCH   2   4
TORSDOF 16
ENDMDL
MODEL      205
REMARK 921   NORMALIZED FREE ENERGY PREDICTED BY IDOCK:   -4.76 KCAL/MOL
REMARK 922        TOTAL FREE ENERGY PREDICTED BY IDOCK:  -11.28 KCAL/MOL
REMARK 923 INTER-LIGAND FREE ENERGY PREDICTED BY IDOCK:   -8.69 KCAL/MOL
REMARK 924 INTRA-LIGAND FREE ENERGY PREDICTED BY IDOCK:   -2.58 KCAL/MOL
REMARK 927      BINDING AFFINITY PREDICTED BY RF-SCORE:    0.00 PKD
ROOT
HETATM    1  O   UNL     1     -10.310   2.751  73.302  1.00  0.00    -0.118 OA 
HETATM    2  C   UNL     1     -10.235   4.165  73.485  1.00  0.00    -0.153 C  
HETATM    3  H   UNL     1     -10.067   2.291  74.097  1.00  0.00     0.000 HD 
ENDROOT
BRANCH   2   4
HETATM    4  C   UNL     1     -10.620   4.894  72.224  1.00  0.00    -0.251 A  
HETATM    5  C   UNL     1     -10.080   4.596  70.968  1.00  0.00    -0.175 A  
HETATM    6  O   UNL     1      -9.208   3.560  70.785  1.00  0.00    -0.107 OA 
HETATM    7  C   UNL     1     -10.410   5.342  69.840  1.00  0.00    -0.374 A  
HETATM    8  C   UNL     1     -11.303   6.406  69.947  1.00  0.00    -0.500 A  
HETATM    9  H   UNL     1      -8.841   3.357  69.932  1.00  0.00     0.000 HD 
HETATM   10  C   UNL     1     -11.868   6.736  71.187  1.00  0.00    -0.410 A  
HETATM   11  C   UNL     1     -11.507   5.981  72.317  1.00  0.00    -0.364 A  
BRANCH  10  12
HETATM   12  C   UNL     1     -12.782   7.938  71.297  1.00  0.00    -0.229 C  
HETATM   13  O   UNL     1     -13.272   8.067  72.639  1.00  0.00    -0.535 OA 
HETATM   14  H   UNL     1     -13.845   8.822  72.708  1.00  0.00     0.000 HD 
BRANCH  12  15
HETATM   15  C   UNL     1     -12.029   9.224  70.894  1.00  0.00    -0.257 C  
BRANCH  15  16
HETATM   16  N   UNL     1     -12.467  10.376  71.700  1.00  0.00    -0.395 NA 
HETATM   17  H   UNL     1     -11.718  10.733  72.294  1.00  0.00     0.000 HD 
BRANCH  16  18
HETATM   18  C   UNL     1     -13.018  11.414  70.836  1.00  0.00    -0.121 C  
BRANCH  18  19
HETATM   19  C   UNL     1     -11.896  12.287  70.282  1.00  0.00    -0.324 C  
BRANCH  19  20
HETATM   20  C   UNL     1     -11.962  12.324  68.755  1.00  0.00    -0.281 C  
BRANCH  20  21
HETATM   21  C   UNL     1     -11.267  13.564  68.205  1.00  0.00    -0.302 C  
BRANCH  21  22
HETATM   22  C   UNL     1     -12.117  14.242  67.135  1.00  0.00    -0.412 C  
BRANCH  22  23
HETATM   23  C   UNL     1     -11.661  13.827  65.745  1.00  0.00    -0.331 C  
BRANCH  23  24
HETATM   24  O   UNL     1     -12.678  13.032  65.147  1.00  0.00    -0.585 OA 
BRANCH  24  25
HETATM   25  C   UNL     1     -12.156  12.287  64.049  1.00  0.00    -0.471 C  
BRANCH  25  26
HETATM   26  C   UNL     1     -10.674  12.028  64.265  1.00  0.00    -0.336 C  
BRANCH  26  27
HETATM   27  O   UNL     1     -10.516  10.771  64.922  1.00  0.00    -0.311 OA 
BRANCH  27  28
HETATM   28  C   UNL     1      -9.149  10.493  65.187  1.00  0.00    -0.197 C  
BRANCH  28  29
HETATM   29  C   UNL     1      -8.973  10.309  66.670  1.00  0.00    -0.156 A  
HETATM   30  C   UNL     1      -8.518  11.359  67.487  1.00  0.00    -0.137 A  
HETATM   31 CL   UNL     1      -8.068  12.902  66.844  1.00  0.00    -0.046 Cl 
HETATM   32  C   UNL     1      -8.404  11.198  68.875  1.00  0.00    -0.101 A  
HETATM   33  C   UNL     1      -8.720   9.980  69.467  1.00  0.00    -0.205 A  
HETATM   34  C   UNL     1      -9.120   8.913  68.671  1.00  0.00    -0.137 A  
HETATM   35  C   UNL     1      -9.235   9.071  67.284  1.00  0.00    -0.134 A  
HETATM   36 CL   UNL     1      -9.709   7.675  66.378  1.00  0.00    -0.239 Cl 
ENDBRANCH  28  29
ENDBRANCH  27  28
ENDBRANCH  26  27
ENDBRANCH  25  26
ENDBRANCH  24  25
ENDBRANCH  23  24
ENDBRANCH  22  23
ENDBRANCH  21  22
ENDBRANCH  20  21
ENDBRANCH  19  20
ENDBRANCH  18  19
ENDBRANCH  16  18
ENDBRANCH  15  16
ENDBRANCH  12  15
ENDBRANCH  10  12
ENDBRANCH   2   4
TORSDOF 16
ENDMDL
MODEL      206
REMARK 921   NORMALIZED FREE ENERGY PREDICTED BY IDOCK:   -4.76 KCAL/MOL
REMARK 922        TOTAL FREE ENERGY PREDICTED BY IDOCK:  -11.28 KCAL/MOL
REMARK 923 INTER-LIGAND FREE ENERGY PREDICTED BY IDOCK:   -9.15 KCAL/MOL
REMARK 924 INTRA-LIGAND FREE ENERGY PREDICTED BY IDOCK:   -2.12 KCAL/MOL
REMARK 927      BINDING AFFINITY PREDICTED BY RF-SCORE:    0.00 PKD
ROOT
HETATM    1  O   UNL     1     -12.848  14.184  62.972  1.00  0.00    -0.562 OA 
HETATM    2  C   UNL     1     -11.835  13.340  63.520  1.00  0.00    -0.418 C  
HETATM    3  H   UNL     1     -13.248  13.785  62.209  1.00  0.00     0.000 HD 
ENDROOT
BRANCH   2   4
HETATM    4  C   UNL     1     -11.200  13.974  64.731  1.00  0.00    -0.375 A  
HETATM    5  C   UNL     1     -10.993  15.352  64.858  1.00  0.00    -0.437 A  
HETATM    6  O   UNL     1     -11.425  16.238  63.910  1.00  0.00    -1.484 OA 
HETATM    7  C   UNL     1     -10.338  15.889  65.962  1.00  0.00    -0.363 A  
HETATM    8  C   UNL     1      -9.880  15.049  66.975  1.00  0.00    -0.241 A  
HETATM    9  H   UNL     1     -11.285  17.173  63.997  1.00  0.00     0.000 HD 
HETATM   10  C   UNL     1     -10.068  13.663  66.887  1.00  0.00    -0.260 A  
HETATM   11  C   UNL     1     -10.717  13.139  65.754  1.00  0.00    -0.292 A  
BRANCH  10  12
HETATM   12  C   UNL     1      -9.502  12.760  67.963  1.00  0.00    -0.213 C  
HETATM   13  O   UNL     1      -9.292  13.503  69.172  1.00  0.00    -0.347 OA 
HETATM   14  H   UNL     1      -8.937  12.937  69.847  1.00  0.00     0.000 HD 
BRANCH  12  15
HETATM   15  C   UNL     1     -10.465  11.586  68.238  1.00  0.00    -0.197 C  
BRANCH  15  16
HETATM   16  N   UNL     1     -10.386  11.147  69.642  1.00  0.00    -0.440 NA 
HETATM   17  H   UNL     1     -11.255  11.324  70.146  1.00  0.00     0.000 HD 
BRANCH  16  18
HETATM   18  C   UNL     1      -9.994   9.743  69.708  1.00  0.00    -0.236 C  
BRANCH  18  19
HETATM   19  C   UNL     1      -8.666   9.602  70.447  1.00  0.00    -0.213 C  
BRANCH  19  20
HETATM   20  C   UNL     1      -7.661   8.843  69.582  1.00  0.00    -0.072 C  
BRANCH  20  21
HETATM   21  C   UNL     1      -8.168   8.694  68.152  1.00  0.00    -0.115 C  
BRANCH  21  22
HETATM   22  C   UNL     1      -7.421   7.587  67.415  1.00  0.00    -0.104 C  
BRANCH  22  23
HETATM   23  C   UNL     1      -8.303   6.968  66.342  1.00  0.00    -0.125 C  
BRANCH  23  24
HETATM   24  O   UNL     1      -8.107   5.558  66.344  1.00  0.00    -0.104 OA 
BRANCH  24  25
HETATM   25  C   UNL     1      -7.839   5.089  67.664  1.00  0.00    -0.095 C  
BRANCH  25  26
HETATM   26  C   UNL     1      -8.734   3.901  67.976  1.00  0.00    -0.102 C  
BRANCH  26  27
HETATM   27  O   UNL     1      -9.278   4.066  69.286  1.00  0.00    -0.122 OA 
BRANCH  27  28
HETATM   28  C   UNL     1      -8.880   5.302  69.860  1.00  0.00    -0.112 C  
BRANCH  28  29
HETATM   29  C   UNL     1     -10.052   5.894  70.594  1.00  0.00    -0.252 A  
HETATM   30  C   UNL     1     -11.123   6.487  69.903  1.00  0.00    -0.371 A  
HETATM   31 CL   UNL     1     -11.139   6.638  68.179  1.00  0.00    -0.313 Cl 
HETATM   32  C   UNL     1     -12.237   6.990  70.589  1.00  0.00    -0.289 A  
HETATM   33  C   UNL     1     -12.290   6.932  71.978  1.00  0.00    -0.305 A  
HETATM   34  C   UNL     1     -11.217   6.399  72.684  1.00  0.00    -0.290 A  
HETATM   35  C   UNL     1     -10.103   5.895  72.000  1.00  0.00    -0.189 A  
HETATM   36 CL   UNL     1      -8.806   5.281  72.969  1.00  0.00    -0.117 Cl 
ENDBRANCH  28  29
ENDBRANCH  27  28
ENDBRANCH  26  27
ENDBRANCH  25  26
ENDBRANCH  24  25
ENDBRANCH  23  24
ENDBRANCH  22  23
ENDBRANCH  21  22
ENDBRANCH  20  21
ENDBRANCH  19  20
ENDBRANCH  18  19
ENDBRANCH  16  18
ENDBRANCH  15  16
ENDBRANCH  12  15
ENDBRANCH  10  12
ENDBRANCH   2   4
TORSDOF 16
ENDMDL
MODEL      207
REMARK 921   NORMALIZED FREE ENERGY PREDICTED BY IDOCK:   -4.75 KCAL/MOL
REMARK 922        TOTAL FREE ENERGY PREDICTED BY IDOCK:  -11.27 KCAL/MOL
REMARK 923 INTER-LIGAND FREE ENERGY PREDICTED BY IDOCK:   -9.69 KCAL/MOL
REMARK 924 INTRA-LIGAND FREE ENERGY PREDICTED BY IDOCK:   -1.59 KCAL/MOL
REMARK 927      BINDING AFFINITY PREDICTED BY RF-SCORE:    0.00 PKD
ROOT
HETATM    1  O   UNL     1     -10.668  16.094  69.670  1.00  0.00    -0.277 OA 
HETATM    2  C   UNL     1     -11.686  15.889  68.689  1.00  0.00    -0.322 C  
HETATM    3  H   UNL     1     -10.611  17.010  69.915  1.00  0.00     0.000 HD 
ENDROOT
BRANCH   2   4
HETATM    4  C   UNL     1     -11.777  14.437  68.300  1.00  0.00    -0.376 A  
HETATM    5  C   UNL     1     -11.693  13.387  69.221  1.00  0.00    -0.330 A  
HETATM    6  O   UNL     1     -11.595  13.613  70.566  1.00  0.00    -0.513 OA 
HETATM    7  C   UNL     1     -11.710  12.057  68.810  1.00  0.00    -0.377 A  
HETATM    8  C   UNL     1     -11.820  11.750  67.456  1.00  0.00    -0.227 A  
HETATM    9  H   UNL     1     -11.538  12.900  71.191  1.00  0.00     0.000 HD 
HETATM   10  C   UNL     1     -11.908  12.772  66.501  1.00  0.00    -0.471 A  
HETATM   11  C   UNL     1     -11.871  14.109  66.936  1.00  0.00    -0.458 A  
BRANCH  10  12
HETATM   12  C   UNL     1     -11.958  12.419  65.029  1.00  0.00    -0.402 C  
HETATM   13  O   UNL     1     -13.309  12.479  64.551  1.00  0.00    -0.780 OA 
HETATM   14  H   UNL     1     -13.340  12.258  63.627  1.00  0.00     0.000 HD 
BRANCH  12  15
HETATM   15  C   UNL     1     -11.077  13.389  64.214  1.00  0.00    -0.373 C  
BRANCH  15  16
HETATM   16  N   UNL     1      -9.989  12.674  63.525  1.00  0.00    -0.683 NA 
HETATM   17  H   UNL     1      -9.072  12.934  63.887  1.00  0.00     0.000 HD 
BRANCH  16  18
HETATM   18  C   UNL     1     -10.214  11.234  63.592  1.00  0.00    -0.392 C  
BRANCH  18  19
HETATM   19  C   UNL     1      -9.300  10.608  64.642  1.00  0.00    -0.280 C  
BRANCH  19  20
HETATM   20  C   UNL     1      -8.477   9.480  64.019  1.00  0.00    -0.192 C  
BRANCH  20  21
HETATM   21  C   UNL     1      -8.437   8.261  64.932  1.00  0.00    -0.115 C  
BRANCH  21  22
HETATM   22  C   UNL     1      -7.055   8.082  65.553  1.00  0.00    -0.060 C  
BRANCH  22  23
HETATM   23  C   UNL     1      -6.903   6.684  66.130  1.00  0.00    -0.060 C  
BRANCH  23  24
HETATM   24  O   UNL     1      -8.183   6.062  66.166  1.00  0.00    -0.113 OA 
BRANCH  24  25
HETATM   25  C   UNL     1      -8.426   5.481  67.445  1.00  0.00    -0.109 C  
BRANCH  25  26
HETATM   26  C   UNL     1      -9.274   6.423  68.283  1.00  0.00    -0.112 C  
BRANCH  26  27
HETATM   27  O   UNL     1      -9.399   5.883  69.599  1.00  0.00    -0.137 OA 
BRANCH  27  28
HETATM   28  C   UNL     1      -8.920   6.793  70.580  1.00  0.00    -0.152 C  
BRANCH  28  29
HETATM   29  C   UNL     1     -10.083   7.588  71.108  1.00  0.00    -0.195 A  
HETATM   30  C   UNL     1     -10.247   8.946  70.785  1.00  0.00    -0.226 A  
HETATM   31 CL   UNL     1      -9.099   9.811  69.820  1.00  0.00    -0.228 Cl 
HETATM   32  C   UNL     1     -11.359   9.668  71.238  1.00  0.00    -0.458 A  
HETATM   33  C   UNL     1     -12.314   9.054  72.042  1.00  0.00    -0.455 A  
HETATM   34  C   UNL     1     -12.142   7.726  72.418  1.00  0.00    -0.297 A  
HETATM   35  C   UNL     1     -11.032   7.002  71.966  1.00  0.00    -0.232 A  
HETATM   36 CL   UNL     1     -10.892   5.366  72.516  1.00  0.00    -0.289 Cl 
ENDBRANCH  28  29
ENDBRANCH  27  28
ENDBRANCH  26  27
ENDBRANCH  25  26
ENDBRANCH  24  25
ENDBRANCH  23  24
ENDBRANCH  22  23
ENDBRANCH  21  22
ENDBRANCH  20  21
ENDBRANCH  19  20
ENDBRANCH  18  19
ENDBRANCH  16  18
ENDBRANCH  15  16
ENDBRANCH  12  15
ENDBRANCH  10  12
ENDBRANCH   2   4
TORSDOF 16
ENDMDL
MODEL      208
REMARK 921   NORMALIZED FREE ENERGY PREDICTED BY IDOCK:   -4.75 KCAL/MOL
REMARK 922        TOTAL FREE ENERGY PREDICTED BY IDOCK:  -11.27 KCAL/MOL
REMARK 923 INTER-LIGAND FREE ENERGY PREDICTED BY IDOCK:   -9.41 KCAL/MOL
REMARK 924 INTRA-LIGAND FREE ENERGY PREDICTED BY IDOCK:   -1.86 KCAL/MOL
REMARK 927      BINDING AFFINITY PREDICTED BY RF-SCORE:    0.00 PKD
ROOT
HETATM    1  O   UNL     1     -10.748   7.604  66.667  1.00  0.00    -0.470 OA 
HETATM    2  C   UNL     1     -10.107   7.514  67.941  1.00  0.00    -0.182 C  
HETATM    3  H   UNL     1     -11.658   7.337  66.724  1.00  0.00     0.000 HD 
ENDROOT
BRANCH   2   4
HETATM    4  C   UNL     1      -8.664   7.938  67.850  1.00  0.00    -0.124 A  
HETATM    5  C   UNL     1      -7.593   7.086  68.142  1.00  0.00    -0.108 A  
HETATM    6  O   UNL     1      -7.783   5.771  68.463  1.00  0.00    -0.090 OA 
HETATM    7  C   UNL     1      -6.277   7.539  68.116  1.00  0.00    -0.040 A  
HETATM    8  C   UNL     1      -6.005   8.865  67.785  1.00  0.00    -0.047 A  
HETATM    9  H   UNL     1      -7.056   5.193  68.660  1.00  0.00     0.000 HD 
HETATM   10  C   UNL     1      -7.049   9.750  67.485  1.00  0.00    -0.088 A  
HETATM   11  C   UNL     1      -8.373   9.277  67.535  1.00  0.00    -0.119 A  
BRANCH  10  12
HETATM   12  C   UNL     1      -6.739  11.204  67.196  1.00  0.00    -0.106 C  
HETATM   13  O   UNL     1      -6.490  11.388  65.795  1.00  0.00    -0.359 OA 
HETATM   14  H   UNL     1      -6.296  12.300  65.613  1.00  0.00     0.000 HD 
BRANCH  12  15
HETATM   15  C   UNL     1      -7.915  12.101  67.635  1.00  0.00    -0.157 C  
BRANCH  15  16
HETATM   16  N   UNL     1      -8.097  13.235  66.713  1.00  0.00    -0.393 NA 
HETATM   17  H   UNL     1      -8.665  12.981  65.904  1.00  0.00     0.000 HD 
BRANCH  16  18
HETATM   18  C   UNL     1      -8.649  14.381  67.428  1.00  0.00    -0.202 C  
BRANCH  18  19
HETATM   19  C   UNL     1      -8.040  15.675  66.895  1.00  0.00    -0.290 C  
BRANCH  19  20
HETATM   20  C   UNL     1      -9.107  16.500  66.175  1.00  0.00    -0.342 C  
BRANCH  20  21
HETATM   21  C   UNL     1     -10.456  15.791  66.194  1.00  0.00    -0.326 C  
BRANCH  21  22
HETATM   22  C   UNL     1     -11.090  15.775  64.806  1.00  0.00    -0.413 C  
BRANCH  22  23
HETATM   23  C   UNL     1     -11.671  14.405  64.498  1.00  0.00    -0.419 C  
BRANCH  23  24
HETATM   24  O   UNL     1     -10.949  13.424  65.237  1.00  0.00    -0.285 OA 
BRANCH  24  25
HETATM   25  C   UNL     1     -11.791  12.323  65.570  1.00  0.00    -0.359 C  
BRANCH  25  26
HETATM   26  C   UNL     1     -11.533  11.898  67.006  1.00  0.00    -0.316 C  
BRANCH  26  27
HETATM   27  O   UNL     1     -12.026  12.912  67.883  1.00  0.00    -0.349 OA 
BRANCH  27  28
HETATM   28  C   UNL     1     -11.241  13.002  69.063  1.00  0.00    -0.264 C  
BRANCH  28  29
HETATM   29  C   UNL     1     -12.123  13.454  70.195  1.00  0.00    -0.415 A  
HETATM   30  C   UNL     1     -12.707  12.532  71.081  1.00  0.00    -0.245 A  
HETATM   31 CL   UNL     1     -12.510  10.822  70.896  1.00  0.00    -0.462 Cl 
HETATM   32  C   UNL     1     -13.485  12.962  72.164  1.00  0.00    -0.619 A  
HETATM   33  C   UNL     1     -13.715  14.318  72.367  1.00  0.00    -0.616 A  
HETATM   34  C   UNL     1     -13.192  15.245  71.472  1.00  0.00    -0.542 A  
HETATM   35  C   UNL     1     -12.413  14.818  70.389  1.00  0.00    -0.349 A  
HETATM   36 CL   UNL     1     -11.835  16.045  69.313  1.00  0.00    -0.318 Cl 
ENDBRANCH  28  29
ENDBRANCH  27  28
ENDBRANCH  26  27
ENDBRANCH  25  26
ENDBRANCH  24  25
ENDBRANCH  23  24
ENDBRANCH  22  23
ENDBRANCH  21  22
ENDBRANCH  20  21
ENDBRANCH  19  20
ENDBRANCH  18  19
ENDBRANCH  16  18
ENDBRANCH  15  16
ENDBRANCH  12  15
ENDBRANCH  10  12
ENDBRANCH   2   4
TORSDOF 16
ENDMDL
MODEL      209
REMARK 921   NORMALIZED FREE ENERGY PREDICTED BY IDOCK:   -4.74 KCAL/MOL
REMARK 922        TOTAL FREE ENERGY PREDICTED BY IDOCK:  -11.25 KCAL/MOL
REMARK 923 INTER-LIGAND FREE ENERGY PREDICTED BY IDOCK:   -9.42 KCAL/MOL
REMARK 924 INTRA-LIGAND FREE ENERGY PREDICTED BY IDOCK:   -1.84 KCAL/MOL
REMARK 927      BINDING AFFINITY PREDICTED BY RF-SCORE:    0.00 PKD
ROOT
HETATM    1  O   UNL     1     -13.184  16.290  73.400  1.00  0.00    -0.516 OA 
HETATM    2  C   UNL     1     -14.081  15.377  72.768  1.00  0.00    -0.304 C  
HETATM    3  H   UNL     1     -13.652  16.885  73.975  1.00  0.00     0.000 HD 
ENDROOT
BRANCH   2   4
HETATM    4  C   UNL     1     -13.339  14.433  71.858  1.00  0.00    -0.456 A  
HETATM    5  C   UNL     1     -12.559  14.860  70.777  1.00  0.00    -0.354 A  
HETATM    6  O   UNL     1     -12.356  16.186  70.514  1.00  0.00    -0.431 OA 
HETATM    7  C   UNL     1     -11.948  13.952  69.918  1.00  0.00    -0.405 A  
HETATM    8  C   UNL     1     -12.101  12.583  70.131  1.00  0.00    -0.368 A  
HETATM    9  H   UNL     1     -11.827  16.476  69.781  1.00  0.00     0.000 HD 
HETATM   10  C   UNL     1     -12.873  12.114  71.203  1.00  0.00    -0.313 A  
HETATM   11  C   UNL     1     -13.496  13.049  72.048  1.00  0.00    -0.584 A  
BRANCH  10  12
HETATM   12  C   UNL     1     -13.084  10.624  71.377  1.00  0.00    -0.400 C  
HETATM   13  O   UNL     1     -13.317  10.005  70.105  1.00  0.00    -0.491 OA 
HETATM   14  H   UNL     1     -13.449   9.070  70.214  1.00  0.00     0.000 HD 
BRANCH  12  15
HETATM   15  C   UNL     1     -11.850   9.983  72.047  1.00  0.00     0.319 C  
BRANCH  15  16
HETATM   16  N   UNL     1     -11.998   8.521  72.153  1.00  0.00    -0.361 NA 
HETATM   17  H   UNL     1     -12.927   8.210  71.870  1.00  0.00     0.000 HD 
BRANCH  16  18
HETATM   18  C   UNL     1     -10.945   7.854  71.396  1.00  0.00    -0.232 C  
BRANCH  18  19
HETATM   19  C   UNL     1      -9.757   8.793  71.206  1.00  0.00    -0.335 C  
BRANCH  19  20
HETATM   20  C   UNL     1      -9.150   8.601  69.817  1.00  0.00    -0.150 C  
BRANCH  20  21
HETATM   21  C   UNL     1      -8.418   7.268  69.716  1.00  0.00    -0.136 C  
BRANCH  21  22
HETATM   22  C   UNL     1      -8.403   6.754  68.280  1.00  0.00    -0.118 C  
BRANCH  22  23
HETATM   23  C   UNL     1      -9.498   7.420  67.461  1.00  0.00    -0.138 C  
BRANCH  23  24
HETATM   24  O   UNL     1      -8.943   7.862  66.227  1.00  0.00    -0.156 OA 
BRANCH  24  25
HETATM   25  C   UNL     1      -8.880   9.285  66.184  1.00  0.00    -0.155 C  
BRANCH  25  26
HETATM   26  C   UNL     1     -10.220   9.871  66.599  1.00  0.00    -0.226 C  
BRANCH  26  27
HETATM   27  O   UNL     1     -10.394  11.129  65.948  1.00  0.00    -0.246 OA 
BRANCH  27  28
HETATM   28  C   UNL     1     -10.948  12.096  66.829  1.00  0.00    -0.280 C  
BRANCH  28  29
HETATM   29  C   UNL     1     -11.070  13.403  66.095  1.00  0.00    -0.299 A  
HETATM   30  C   UNL     1     -10.334  14.534  66.490  1.00  0.00    -0.283 A  
HETATM   31 CL   UNL     1      -9.296  14.523  67.876  1.00  0.00    -0.196 Cl 
HETATM   32  C   UNL     1     -10.411  15.735  65.772  1.00  0.00    -0.384 A  
HETATM   33  C   UNL     1     -11.243  15.836  64.662  1.00  0.00    -0.373 A  
HETATM   34  C   UNL     1     -12.021  14.745  64.286  1.00  0.00    -0.387 A  
HETATM   35  C   UNL     1     -11.945  13.544  65.002  1.00  0.00    -0.372 A  
HETATM   36 CL   UNL     1     -12.975  12.257  64.475  1.00  0.00    -0.290 Cl 
ENDBRANCH  28  29
ENDBRANCH  27  28
ENDBRANCH  26  27
ENDBRANCH  25  26
ENDBRANCH  24  25
ENDBRANCH  23  24
ENDBRANCH  22  23
ENDBRANCH  21  22
ENDBRANCH  20  21
ENDBRANCH  19  20
ENDBRANCH  18  19
ENDBRANCH  16  18
ENDBRANCH  15  16
ENDBRANCH  12  15
ENDBRANCH  10  12
ENDBRANCH   2   4
TORSDOF 16
ENDMDL
MODEL      210
REMARK 921   NORMALIZED FREE ENERGY PREDICTED BY IDOCK:   -4.74 KCAL/MOL
REMARK 922        TOTAL FREE ENERGY PREDICTED BY IDOCK:  -11.24 KCAL/MOL
REMARK 923 INTER-LIGAND FREE ENERGY PREDICTED BY IDOCK:   -9.65 KCAL/MOL
REMARK 924 INTRA-LIGAND FREE ENERGY PREDICTED BY IDOCK:   -1.59 KCAL/MOL
REMARK 927      BINDING AFFINITY PREDICTED BY RF-SCORE:    0.00 PKD
ROOT
HETATM    1  O   UNL     1     -11.996  16.217  63.658  1.00  0.00    -1.375 OA 
HETATM    2  C   UNL     1     -11.089  15.871  64.705  1.00  0.00    -0.384 C  
HETATM    3  H   UNL     1     -12.031  17.158  63.534  1.00  0.00     0.000 HD 
ENDROOT
BRANCH   2   4
HETATM    4  C   UNL     1     -11.034  14.378  64.901  1.00  0.00    -0.416 A  
HETATM    5  C   UNL     1     -11.703  13.468  64.074  1.00  0.00    -0.395 A  
HETATM    6  O   UNL     1     -12.402  13.874  62.972  1.00  0.00    -1.101 OA 
HETATM    7  C   UNL     1     -11.684  12.101  64.333  1.00  0.00    -0.430 A  
HETATM    8  C   UNL     1     -10.981  11.612  65.433  1.00  0.00    -0.328 A  
HETATM    9  H   UNL     1     -12.855  13.257  62.410  1.00  0.00     0.000 HD 
HETATM   10  C   UNL     1     -10.297  12.489  66.285  1.00  0.00    -0.269 A  
HETATM   11  C   UNL     1     -10.344  13.869  66.016  1.00  0.00    -0.310 A  
BRANCH  10  12
HETATM   12  C   UNL     1      -9.597  11.946  67.514  1.00  0.00    -0.175 C  
HETATM   13  O   UNL     1     -10.041  10.609  67.786  1.00  0.00    -0.167 OA 
HETATM   14  H   UNL     1      -9.602  10.268  68.556  1.00  0.00     0.000 HD 
BRANCH  12  15
HETATM   15  C   UNL     1      -8.068  11.952  67.306  1.00  0.00    -0.171 C  
BRANCH  15  16
HETATM   16  N   UNL     1      -7.673  11.053  66.209  1.00  0.00    -0.226 NA 
HETATM   17  H   UNL     1      -7.070  11.519  65.531  1.00  0.00     0.000 HD 
BRANCH  16  18
HETATM   18  C   UNL     1      -7.057   9.845  66.746  1.00  0.00    -0.090 C  
BRANCH  18  19
HETATM   19  C   UNL     1      -6.374  10.150  68.076  1.00  0.00    -0.057 C  
BRANCH  19  20
HETATM   20  C   UNL     1      -6.764   9.105  69.121  1.00  0.00    -0.050 C  
BRANCH  20  21
HETATM   21  C   UNL     1      -7.439   9.754  70.323  1.00  0.00    -0.173 C  
BRANCH  21  22
HETATM   22  C   UNL     1      -8.339   8.762  71.053  1.00  0.00    -0.208 C  
BRANCH  22  23
HETATM   23  C   UNL     1      -7.601   7.458  71.310  1.00  0.00    -0.082 C  
BRANCH  23  24
HETATM   24  O   UNL     1      -7.751   7.109  72.682  1.00  0.00    -0.087 OA 
BRANCH  24  25
HETATM   25  C   UNL     1      -8.723   7.941  73.310  1.00  0.00    -0.236 C  
BRANCH  25  26
HETATM   26  C   UNL     1      -9.624   7.098  74.197  1.00  0.00    -0.232 C  
BRANCH  26  27
HETATM   27  O   UNL     1      -9.607   5.751  73.723  1.00  0.00    -0.138 OA 
BRANCH  27  28
HETATM   28  C   UNL     1     -10.860   5.381  73.167  1.00  0.00    -0.285 C  
BRANCH  28  29
HETATM   29  C   UNL     1     -10.817   5.615  71.681  1.00  0.00    -0.301 A  
HETATM   30  C   UNL     1     -10.149   4.725  70.821  1.00  0.00    -0.216 A  
HETATM   31 CL   UNL     1      -9.281   3.349  71.409  1.00  0.00    -0.179 Cl 
HETATM   32  C   UNL     1     -10.156   4.920  69.433  1.00  0.00    -0.270 A  
HETATM   33  C   UNL     1     -10.808   6.018  68.882  1.00  0.00    -0.400 A  
HETATM   34  C   UNL     1     -11.429   6.939  69.719  1.00  0.00    -0.247 A  
HETATM   35  C   UNL     1     -11.424   6.746  71.107  1.00  0.00    -0.314 A  
HETATM   36 CL   UNL     1     -12.196   7.964  72.064  1.00  0.00    -0.337 Cl 
ENDBRANCH  28  29
ENDBRANCH  27  28
ENDBRANCH  26  27
ENDBRANCH  25  26
ENDBRANCH  24  25
ENDBRANCH  23  24
ENDBRANCH  22  23
ENDBRANCH  21  22
ENDBRANCH  20  21
ENDBRANCH  19  20
ENDBRANCH  18  19
ENDBRANCH  16  18
ENDBRANCH  15  16
ENDBRANCH  12  15
ENDBRANCH  10  12
ENDBRANCH   2   4
TORSDOF 16
ENDMDL
MODEL      211
REMARK 921   NORMALIZED FREE ENERGY PREDICTED BY IDOCK:   -4.74 KCAL/MOL
REMARK 922        TOTAL FREE ENERGY PREDICTED BY IDOCK:  -11.24 KCAL/MOL
REMARK 923 INTER-LIGAND FREE ENERGY PREDICTED BY IDOCK:   -9.98 KCAL/MOL
REMARK 924 INTRA-LIGAND FREE ENERGY PREDICTED BY IDOCK:   -1.26 KCAL/MOL
REMARK 927      BINDING AFFINITY PREDICTED BY RF-SCORE:    0.00 PKD
ROOT
HETATM    1  O   UNL     1      -8.884   4.180  73.507  1.00  0.00    -0.094 OA 
HETATM    2  C   UNL     1     -10.305   4.222  73.363  1.00  0.00    -0.171 C  
HETATM    3  H   UNL     1      -8.635   3.703  74.290  1.00  0.00     0.000 HD 
ENDROOT
BRANCH   2   4
HETATM    4  C   UNL     1     -10.700   4.978  72.121  1.00  0.00    -0.227 A  
HETATM    5  C   UNL     1     -10.139   4.735  70.862  1.00  0.00    -0.205 A  
HETATM    6  O   UNL     1      -9.235   3.731  70.656  1.00  0.00    -0.104 OA 
HETATM    7  C   UNL     1     -10.481   5.506  69.754  1.00  0.00    -0.389 A  
HETATM    8  C   UNL     1     -11.405   6.540  69.885  1.00  0.00    -0.469 A  
HETATM    9  H   UNL     1      -8.855   3.566  69.802  1.00  0.00     0.000 HD 
HETATM   10  C   UNL     1     -11.991   6.815  71.129  1.00  0.00    -0.421 A  
HETATM   11  C   UNL     1     -11.618   6.036  72.239  1.00  0.00    -0.359 A  
BRANCH  10  12
HETATM   12  C   UNL     1     -12.941   7.986  71.266  1.00  0.00    -0.179 C  
HETATM   13  O   UNL     1     -13.677   7.885  72.493  1.00  0.00    -0.517 OA 
HETATM   14  H   UNL     1     -14.273   8.620  72.579  1.00  0.00     0.000 HD 
BRANCH  12  15
HETATM   15  C   UNL     1     -12.160   9.317  71.239  1.00  0.00    -0.337 C  
BRANCH  15  16
HETATM   16  N   UNL     1     -12.374  10.039  69.974  1.00  0.00    -0.501 NA 
HETATM   17  H   UNL     1     -13.050  10.796  70.076  1.00  0.00     0.000 HD 
BRANCH  16  18
HETATM   18  C   UNL     1     -11.100  10.513  69.444  1.00  0.00    -0.258 C  
BRANCH  18  19
HETATM   19  C   UNL     1     -11.209  10.741  67.939  1.00  0.00    -0.386 C  
BRANCH  19  20
HETATM   20  C   UNL     1      -9.832  11.052  67.352  1.00  0.00    -0.197 C  
BRANCH  20  21
HETATM   21  C   UNL     1      -9.943  11.991  66.157  1.00  0.00    -0.254 C  
BRANCH  21  22
HETATM   22  C   UNL     1     -10.879  11.423  65.094  1.00  0.00    -0.302 C  
BRANCH  22  23
HETATM   23  C   UNL     1     -11.390  12.529  64.185  1.00  0.00    -0.380 C  
BRANCH  23  24
HETATM   24  O   UNL     1     -12.051  13.508  64.981  1.00  0.00    -0.360 OA 
BRANCH  24  25
HETATM   25  C   UNL     1     -11.818  14.817  64.466  1.00  0.00    -0.419 C  
BRANCH  25  26
HETATM   26  C   UNL     1     -10.426  15.282  64.861  1.00  0.00    -0.302 C  
BRANCH  26  27
HETATM   27  O   UNL     1     -10.480  16.669  65.193  1.00  0.00    -0.647 OA 
BRANCH  27  28
HETATM   28  C   UNL     1     -10.758  16.862  66.572  1.00  0.00    -0.087 C  
BRANCH  28  29
HETATM   29  C   UNL     1      -9.660  17.695  67.174  1.00  0.00    -0.278 A  
HETATM   30  C   UNL     1      -9.650  19.095  67.045  1.00  0.00    -0.322 A  
HETATM   31 CL   UNL     1     -10.853  19.947  66.137  1.00  0.00    -0.432 Cl 
HETATM   32  C   UNL     1      -8.653  19.871  67.651  1.00  0.00    -0.385 A  
HETATM   33  C   UNL     1      -7.634  19.261  68.376  1.00  0.00    -0.351 A  
HETATM   34  C   UNL     1      -7.594  17.874  68.470  1.00  0.00    -0.290 A  
HETATM   35  C   UNL     1      -8.590  17.097  67.865  1.00  0.00    -0.214 A  
HETATM   36 CL   UNL     1      -8.434  15.379  68.013  1.00  0.00    -0.145 Cl 
ENDBRANCH  28  29
ENDBRANCH  27  28
ENDBRANCH  26  27
ENDBRANCH  25  26
ENDBRANCH  24  25
ENDBRANCH  23  24
ENDBRANCH  22  23
ENDBRANCH  21  22
ENDBRANCH  20  21
ENDBRANCH  19  20
ENDBRANCH  18  19
ENDBRANCH  16  18
ENDBRANCH  15  16
ENDBRANCH  12  15
ENDBRANCH  10  12
ENDBRANCH   2   4
TORSDOF 16
ENDMDL
MODEL      212
REMARK 921   NORMALIZED FREE ENERGY PREDICTED BY IDOCK:   -4.73 KCAL/MOL
REMARK 922        TOTAL FREE ENERGY PREDICTED BY IDOCK:  -11.24 KCAL/MOL
REMARK 923 INTER-LIGAND FREE ENERGY PREDICTED BY IDOCK:   -9.45 KCAL/MOL
REMARK 924 INTRA-LIGAND FREE ENERGY PREDICTED BY IDOCK:   -1.79 KCAL/MOL
REMARK 927      BINDING AFFINITY PREDICTED BY RF-SCORE:    0.00 PKD
ROOT
HETATM    1  O   UNL     1     -12.974  14.796  69.903  1.00  0.00    -0.585 OA 
HETATM    2  C   UNL     1     -12.054  13.808  69.436  1.00  0.00    -0.328 C  
HETATM    3  H   UNL     1     -13.296  14.579  70.770  1.00  0.00     0.000 HD 
ENDROOT
BRANCH   2   4
HETATM    4  C   UNL     1     -11.543  14.153  68.061  1.00  0.00    -0.368 A  
HETATM    5  C   UNL     1     -10.420  14.957  67.836  1.00  0.00    -0.250 A  
HETATM    6  O   UNL     1      -9.655  15.432  68.865  1.00  0.00    -0.196 OA 
HETATM    7  C   UNL     1     -10.025  15.309  66.549  1.00  0.00    -0.278 A  
HETATM    8  C   UNL     1     -10.748  14.852  65.451  1.00  0.00    -0.391 A  
HETATM    9  H   UNL     1      -8.893  15.977  68.713  1.00  0.00     0.000 HD 
HETATM   10  C   UNL     1     -11.879  14.043  65.632  1.00  0.00    -0.384 A  
HETATM   11  C   UNL     1     -12.272  13.714  66.941  1.00  0.00    -0.398 A  
BRANCH  10  12
HETATM   12  C   UNL     1     -12.692  13.613  64.429  1.00  0.00    -0.037 C  
HETATM   13  O   UNL     1     -12.444  14.493  63.323  1.00  0.00    -1.010 OA 
HETATM   14  H   UNL     1     -12.954  14.223  62.569  1.00  0.00     0.000 HD 
BRANCH  12  15
HETATM   15  C   UNL     1     -12.336  12.166  64.030  1.00  0.00    -0.451 C  
BRANCH  15  16
HETATM   16  N   UNL     1     -11.313  12.139  62.970  1.00  0.00    -0.657 NA 
HETATM   17  H   UNL     1     -11.056  13.078  62.663  1.00  0.00     0.000 HD 
BRANCH  16  18
HETATM   18  C   UNL     1     -10.152  11.375  63.412  1.00  0.00    -0.405 C  
BRANCH  18  19
HETATM   19  C   UNL     1     -10.386  10.830  64.819  1.00  0.00    -0.380 C  
BRANCH  19  20
HETATM   20  C   UNL     1      -9.155  11.079  65.691  1.00  0.00    -0.223 C  
BRANCH  20  21
HETATM   21  C   UNL     1      -8.109   9.989  65.490  1.00  0.00    -0.137 C  
BRANCH  21  22
HETATM   22  C   UNL     1      -8.062   9.043  66.686  1.00  0.00    -0.107 C  
BRANCH  22  23
HETATM   23  C   UNL     1      -7.269   7.791  66.347  1.00  0.00    -0.075 C  
BRANCH  23  24
HETATM   24  O   UNL     1      -7.908   7.124  65.263  1.00  0.00    -0.106 OA 
BRANCH  24  25
HETATM   25  C   UNL     1      -8.049   5.732  65.541  1.00  0.00    -0.128 C  
BRANCH  25  26
HETATM   26  C   UNL     1      -7.633   5.451  66.975  1.00  0.00    -0.092 C  
BRANCH  26  27
HETATM   27  O   UNL     1      -8.287   4.263  67.421  1.00  0.00    -0.099 OA 
BRANCH  27  28
HETATM   28  C   UNL     1      -9.700   4.408  67.394  1.00  0.00    -0.174 C  
BRANCH  28  29
HETATM   29  C   UNL     1     -10.132   5.143  68.634  1.00  0.00    -0.220 A  
HETATM   30  C   UNL     1     -10.758   6.400  68.558  1.00  0.00    -0.288 A  
HETATM   31 CL   UNL     1     -11.014   7.214  67.053  1.00  0.00    -0.410 Cl 
HETATM   32  C   UNL     1     -11.205   7.056  69.713  1.00  0.00    -0.257 A  
HETATM   33  C   UNL     1     -11.013   6.481  70.965  1.00  0.00    -0.314 A  
HETATM   34  C   UNL     1     -10.348   5.264  71.066  1.00  0.00    -0.298 A  
HETATM   35  C   UNL     1      -9.900   4.606  69.913  1.00  0.00    -0.226 A  
HETATM   36 CL   UNL     1      -9.056   3.113  70.148  1.00  0.00    -0.175 Cl 
ENDBRANCH  28  29
ENDBRANCH  27  28
ENDBRANCH  26  27
ENDBRANCH  25  26
ENDBRANCH  24  25
ENDBRANCH  23  24
ENDBRANCH  22  23
ENDBRANCH  21  22
ENDBRANCH  20  21
ENDBRANCH  19  20
ENDBRANCH  18  19
ENDBRANCH  16  18
ENDBRANCH  15  16
ENDBRANCH  12  15
ENDBRANCH  10  12
ENDBRANCH   2   4
TORSDOF 16
ENDMDL
MODEL      213
REMARK 921   NORMALIZED FREE ENERGY PREDICTED BY IDOCK:   -4.73 KCAL/MOL
REMARK 922        TOTAL FREE ENERGY PREDICTED BY IDOCK:  -11.23 KCAL/MOL
REMARK 923 INTER-LIGAND FREE ENERGY PREDICTED BY IDOCK:   -9.50 KCAL/MOL
REMARK 924 INTRA-LIGAND FREE ENERGY PREDICTED BY IDOCK:   -1.73 KCAL/MOL
REMARK 927      BINDING AFFINITY PREDICTED BY RF-SCORE:    0.00 PKD
ROOT
HETATM    1  O   UNL     1     -12.055  16.442  63.798  1.00  0.00    -1.269 OA 
HETATM    2  C   UNL     1     -10.991  16.050  64.667  1.00  0.00    -0.278 C  
HETATM    3  H   UNL     1     -11.961  17.349  63.531  1.00  0.00     0.000 HD 
ENDROOT
BRANCH   2   4
HETATM    4  C   UNL     1     -11.140  14.611  65.089  1.00  0.00    -0.382 A  
HETATM    5  C   UNL     1     -11.854  13.662  64.348  1.00  0.00    -0.424 A  
HETATM    6  O   UNL     1     -12.412  13.963  63.137  1.00  0.00    -1.121 OA 
HETATM    7  C   UNL     1     -12.028  12.361  64.810  1.00  0.00    -0.462 A  
HETATM    8  C   UNL     1     -11.478  11.978  66.031  1.00  0.00    -0.399 A  
HETATM    9  H   UNL     1     -12.896  13.319  62.634  1.00  0.00     0.000 HD 
HETATM   10  C   UNL     1     -10.754  12.898  66.803  1.00  0.00    -0.276 A  
HETATM   11  C   UNL     1     -10.606  14.212  66.326  1.00  0.00    -0.284 A  
BRANCH  10  12
HETATM   12  C   UNL     1     -10.222  12.483  68.159  1.00  0.00    -0.231 C  
HETATM   13  O   UNL     1     -10.723  11.185  68.511  1.00  0.00    -0.178 OA 
HETATM   14  H   UNL     1     -10.389  10.925  69.362  1.00  0.00     0.000 HD 
BRANCH  12  15
HETATM   15  C   UNL     1      -8.680  12.456  68.145  1.00  0.00    -0.190 C  
BRANCH  15  16
HETATM   16  N   UNL     1      -8.163  12.056  66.826  1.00  0.00    -0.310 NA 
HETATM   17  H   UNL     1      -7.894  12.862  66.261  1.00  0.00     0.000 HD 
BRANCH  16  18
HETATM   18  C   UNL     1      -7.063  11.110  66.982  1.00  0.00    -0.124 C  
BRANCH  18  19
HETATM   19  C   UNL     1      -6.000  11.689  67.911  1.00  0.00    -0.047 C  
BRANCH  19  20
HETATM   20  C   UNL     1      -5.381  10.578  68.760  1.00  0.00    -0.041 C  
BRANCH  20  21
HETATM   21  C   UNL     1      -6.141  10.400  70.069  1.00  0.00    -0.083 C  
BRANCH  21  22
HETATM   22  C   UNL     1      -6.775   9.015  70.154  1.00  0.00    -0.047 C  
BRANCH  22  23
HETATM   23  C   UNL     1      -8.242   9.121  70.542  1.00  0.00    -0.180 C  
BRANCH  23  24
HETATM   24  O   UNL     1      -9.032   9.080  69.358  1.00  0.00    -0.139 OA 
BRANCH  24  25
HETATM   25  C   UNL     1      -8.780   7.883  68.625  1.00  0.00    -0.128 C  
BRANCH  25  26
HETATM   26  C   UNL     1     -10.094   7.191  68.305  1.00  0.00    -0.167 C  
BRANCH  26  27
HETATM   27  O   UNL     1     -11.059   7.555  69.294  1.00  0.00    -0.105 OA 
BRANCH  27  28
HETATM   28  C   UNL     1     -11.546   6.414  69.986  1.00  0.00    -0.377 C  
BRANCH  28  29
HETATM   29  C   UNL     1     -10.938   6.390  71.362  1.00  0.00    -0.316 A  
HETATM   30  C   UNL     1     -11.140   7.445  72.270  1.00  0.00    -0.266 A  
HETATM   31 CL   UNL     1     -12.038   8.864  71.851  1.00  0.00    -0.417 Cl 
HETATM   32  C   UNL     1     -10.614   7.393  73.568  1.00  0.00    -0.388 A  
HETATM   33  C   UNL     1      -9.858   6.299  73.975  1.00  0.00    -0.249 A  
HETATM   34  C   UNL     1      -9.601   5.270  73.075  1.00  0.00    -0.156 A  
HETATM   35  C   UNL     1     -10.125   5.319  71.777  1.00  0.00    -0.200 A  
HETATM   36 CL   UNL     1      -9.722   4.006  70.724  1.00  0.00    -0.263 Cl 
ENDBRANCH  28  29
ENDBRANCH  27  28
ENDBRANCH  26  27
ENDBRANCH  25  26
ENDBRANCH  24  25
ENDBRANCH  23  24
ENDBRANCH  22  23
ENDBRANCH  21  22
ENDBRANCH  20  21
ENDBRANCH  19  20
ENDBRANCH  18  19
ENDBRANCH  16  18
ENDBRANCH  15  16
ENDBRANCH  12  15
ENDBRANCH  10  12
ENDBRANCH   2   4
TORSDOF 16
ENDMDL
MODEL      214
REMARK 921   NORMALIZED FREE ENERGY PREDICTED BY IDOCK:   -4.72 KCAL/MOL
REMARK 922        TOTAL FREE ENERGY PREDICTED BY IDOCK:  -11.20 KCAL/MOL
REMARK 923 INTER-LIGAND FREE ENERGY PREDICTED BY IDOCK:   -9.13 KCAL/MOL
REMARK 924 INTRA-LIGAND FREE ENERGY PREDICTED BY IDOCK:   -2.07 KCAL/MOL
REMARK 927      BINDING AFFINITY PREDICTED BY RF-SCORE:    0.00 PKD
ROOT
HETATM    1  O   UNL     1      -6.361  12.295  66.486  1.00  0.00    -0.458 OA 
HETATM    2  C   UNL     1      -6.779  13.280  67.431  1.00  0.00    -0.073 C  
HETATM    3  H   UNL     1      -5.417  12.304  66.378  1.00  0.00     0.000 HD 
ENDROOT
BRANCH   2   4
HETATM    4  C   UNL     1      -8.276  13.264  67.602  1.00  0.00    -0.179 A  
HETATM    5  C   UNL     1      -8.945  12.370  68.446  1.00  0.00    -0.133 A  
HETATM    6  O   UNL     1      -8.270  11.484  69.239  1.00  0.00    -0.368 OA 
HETATM    7  C   UNL     1     -10.334  12.341  68.519  1.00  0.00    -0.234 A  
HETATM    8  C   UNL     1     -11.089  13.223  67.749  1.00  0.00    -0.289 A  
HETATM    9  H   UNL     1      -8.723  10.878  69.812  1.00  0.00     0.000 HD 
HETATM   10  C   UNL     1     -10.458  14.136  66.892  1.00  0.00    -0.272 A  
HETATM   11  C   UNL     1      -9.054  14.135  66.819  1.00  0.00    -0.266 A  
BRANCH  10  12
HETATM   12  C   UNL     1     -11.297  15.038  66.011  1.00  0.00    -0.270 C  
HETATM   13  O   UNL     1     -10.662  15.215  64.737  1.00  0.00    -0.523 OA 
HETATM   14  H   UNL     1     -11.188  15.781  64.184  1.00  0.00     0.000 HD 
BRANCH  12  15
HETATM   15  C   UNL     1     -12.703  14.435  65.809  1.00  0.00    -0.246 C  
BRANCH  15  16
HETATM   16  N   UNL     1     -12.821  13.780  64.496  1.00  0.00    -0.633 NA 
HETATM   17  H   UNL     1     -12.343  14.304  63.763  1.00  0.00     0.000 HD 
BRANCH  16  18
HETATM   18  C   UNL     1     -12.348  12.402  64.578  1.00  0.00    -0.438 C  
BRANCH  18  19
HETATM   19  C   UNL     1     -11.683  11.996  63.265  1.00  0.00    -0.425 C  
BRANCH  19  20
HETATM   20  C   UNL     1     -10.572  10.980  63.530  1.00  0.00    -0.303 C  
BRANCH  20  21
HETATM   21  C   UNL     1      -9.621  11.476  64.614  1.00  0.00    -0.186 C  
BRANCH  21  22
HETATM   22  C   UNL     1      -9.044  10.313  65.415  1.00  0.00    -0.221 C  
BRANCH  22  23
HETATM   23  C   UNL     1     -10.143   9.589  66.176  1.00  0.00    -0.256 C  
BRANCH  23  24
HETATM   24  O   UNL     1      -9.545   8.752  67.160  1.00  0.00    -0.156 OA 
BRANCH  24  25
HETATM   25  C   UNL     1      -9.637   7.381  66.778  1.00  0.00    -0.192 C  
BRANCH  25  26
HETATM   26  C   UNL     1     -10.831   6.737  67.464  1.00  0.00    -0.318 C  
BRANCH  26  27
HETATM   27  O   UNL     1     -10.873   7.176  68.822  1.00  0.00    -0.196 OA 
BRANCH  27  28
HETATM   28  C   UNL     1     -11.509   6.218  69.656  1.00  0.00    -0.355 C  
BRANCH  28  29
HETATM   29  C   UNL     1     -11.059   6.439  71.075  1.00  0.00    -0.349 A  
HETATM   30  C   UNL     1     -10.012   5.687  71.635  1.00  0.00    -0.174 A  
HETATM   31 CL   UNL     1      -9.217   4.420  70.765  1.00  0.00    -0.187 Cl 
HETATM   32  C   UNL     1      -9.563   5.933  72.940  1.00  0.00    -0.161 A  
HETATM   33  C   UNL     1     -10.167   6.916  73.716  1.00  0.00    -0.396 A  
HETATM   34  C   UNL     1     -11.240   7.634  73.200  1.00  0.00    -0.311 A  
HETATM   35  C   UNL     1     -11.691   7.391  71.896  1.00  0.00    -0.288 A  
HETATM   36 CL   UNL     1     -13.053   8.314  71.358  1.00  0.00    -0.277 Cl 
ENDBRANCH  28  29
ENDBRANCH  27  28
ENDBRANCH  26  27
ENDBRANCH  25  26
ENDBRANCH  24  25
ENDBRANCH  23  24
ENDBRANCH  22  23
ENDBRANCH  21  22
ENDBRANCH  20  21
ENDBRANCH  19  20
ENDBRANCH  18  19
ENDBRANCH  16  18
ENDBRANCH  15  16
ENDBRANCH  12  15
ENDBRANCH  10  12
ENDBRANCH   2   4
TORSDOF 16
ENDMDL
MODEL      215
REMARK 921   NORMALIZED FREE ENERGY PREDICTED BY IDOCK:   -4.72 KCAL/MOL
REMARK 922        TOTAL FREE ENERGY PREDICTED BY IDOCK:  -11.20 KCAL/MOL
REMARK 923 INTER-LIGAND FREE ENERGY PREDICTED BY IDOCK:  -10.34 KCAL/MOL
REMARK 924 INTRA-LIGAND FREE ENERGY PREDICTED BY IDOCK:   -0.86 KCAL/MOL
REMARK 927      BINDING AFFINITY PREDICTED BY RF-SCORE:    0.00 PKD
ROOT
HETATM    1  O   UNL     1     -10.424  18.137  67.353  1.00  0.00    -0.375 OA 
HETATM    2  C   UNL     1     -10.279  17.710  65.998  1.00  0.00    -0.297 C  
HETATM    3  H   UNL     1     -10.219  19.060  67.444  1.00  0.00     0.000 HD 
ENDROOT
BRANCH   2   4
HETATM    4  C   UNL     1     -10.605  16.246  65.855  1.00  0.00    -0.307 A  
HETATM    5  C   UNL     1     -11.256  15.708  64.739  1.00  0.00    -0.382 A  
HETATM    6  O   UNL     1     -11.581  16.474  63.654  1.00  0.00    -1.468 OA 
HETATM    7  C   UNL     1     -11.603  14.361  64.679  1.00  0.00    -0.414 A  
HETATM    8  C   UNL     1     -11.293  13.516  65.742  1.00  0.00    -0.318 A  
HETATM    9  H   UNL     1     -12.022  16.110  62.897  1.00  0.00     0.000 HD 
HETATM   10  C   UNL     1     -10.640  14.014  66.878  1.00  0.00    -0.280 A  
HETATM   11  C   UNL     1     -10.315  15.382  66.926  1.00  0.00    -0.277 A  
BRANCH  10  12
HETATM   12  C   UNL     1     -10.373  13.096  68.052  1.00  0.00    -0.238 C  
HETATM   13  O   UNL     1      -9.883  13.850  69.169  1.00  0.00    -0.425 OA 
HETATM   14  H   UNL     1      -9.716  13.273  69.906  1.00  0.00     0.000 HD 
BRANCH  12  15
HETATM   15  C   UNL     1     -11.664  12.353  68.455  1.00  0.00    -0.326 C  
BRANCH  15  16
HETATM   16  N   UNL     1     -11.641  11.973  69.878  1.00  0.00    -0.480 NA 
HETATM   17  H   UNL     1     -11.678  12.787  70.491  1.00  0.00     0.000 HD 
BRANCH  16  18
HETATM   18  C   UNL     1     -12.715  11.027  70.162  1.00  0.00    -0.135 C  
BRANCH  18  19
HETATM   19  C   UNL     1     -13.023  11.016  71.657  1.00  0.00    -0.561 C  
BRANCH  19  20
HETATM   20  C   UNL     1     -12.986   9.584  72.191  1.00  0.00    -0.497 C  
BRANCH  20  21
HETATM   21  C   UNL     1     -14.347   8.912  72.057  1.00  0.00    -0.406 C  
BRANCH  21  22
HETATM   22  C   UNL     1     -14.222   7.540  71.401  1.00  0.00    -0.523 C  
BRANCH  22  23
HETATM   23  C   UNL     1     -12.761   7.151  71.246  1.00  0.00    -0.366 C  
BRANCH  23  24
HETATM   24  O   UNL     1     -12.461   6.117  72.178  1.00  0.00    -0.262 OA 
BRANCH  24  25
HETATM   25  C   UNL     1     -11.095   5.721  72.068  1.00  0.00    -0.260 C  
BRANCH  25  26
HETATM   26  C   UNL     1     -10.698   5.652  70.603  1.00  0.00    -0.263 C  
BRANCH  26  27
HETATM   27  O   UNL     1      -9.471   6.359  70.424  1.00  0.00    -0.161 OA 
BRANCH  27  28
HETATM   28  C   UNL     1      -8.474   5.529  69.848  1.00  0.00    -0.116 C  
BRANCH  28  29
HETATM   29  C   UNL     1      -8.827   5.281  68.406  1.00  0.00    -0.105 A  
HETATM   30  C   UNL     1      -9.317   4.035  67.978  1.00  0.00    -0.169 A  
HETATM   31 CL   UNL     1      -9.485   2.689  69.053  1.00  0.00    -0.209 Cl 
HETATM   32  C   UNL     1      -9.693   3.826  66.644  1.00  0.00    -0.149 A  
HETATM   33  C   UNL     1      -9.563   4.848  65.710  1.00  0.00    -0.181 A  
HETATM   34  C   UNL     1      -9.029   6.072  66.102  1.00  0.00    -0.160 A  
HETATM   35  C   UNL     1      -8.653   6.283  67.434  1.00  0.00    -0.107 A  
HETATM   36 CL   UNL     1      -7.971   7.828  67.814  1.00  0.00    -0.122 Cl 
ENDBRANCH  28  29
ENDBRANCH  27  28
ENDBRANCH  26  27
ENDBRANCH  25  26
ENDBRANCH  24  25
ENDBRANCH  23  24
ENDBRANCH  22  23
ENDBRANCH  21  22
ENDBRANCH  20  21
ENDBRANCH  19  20
ENDBRANCH  18  19
ENDBRANCH  16  18
ENDBRANCH  15  16
ENDBRANCH  12  15
ENDBRANCH  10  12
ENDBRANCH   2   4
TORSDOF 16
ENDMDL
MODEL      216
REMARK 921   NORMALIZED FREE ENERGY PREDICTED BY IDOCK:   -4.70 KCAL/MOL
REMARK 922        TOTAL FREE ENERGY PREDICTED BY IDOCK:  -11.17 KCAL/MOL
REMARK 923 INTER-LIGAND FREE ENERGY PREDICTED BY IDOCK:   -9.27 KCAL/MOL
REMARK 924 INTRA-LIGAND FREE ENERGY PREDICTED BY IDOCK:   -1.91 KCAL/MOL
REMARK 927      BINDING AFFINITY PREDICTED BY RF-SCORE:    0.00 PKD
ROOT
HETATM    1  O   UNL     1     -10.314  20.431  68.535  1.00  0.00    -0.278 OA 
HETATM    2  C   UNL     1     -10.529  19.844  67.251  1.00  0.00    -0.421 C  
HETATM    3  H   UNL     1     -11.000  21.053  68.745  1.00  0.00     0.000 HD 
ENDROOT
BRANCH   2   4
HETATM    4  C   UNL     1      -9.440  18.858  66.918  1.00  0.00    -0.345 A  
HETATM    5  C   UNL     1      -8.103  19.224  66.726  1.00  0.00    -0.275 A  
HETATM    6  O   UNL     1      -7.674  20.511  66.902  1.00  0.00    -0.391 OA 
HETATM    7  C   UNL     1      -7.141  18.292  66.348  1.00  0.00    -0.271 A  
HETATM    8  C   UNL     1      -7.502  16.959  66.162  1.00  0.00    -0.194 A  
HETATM    9  H   UNL     1      -6.767  20.759  66.772  1.00  0.00     0.000 HD 
HETATM   10  C   UNL     1      -8.830  16.550  66.346  1.00  0.00    -0.345 A  
HETATM   11  C   UNL     1      -9.789  17.512  66.709  1.00  0.00    -0.306 A  
BRANCH  10  12
HETATM   12  C   UNL     1      -9.215  15.112  66.071  1.00  0.00    -0.238 C  
HETATM   13  O   UNL     1      -9.639  14.473  67.284  1.00  0.00    -0.217 OA 
HETATM   14  H   UNL     1      -9.881  13.571  67.112  1.00  0.00     0.000 HD 
BRANCH  12  15
HETATM   15  C   UNL     1     -10.352  15.050  65.029  1.00  0.00    -0.357 C  
BRANCH  15  16
HETATM   16  N   UNL     1     -10.322  13.784  64.278  1.00  0.00    -0.697 NA 
HETATM   17  H   UNL     1      -9.644  13.127  64.664  1.00  0.00     0.000 HD 
BRANCH  16  18
HETATM   18  C   UNL     1     -11.661  13.209  64.209  1.00  0.00    -0.392 C  
BRANCH  18  19
HETATM   19  C   UNL     1     -12.044  12.606  65.558  1.00  0.00    -0.515 C  
BRANCH  19  20
HETATM   20  C   UNL     1     -11.004  11.570  65.986  1.00  0.00    -0.316 C  
BRANCH  20  21
HETATM   21  C   UNL     1     -11.270  11.077  67.403  1.00  0.00    -0.355 C  
BRANCH  21  22
HETATM   22  C   UNL     1     -11.910  12.168  68.256  1.00  0.00    -0.361 C  
BRANCH  22  23
HETATM   23  C   UNL     1     -11.630  11.928  69.731  1.00  0.00    -0.286 C  
BRANCH  23  24
HETATM   24  O   UNL     1     -12.288  10.731  70.132  1.00  0.00    -0.315 OA 
BRANCH  24  25
HETATM   25  C   UNL     1     -11.846  10.323  71.425  1.00  0.00    -0.283 C  
BRANCH  25  26
HETATM   26  C   UNL     1     -11.199   8.950  71.336  1.00  0.00    -0.312 C  
BRANCH  26  27
HETATM   27  O   UNL     1      -9.832   9.109  70.957  1.00  0.00    -0.253 OA 
BRANCH  27  28
HETATM   28  C   UNL     1      -9.342   7.956  70.289  1.00  0.00    -0.159 C  
BRANCH  28  29
HETATM   29  C   UNL     1      -9.075   8.307  68.851  1.00  0.00    -0.147 A  
HETATM   30  C   UNL     1      -8.123   9.281  68.501  1.00  0.00    -0.106 A  
HETATM   31 CL   UNL     1      -7.246  10.184  69.690  1.00  0.00    -0.109 Cl 
HETATM   32  C   UNL     1      -7.841   9.568  67.159  1.00  0.00    -0.095 A  
HETATM   33  C   UNL     1      -8.522   8.906  66.143  1.00  0.00    -0.133 A  
HETATM   34  C   UNL     1      -9.506   7.978  66.467  1.00  0.00    -0.278 A  
HETATM   35  C   UNL     1      -9.789   7.689  67.809  1.00  0.00    -0.158 A  
HETATM   36 CL   UNL     1     -11.052   6.544  68.109  1.00  0.00    -0.358 Cl 
ENDBRANCH  28  29
ENDBRANCH  27  28
ENDBRANCH  26  27
ENDBRANCH  25  26
ENDBRANCH  24  25
ENDBRANCH  23  24
ENDBRANCH  22  23
ENDBRANCH  21  22
ENDBRANCH  20  21
ENDBRANCH  19  20
ENDBRANCH  18  19
ENDBRANCH  16  18
ENDBRANCH  15  16
ENDBRANCH  12  15
ENDBRANCH  10  12
ENDBRANCH   2   4
TORSDOF 16
ENDMDL
MODEL      217
REMARK 921   NORMALIZED FREE ENERGY PREDICTED BY IDOCK:   -4.70 KCAL/MOL
REMARK 922        TOTAL FREE ENERGY PREDICTED BY IDOCK:  -11.17 KCAL/MOL
REMARK 923 INTER-LIGAND FREE ENERGY PREDICTED BY IDOCK:   -8.62 KCAL/MOL
REMARK 924 INTRA-LIGAND FREE ENERGY PREDICTED BY IDOCK:   -2.56 KCAL/MOL
REMARK 927      BINDING AFFINITY PREDICTED BY RF-SCORE:    0.00 PKD
ROOT
HETATM    1  O   UNL     1     -12.891   6.141  72.387  1.00  0.00    -0.519 OA 
HETATM    2  C   UNL     1     -12.235   7.292  71.852  1.00  0.00    -0.313 C  
HETATM    3  H   UNL     1     -13.788   6.341  72.629  1.00  0.00     0.000 HD 
ENDROOT
BRANCH   2   4
HETATM    4  C   UNL     1     -10.813   6.974  71.468  1.00  0.00    -0.255 A  
HETATM    5  C   UNL     1      -9.892   7.943  71.057  1.00  0.00    -0.170 A  
HETATM    6  O   UNL     1     -10.203   9.275  71.045  1.00  0.00    -0.271 OA 
HETATM    7  C   UNL     1      -8.610   7.597  70.642  1.00  0.00    -0.135 A  
HETATM    8  C   UNL     1      -8.218   6.261  70.639  1.00  0.00    -0.125 A  
HETATM    9  H   UNL     1      -9.578   9.933  70.766  1.00  0.00     0.000 HD 
HETATM   10  C   UNL     1      -9.109   5.258  71.045  1.00  0.00    -0.171 A  
HETATM   11  C   UNL     1     -10.406   5.628  71.443  1.00  0.00    -0.287 A  
BRANCH  10  12
HETATM   12  C   UNL     1      -8.688   3.806  70.970  1.00  0.00    -0.078 C  
HETATM   13  O   UNL     1      -9.843   2.956  70.944  1.00  0.00    -0.132 OA 
HETATM   14  H   UNL     1      -9.579   2.044  70.896  1.00  0.00     0.000 HD 
BRANCH  12  15
HETATM   15  C   UNL     1      -7.836   3.559  69.707  1.00  0.00    -0.050 C  
BRANCH  15  16
HETATM   16  N   UNL     1      -8.679   3.455  68.504  1.00  0.00    -0.093 NA 
HETATM   17  H   UNL     1      -9.636   3.758  68.681  1.00  0.00     0.000 HD 
BRANCH  16  18
HETATM   18  C   UNL     1      -8.070   4.189  67.400  1.00  0.00    -0.099 C  
BRANCH  18  19
HETATM   19  C   UNL     1      -8.931   5.396  67.033  1.00  0.00    -0.112 C  
BRANCH  19  20
HETATM   20  C   UNL     1     -10.336   5.235  67.612  1.00  0.00    -0.208 C  
BRANCH  20  21
HETATM   21  C   UNL     1     -11.009   6.588  67.806  1.00  0.00    -0.407 C  
BRANCH  21  22
HETATM   22  C   UNL     1     -10.382   7.650  66.908  1.00  0.00    -0.388 C  
BRANCH  22  23
HETATM   23  C   UNL     1     -10.487   9.024  67.549  1.00  0.00    -0.272 C  
BRANCH  23  24
HETATM   24  O   UNL     1     -10.443  10.012  66.525  1.00  0.00    -0.215 OA 
BRANCH  24  25
HETATM   25  C   UNL     1     -10.762  11.298  67.052  1.00  0.00    -0.260 C  
BRANCH  25  26
HETATM   26  C   UNL     1      -9.867  11.602  68.242  1.00  0.00    -0.199 C  
BRANCH  26  27
HETATM   27  O   UNL     1     -10.430  12.689  68.977  1.00  0.00    -0.135 OA 
BRANCH  27  28
HETATM   28  C   UNL     1     -11.849  12.628  68.985  1.00  0.00    -0.294 C  
BRANCH  28  29
HETATM   29  C   UNL     1     -12.359  13.440  70.145  1.00  0.00    -0.322 A  
HETATM   30  C   UNL     1     -12.889  12.823  71.292  1.00  0.00    -0.262 A  
HETATM   31 CL   UNL     1     -13.053  11.105  71.424  1.00  0.00    -0.472 Cl 
HETATM   32  C   UNL     1     -13.314  13.582  72.390  1.00  0.00    -0.641 A  
HETATM   33  C   UNL     1     -13.241  14.971  72.353  1.00  0.00    -0.486 A  
HETATM   34  C   UNL     1     -12.771  15.603  71.208  1.00  0.00    -0.537 A  
HETATM   35  C   UNL     1     -12.344  14.846  70.108  1.00  0.00    -0.327 A  
HETATM   36 CL   UNL     1     -11.806  15.727  68.719  1.00  0.00    -0.383 Cl 
ENDBRANCH  28  29
ENDBRANCH  27  28
ENDBRANCH  26  27
ENDBRANCH  25  26
ENDBRANCH  24  25
ENDBRANCH  23  24
ENDBRANCH  22  23
ENDBRANCH  21  22
ENDBRANCH  20  21
ENDBRANCH  19  20
ENDBRANCH  18  19
ENDBRANCH  16  18
ENDBRANCH  15  16
ENDBRANCH  12  15
ENDBRANCH  10  12
ENDBRANCH   2   4
TORSDOF 16
ENDMDL
MODEL      218
REMARK 921   NORMALIZED FREE ENERGY PREDICTED BY IDOCK:   -4.70 KCAL/MOL
REMARK 922        TOTAL FREE ENERGY PREDICTED BY IDOCK:  -11.16 KCAL/MOL
REMARK 923 INTER-LIGAND FREE ENERGY PREDICTED BY IDOCK:   -9.05 KCAL/MOL
REMARK 924 INTRA-LIGAND FREE ENERGY PREDICTED BY IDOCK:   -2.11 KCAL/MOL
REMARK 927      BINDING AFFINITY PREDICTED BY RF-SCORE:    0.00 PKD
ROOT
HETATM    1  O   UNL     1      -9.447   1.625  66.708  1.00  0.00    -0.349 OA 
HETATM    2  C   UNL     1      -9.017   2.814  66.045  1.00  0.00    -0.142 C  
HETATM    3  H   UNL     1      -9.101   0.851  66.279  1.00  0.00     0.000 HD 
ENDROOT
BRANCH   2   4
HETATM    4  C   UNL     1      -9.566   4.041  66.725  1.00  0.00    -0.234 A  
HETATM    5  C   UNL     1     -10.625   4.797  66.211  1.00  0.00    -0.198 A  
HETATM    6  O   UNL     1     -11.292   4.427  65.076  1.00  0.00    -1.040 OA 
HETATM    7  C   UNL     1     -11.055   5.965  66.834  1.00  0.00    -0.175 A  
HETATM    8  C   UNL     1     -10.431   6.398  68.002  1.00  0.00    -0.271 A  
HETATM    9  H   UNL     1     -12.010   4.939  64.726  1.00  0.00     0.000 HD 
HETATM   10  C   UNL     1      -9.367   5.669  68.552  1.00  0.00    -0.139 A  
HETATM   11  C   UNL     1      -8.937   4.502  67.896  1.00  0.00    -0.133 A  
BRANCH  10  12
HETATM   12  C   UNL     1      -8.658   6.193  69.783  1.00  0.00    -0.132 C  
HETATM   13  O   UNL     1      -7.509   6.963  69.402  1.00  0.00    -0.089 OA 
HETATM   14  H   UNL     1      -7.064   7.292  70.174  1.00  0.00     0.000 HD 
BRANCH  12  15
HETATM   15  C   UNL     1      -9.613   7.068  70.621  1.00  0.00    -0.165 C  
BRANCH  15  16
HETATM   16  N   UNL     1      -9.992   6.396  71.876  1.00  0.00    -0.175 NA 
HETATM   17  H   UNL     1      -9.201   6.302  72.513  1.00  0.00     0.000 HD 
BRANCH  16  18
HETATM   18  C   UNL     1     -11.114   7.091  72.498  1.00  0.00    -0.274 C  
BRANCH  18  19
HETATM   19  C   UNL     1     -12.355   6.980  71.617  1.00  0.00    -0.407 C  
BRANCH  19  20
HETATM   20  C   UNL     1     -13.121   8.303  71.618  1.00  0.00    -0.354 C  
BRANCH  20  21
HETATM   21  C   UNL     1     -12.167   9.490  71.677  1.00  0.00    -0.477 C  
BRANCH  21  22
HETATM   22  C   UNL     1     -12.929  10.811  71.678  1.00  0.00    -0.581 C  
BRANCH  22  23
HETATM   23  C   UNL     1     -12.245  11.825  70.775  1.00  0.00    -0.326 C  
BRANCH  23  24
HETATM   24  O   UNL     1     -12.426  11.428  69.420  1.00  0.00    -0.213 OA 
BRANCH  24  25
HETATM   25  C   UNL     1     -11.444  12.034  68.582  1.00  0.00    -0.297 C  
BRANCH  25  26
HETATM   26  C   UNL     1     -10.099  11.360  68.798  1.00  0.00    -0.188 C  
BRANCH  26  27
HETATM   27  O   UNL     1      -9.520  11.068  67.526  1.00  0.00    -0.162 OA 
BRANCH  27  28
HETATM   28  C   UNL     1     -10.335  10.176  66.779  1.00  0.00    -0.222 C  
BRANCH  28  29
HETATM   29  C   UNL     1      -9.878  10.192  65.345  1.00  0.00    -0.375 A  
HETATM   30  C   UNL     1     -10.450  11.068  64.406  1.00  0.00    -0.354 A  
HETATM   31 CL   UNL     1     -11.753  12.133  64.809  1.00  0.00    -0.403 Cl 
HETATM   32  C   UNL     1      -9.985  11.114  63.084  1.00  0.00    -0.393 A  
HETATM   33  C   UNL     1      -8.958  10.271  62.672  1.00  0.00    -0.272 A  
HETATM   34  C   UNL     1      -8.416   9.360  63.572  1.00  0.00    -0.202 A  
HETATM   35  C   UNL     1      -8.879   9.311  64.893  1.00  0.00    -0.193 A  
HETATM   36 CL   UNL     1      -8.162   8.121  65.926  1.00  0.00    -0.114 Cl 
ENDBRANCH  28  29
ENDBRANCH  27  28
ENDBRANCH  26  27
ENDBRANCH  25  26
ENDBRANCH  24  25
ENDBRANCH  23  24
ENDBRANCH  22  23
ENDBRANCH  21  22
ENDBRANCH  20  21
ENDBRANCH  19  20
ENDBRANCH  18  19
ENDBRANCH  16  18
ENDBRANCH  15  16
ENDBRANCH  12  15
ENDBRANCH  10  12
ENDBRANCH   2   4
TORSDOF 16
ENDMDL
MODEL      219
REMARK 921   NORMALIZED FREE ENERGY PREDICTED BY IDOCK:   -4.69 KCAL/MOL
REMARK 922        TOTAL FREE ENERGY PREDICTED BY IDOCK:  -11.14 KCAL/MOL
REMARK 923 INTER-LIGAND FREE ENERGY PREDICTED BY IDOCK:   -9.77 KCAL/MOL
REMARK 924 INTRA-LIGAND FREE ENERGY PREDICTED BY IDOCK:   -1.38 KCAL/MOL
REMARK 927      BINDING AFFINITY PREDICTED BY RF-SCORE:    0.00 PKD
ROOT
HETATM    1  O   UNL     1      -6.272  15.221  66.971  1.00  0.00    -0.232 OA 
HETATM    2  C   UNL     1      -7.308  16.204  66.997  1.00  0.00    -0.231 C  
HETATM    3  H   UNL     1      -5.415  15.629  66.939  1.00  0.00     0.000 HD 
ENDROOT
BRANCH   2   4
HETATM    4  C   UNL     1      -8.667  15.555  67.049  1.00  0.00    -0.258 A  
HETATM    5  C   UNL     1      -9.024  14.591  67.998  1.00  0.00    -0.180 A  
HETATM    6  O   UNL     1      -8.176  14.220  69.004  1.00  0.00    -0.291 OA 
HETATM    7  C   UNL     1     -10.267  13.965  67.966  1.00  0.00    -0.246 A  
HETATM    8  C   UNL     1     -11.189  14.301  66.977  1.00  0.00    -0.332 A  
HETATM    9  H   UNL     1      -8.418  13.566  69.648  1.00  0.00     0.000 HD 
HETATM   10  C   UNL     1     -10.871  15.263  66.008  1.00  0.00    -0.331 A  
HETATM   11  C   UNL     1      -9.604  15.871  66.048  1.00  0.00    -0.385 A  
BRANCH  10  12
HETATM   12  C   UNL     1     -11.859  15.565  64.901  1.00  0.00    -0.028 C  
HETATM   13  O   UNL     1     -11.165  15.988  63.719  1.00  0.00    -0.969 OA 
HETATM   14  H   UNL     1     -11.785  16.177  63.024  1.00  0.00     0.000 HD 
BRANCH  12  15
HETATM   15  C   UNL     1     -12.708  14.316  64.583  1.00  0.00    -0.113 C  
BRANCH  15  16
HETATM   16  N   UNL     1     -12.321  13.720  63.293  1.00  0.00    -1.124 NA 
HETATM   17  H   UNL     1     -11.559  14.231  62.849  1.00  0.00     0.000 HD 
BRANCH  16  18
HETATM   18  C   UNL     1     -12.000  12.307  63.469  1.00  0.00    -0.533 C  
BRANCH  18  19
HETATM   19  C   UNL     1     -10.487  12.117  63.533  1.00  0.00    -0.490 C  
BRANCH  19  20
HETATM   20  C   UNL     1     -10.143  10.930  64.433  1.00  0.00    -0.402 C  
BRANCH  20  21
HETATM   21  C   UNL     1     -10.478  11.228  65.889  1.00  0.00    -0.314 C  
BRANCH  21  22
HETATM   22  C   UNL     1      -9.749  10.275  66.830  1.00  0.00    -0.231 C  
BRANCH  22  23
HETATM   23  C   UNL     1     -10.546   8.995  67.019  1.00  0.00    -0.200 C  
BRANCH  23  24
HETATM   24  O   UNL     1     -10.386   8.549  68.362  1.00  0.00    -0.206 OA 
BRANCH  24  25
HETATM   25  C   UNL     1      -9.785   7.256  68.395  1.00  0.00    -0.148 C  
BRANCH  25  26
HETATM   26  C   UNL     1     -10.593   6.338  69.298  1.00  0.00    -0.273 C  
BRANCH  26  27
HETATM   27  O   UNL     1     -10.557   6.853  70.629  1.00  0.00    -0.215 OA 
BRANCH  27  28
HETATM   28  C   UNL     1      -9.404   6.403  71.327  1.00  0.00    -0.156 C  
BRANCH  28  29
HETATM   29  C   UNL     1      -9.787   5.224  72.179  1.00  0.00    -0.216 A  
HETATM   30  C   UNL     1     -10.240   5.393  73.499  1.00  0.00    -0.205 A  
HETATM   31 CL   UNL     1     -10.327   6.948  74.254  1.00  0.00    -0.301 Cl 
HETATM   32  C   UNL     1     -10.644   4.295  74.271  1.00  0.00    -0.307 A  
HETATM   33  C   UNL     1     -10.579   3.008  73.748  1.00  0.00    -0.264 A  
HETATM   34  C   UNL     1     -10.082   2.813  72.464  1.00  0.00    -0.235 A  
HETATM   35  C   UNL     1      -9.678   3.909  71.690  1.00  0.00    -0.170 A  
HETATM   36 CL   UNL     1      -9.045   3.560  70.117  1.00  0.00    -0.183 Cl 
ENDBRANCH  28  29
ENDBRANCH  27  28
ENDBRANCH  26  27
ENDBRANCH  25  26
ENDBRANCH  24  25
ENDBRANCH  23  24
ENDBRANCH  22  23
ENDBRANCH  21  22
ENDBRANCH  20  21
ENDBRANCH  19  20
ENDBRANCH  18  19
ENDBRANCH  16  18
ENDBRANCH  15  16
ENDBRANCH  12  15
ENDBRANCH  10  12
ENDBRANCH   2   4
TORSDOF 16
ENDMDL
MODEL      220
REMARK 921   NORMALIZED FREE ENERGY PREDICTED BY IDOCK:   -4.68 KCAL/MOL
REMARK 922        TOTAL FREE ENERGY PREDICTED BY IDOCK:  -11.13 KCAL/MOL
REMARK 923 INTER-LIGAND FREE ENERGY PREDICTED BY IDOCK:   -9.45 KCAL/MOL
REMARK 924 INTRA-LIGAND FREE ENERGY PREDICTED BY IDOCK:   -1.68 KCAL/MOL
REMARK 927      BINDING AFFINITY PREDICTED BY RF-SCORE:    0.00 PKD
ROOT
HETATM    1  O   UNL     1     -13.915  14.950  73.093  1.00  0.00    -0.497 OA 
HETATM    2  C   UNL     1     -13.264  13.761  72.644  1.00  0.00    -0.470 C  
HETATM    3  H   UNL     1     -14.437  14.781  73.868  1.00  0.00     0.000 HD 
ENDROOT
BRANCH   2   4
HETATM    4  C   UNL     1     -12.436  14.029  71.414  1.00  0.00    -0.438 A  
HETATM    5  C   UNL     1     -11.841  15.267  71.143  1.00  0.00    -0.348 A  
HETATM    6  O   UNL     1     -11.912  16.310  72.023  1.00  0.00    -0.519 OA 
HETATM    7  C   UNL     1     -11.143  15.493  69.960  1.00  0.00    -0.326 A  
HETATM    8  C   UNL     1     -11.019  14.473  69.021  1.00  0.00    -0.272 A  
HETATM    9  H   UNL     1     -11.509  17.150  71.839  1.00  0.00     0.000 HD 
HETATM   10  C   UNL     1     -11.598  13.218  69.254  1.00  0.00    -0.370 A  
HETATM   11  C   UNL     1     -12.314  13.015  70.448  1.00  0.00    -0.351 A  
BRANCH  10  12
HETATM   12  C   UNL     1     -11.511  12.143  68.191  1.00  0.00    -0.317 C  
HETATM   13  O   UNL     1     -12.305  11.009  68.567  1.00  0.00    -0.762 OA 
HETATM   14  H   UNL     1     -12.251  10.335  67.900  1.00  0.00     0.000 HD 
BRANCH  12  15
HETATM   15  C   UNL     1     -11.999  12.690  66.834  1.00  0.00    -0.275 C  
BRANCH  15  16
HETATM   16  N   UNL     1     -10.987  12.494  65.782  1.00  0.00    -0.283 NA 
HETATM   17  H   UNL     1     -10.670  11.526  65.733  1.00  0.00     0.000 HD 
BRANCH  16  18
HETATM   18  C   UNL     1     -11.498  12.966  64.499  1.00  0.00    -0.344 C  
BRANCH  18  19
HETATM   19  C   UNL     1     -10.714  12.330  63.355  1.00  0.00    -0.438 C  
BRANCH  19  20
HETATM   20  C   UNL     1     -10.283  10.914  63.736  1.00  0.00    -0.407 C  
BRANCH  20  21
HETATM   21  C   UNL     1      -9.522  10.245  62.597  1.00  0.00    -0.309 C  
BRANCH  21  22
HETATM   22  C   UNL     1      -8.014  10.343  62.809  1.00  0.00    -0.161 C  
BRANCH  22  23
HETATM   23  C   UNL     1      -7.654  10.011  64.248  1.00  0.00    -0.141 C  
BRANCH  23  24
HETATM   24  O   UNL     1      -7.262   8.644  64.319  1.00  0.00    -0.090 OA 
BRANCH  24  25
HETATM   25  C   UNL     1      -7.322   8.171  65.663  1.00  0.00    -0.076 C  
BRANCH  25  26
HETATM   26  C   UNL     1      -8.612   8.643  66.314  1.00  0.00    -0.137 C  
BRANCH  26  27
HETATM   27  O   UNL     1      -8.306   9.200  67.592  1.00  0.00    -0.115 OA 
BRANCH  27  28
HETATM   28  C   UNL     1      -7.858   8.202  68.498  1.00  0.00    -0.118 C  
BRANCH  28  29
HETATM   29  C   UNL     1      -9.056   7.484  69.056  1.00  0.00    -0.140 A  
HETATM   30  C   UNL     1      -9.944   8.121  69.940  1.00  0.00    -0.190 A  
HETATM   31 CL   UNL     1      -9.689   9.740  70.498  1.00  0.00    -0.269 Cl 
HETATM   32  C   UNL     1     -11.087   7.464  70.416  1.00  0.00    -0.284 A  
HETATM   33  C   UNL     1     -11.350   6.152  70.037  1.00  0.00    -0.443 A  
HETATM   34  C   UNL     1     -10.456   5.485  69.206  1.00  0.00    -0.336 A  
HETATM   35  C   UNL     1      -9.313   6.140  68.729  1.00  0.00    -0.123 A  
HETATM   36 CL   UNL     1      -8.247   5.215  67.727  1.00  0.00    -0.099 Cl 
ENDBRANCH  28  29
ENDBRANCH  27  28
ENDBRANCH  26  27
ENDBRANCH  25  26
ENDBRANCH  24  25
ENDBRANCH  23  24
ENDBRANCH  22  23
ENDBRANCH  21  22
ENDBRANCH  20  21
ENDBRANCH  19  20
ENDBRANCH  18  19
ENDBRANCH  16  18
ENDBRANCH  15  16
ENDBRANCH  12  15
ENDBRANCH  10  12
ENDBRANCH   2   4
TORSDOF 16
ENDMDL
MODEL      221
REMARK 921   NORMALIZED FREE ENERGY PREDICTED BY IDOCK:   -4.64 KCAL/MOL
REMARK 922        TOTAL FREE ENERGY PREDICTED BY IDOCK:  -11.06 KCAL/MOL
REMARK 923 INTER-LIGAND FREE ENERGY PREDICTED BY IDOCK:   -9.61 KCAL/MOL
REMARK 924 INTRA-LIGAND FREE ENERGY PREDICTED BY IDOCK:   -1.45 KCAL/MOL
REMARK 927      BINDING AFFINITY PREDICTED BY RF-SCORE:    0.00 PKD
ROOT
HETATM    1  O   UNL     1      -7.259   5.164  71.596  1.00  0.00    -0.070 OA 
HETATM    2  C   UNL     1      -8.265   5.973  72.207  1.00  0.00    -0.110 C  
HETATM    3  H   UNL     1      -6.813   4.629  72.242  1.00  0.00     0.000 HD 
ENDROOT
BRANCH   2   4
HETATM    4  C   UNL     1      -8.972   6.821  71.182  1.00  0.00    -0.147 A  
HETATM    5  C   UNL     1      -9.419   8.123  71.435  1.00  0.00    -0.166 A  
HETATM    6  O   UNL     1      -9.175   8.750  72.625  1.00  0.00    -0.327 OA 
HETATM    7  C   UNL     1     -10.132   8.844  70.483  1.00  0.00    -0.248 A  
HETATM    8  C   UNL     1     -10.408   8.274  69.242  1.00  0.00    -0.223 A  
HETATM    9  H   UNL     1      -9.478   9.633  72.798  1.00  0.00     0.000 HD 
HETATM   10  C   UNL     1      -9.977   6.973  68.947  1.00  0.00    -0.160 A  
HETATM   11  C   UNL     1      -9.274   6.255  69.930  1.00  0.00    -0.155 A  
BRANCH  10  12
HETATM   12  C   UNL     1     -10.345   6.346  67.619  1.00  0.00    -0.197 C  
HETATM   13  O   UNL     1     -11.661   6.760  67.224  1.00  0.00    -0.726 OA 
HETATM   14  H   UNL     1     -11.892   6.366  66.390  1.00  0.00     0.000 HD 
BRANCH  12  15
HETATM   15  C   UNL     1      -9.327   6.751  66.533  1.00  0.00    -0.161 C  
BRANCH  15  16
HETATM   16  N   UNL     1      -9.728   7.999  65.861  1.00  0.00    -0.430 NA 
HETATM   17  H   UNL     1     -10.394   8.535  66.418  1.00  0.00     0.000 HD 
BRANCH  16  18
HETATM   18  C   UNL     1      -8.549   8.785  65.515  1.00  0.00    -0.174 C  
BRANCH  18  19
HETATM   19  C   UNL     1      -8.877  10.275  65.566  1.00  0.00    -0.191 C  
BRANCH  19  20
HETATM   20  C   UNL     1     -10.272  10.526  64.994  1.00  0.00    -0.365 C  
BRANCH  20  21
HETATM   21  C   UNL     1     -10.193  11.191  63.625  1.00  0.00    -0.444 C  
BRANCH  21  22
HETATM   22  C   UNL     1     -11.030  12.466  63.582  1.00  0.00    -0.525 C  
BRANCH  22  23
HETATM   23  C   UNL     1     -12.513  12.131  63.567  1.00  0.00    -0.555 C  
BRANCH  23  24
HETATM   24  O   UNL     1     -13.114  12.659  64.745  1.00  0.00    -0.852 OA 
BRANCH  24  25
HETATM   25  C   UNL     1     -12.327  13.721  65.280  1.00  0.00    -0.464 C  
BRANCH  25  26
HETATM   26  C   UNL     1     -12.240  13.584  66.791  1.00  0.00    -0.340 C  
BRANCH  26  27
HETATM   27  O   UNL     1     -11.807  14.827  67.342  1.00  0.00    -0.377 OA 
BRANCH  27  28
HETATM   28  C   UNL     1     -10.896  15.489  66.476  1.00  0.00    -0.284 C  
BRANCH  28  29
HETATM   29  C   UNL     1      -9.751  16.019  67.294  1.00  0.00    -0.232 A  
HETATM   30  C   UNL     1      -9.672  17.378  67.646  1.00  0.00    -0.270 A  
HETATM   31 CL   UNL     1     -10.840  18.539  67.114  1.00  0.00    -0.385 Cl 
HETATM   32  C   UNL     1      -8.630  17.857  68.452  1.00  0.00    -0.296 A  
HETATM   33  C   UNL     1      -7.635  16.993  68.899  1.00  0.00    -0.233 A  
HETATM   34  C   UNL     1      -7.665  15.656  68.517  1.00  0.00    -0.131 A  
HETATM   35  C   UNL     1      -8.706  15.175  67.712  1.00  0.00    -0.166 A  
HETATM   36 CL   UNL     1      -8.635  13.504  67.265  1.00  0.00    -0.209 Cl 
ENDBRANCH  28  29
ENDBRANCH  27  28
ENDBRANCH  26  27
ENDBRANCH  25  26
ENDBRANCH  24  25
ENDBRANCH  23  24
ENDBRANCH  22  23
ENDBRANCH  21  22
ENDBRANCH  20  21
ENDBRANCH  19  20
ENDBRANCH  18  19
ENDBRANCH  16  18
ENDBRANCH  15  16
ENDBRANCH  12  15
ENDBRANCH  10  12
ENDBRANCH   2   4
TORSDOF 16
ENDMDL
MODEL      222
REMARK 921   NORMALIZED FREE ENERGY PREDICTED BY IDOCK:   -4.64 KCAL/MOL
REMARK 922        TOTAL FREE ENERGY PREDICTED BY IDOCK:  -11.06 KCAL/MOL
REMARK 923 INTER-LIGAND FREE ENERGY PREDICTED BY IDOCK:   -9.13 KCAL/MOL
REMARK 924 INTRA-LIGAND FREE ENERGY PREDICTED BY IDOCK:   -1.93 KCAL/MOL
REMARK 927      BINDING AFFINITY PREDICTED BY RF-SCORE:    0.00 PKD
ROOT
HETATM    1  O   UNL     1      -6.050  10.704  63.705  1.00  0.00    -0.340 OA 
HETATM    2  C   UNL     1      -5.879  10.138  65.004  1.00  0.00    -0.120 C  
HETATM    3  H   UNL     1      -5.499  11.470  63.591  1.00  0.00     0.000 HD 
ENDROOT
BRANCH   2   4
HETATM    4  C   UNL     1      -6.752   8.924  65.184  1.00  0.00    -0.072 A  
HETATM    5  C   UNL     1      -7.041   8.024  64.152  1.00  0.00    -0.079 A  
HETATM    6  O   UNL     1      -6.483   8.147  62.910  1.00  0.00    -0.084 OA 
HETATM    7  C   UNL     1      -7.911   6.954  64.343  1.00  0.00    -0.093 A  
HETATM    8  C   UNL     1      -8.509   6.758  65.586  1.00  0.00    -0.142 A  
HETATM    9  H   UNL     1      -6.678   7.536  62.210  1.00  0.00     0.000 HD 
HETATM   10  C   UNL     1      -8.245   7.636  66.647  1.00  0.00    -0.124 A  
HETATM   11  C   UNL     1      -7.377   8.720  66.427  1.00  0.00    -0.084 A  
BRANCH  10  12
HETATM   12  C   UNL     1      -8.957   7.446  67.970  1.00  0.00    -0.132 C  
HETATM   13  O   UNL     1      -9.072   8.701  68.654  1.00  0.00    -0.138 OA 
HETATM   14  H   UNL     1      -9.519   8.583  69.484  1.00  0.00     0.000 HD 
BRANCH  12  15
HETATM   15  C   UNL     1     -10.362   6.850  67.742  1.00  0.00    -0.203 C  
BRANCH  15  16
HETATM   16  N   UNL     1     -11.182   6.930  68.963  1.00  0.00    -0.505 NA 
HETATM   17  H   UNL     1     -12.169   7.077  68.751  1.00  0.00     0.000 HD 
BRANCH  16  18
HETATM   18  C   UNL     1     -10.972   5.745  69.787  1.00  0.00    -0.327 C  
BRANCH  18  19
HETATM   19  C   UNL     1     -10.276   6.127  71.090  1.00  0.00    -0.245 C  
BRANCH  19  20
HETATM   20  C   UNL     1     -11.313   6.469  72.160  1.00  0.00    -0.321 C  
BRANCH  20  21
HETATM   21  C   UNL     1     -10.922   7.730  72.922  1.00  0.00    -0.467 C  
BRANCH  21  22
HETATM   22  C   UNL     1     -10.934   8.952  72.010  1.00  0.00    -0.412 C  
BRANCH  22  23
HETATM   23  C   UNL     1     -12.339   9.223  71.496  1.00  0.00    -0.360 C  
BRANCH  23  24
HETATM   24  O   UNL     1     -12.582  10.625  71.546  1.00  0.00    -0.388 OA 
BRANCH  24  25
HETATM   25  C   UNL     1     -12.794  11.146  70.235  1.00  0.00    -0.060 C  
BRANCH  25  26
HETATM   26  C   UNL     1     -11.499  11.078  69.442  1.00  0.00    -0.294 C  
BRANCH  26  27
HETATM   27  O   UNL     1     -11.804  11.193  68.052  1.00  0.00    -0.582 OA 
BRANCH  27  28
HETATM   28  C   UNL     1     -10.696  11.693  67.318  1.00  0.00    -0.238 C  
BRANCH  28  29
HETATM   29  C   UNL     1     -11.201  12.306  66.040  1.00  0.00    -0.375 A  
HETATM   30  C   UNL     1     -10.979  11.690  64.796  1.00  0.00    -0.289 A  
HETATM   31 CL   UNL     1     -10.060  10.232  64.638  1.00  0.00    -0.391 Cl 
HETATM   32  C   UNL     1     -11.496  12.240  63.615  1.00  0.00    -0.572 A  
HETATM   33  C   UNL     1     -12.222  13.425  63.652  1.00  0.00    -0.480 A  
HETATM   34  C   UNL     1     -12.408  14.079  64.865  1.00  0.00    -0.447 A  
HETATM   35  C   UNL     1     -11.892  13.532  66.048  1.00  0.00    -0.379 A  
HETATM   36 CL   UNL     1     -12.148  14.437  67.501  1.00  0.00    -0.386 Cl 
ENDBRANCH  28  29
ENDBRANCH  27  28
ENDBRANCH  26  27
ENDBRANCH  25  26
ENDBRANCH  24  25
ENDBRANCH  23  24
ENDBRANCH  22  23
ENDBRANCH  21  22
ENDBRANCH  20  21
ENDBRANCH  19  20
ENDBRANCH  18  19
ENDBRANCH  16  18
ENDBRANCH  15  16
ENDBRANCH  12  15
ENDBRANCH  10  12
ENDBRANCH   2   4
TORSDOF 16
ENDMDL
MODEL      223
REMARK 921   NORMALIZED FREE ENERGY PREDICTED BY IDOCK:   -4.63 KCAL/MOL
REMARK 922        TOTAL FREE ENERGY PREDICTED BY IDOCK:  -11.04 KCAL/MOL
REMARK 923 INTER-LIGAND FREE ENERGY PREDICTED BY IDOCK:   -8.93 KCAL/MOL
REMARK 924 INTRA-LIGAND FREE ENERGY PREDICTED BY IDOCK:   -2.11 KCAL/MOL
REMARK 927      BINDING AFFINITY PREDICTED BY RF-SCORE:    0.00 PKD
ROOT
HETATM    1  O   UNL     1     -13.877   9.419  70.898  1.00  0.00    -0.558 OA 
HETATM    2  C   UNL     1     -12.700   9.763  71.632  1.00  0.00    -0.422 C  
HETATM    3  H   UNL     1     -14.632   9.364  71.471  1.00  0.00     0.000 HD 
ENDROOT
BRANCH   2   4
HETATM    4  C   UNL     1     -11.502   9.849  70.722  1.00  0.00    -0.433 A  
HETATM    5  C   UNL     1     -11.571  10.305  69.401  1.00  0.00    -0.146 A  
HETATM    6  O   UNL     1     -12.734  10.778  68.860  1.00  0.00    -0.647 OA 
HETATM    7  C   UNL     1     -10.452  10.300  68.572  1.00  0.00    -0.217 A  
HETATM    8  C   UNL     1      -9.230   9.843  69.058  1.00  0.00    -0.168 A  
HETATM    9  H   UNL     1     -12.780  11.087  67.963  1.00  0.00     0.000 HD 
HETATM   10  C   UNL     1      -9.118   9.380  70.376  1.00  0.00    -0.302 A  
HETATM   11  C   UNL     1     -10.264   9.376  71.191  1.00  0.00    -0.361 A  
BRANCH  10  12
HETATM   12  C   UNL     1      -7.797   8.823  70.865  1.00  0.00    -0.120 C  
HETATM   13  O   UNL     1      -7.665   7.449  70.476  1.00  0.00    -0.092 OA 
HETATM   14  H   UNL     1      -6.836   7.099  70.783  1.00  0.00     0.000 HD 
BRANCH  12  15
HETATM   15  C   UNL     1      -6.623   9.640  70.286  1.00  0.00    -0.091 C  
BRANCH  15  16
HETATM   16  N   UNL     1      -6.618  11.016  70.810  1.00  0.00    -0.429 NA 
HETATM   17  H   UNL     1      -7.052  11.076  71.731  1.00  0.00     0.000 HD 
BRANCH  16  18
HETATM   18  C   UNL     1      -5.259  11.548  70.812  1.00  0.00    -0.130 C  
BRANCH  18  19
HETATM   19  C   UNL     1      -5.291  13.072  70.876  1.00  0.00    -0.174 C  
BRANCH  19  20
HETATM   20  C   UNL     1      -6.125  13.630  69.723  1.00  0.00    -0.126 C  
BRANCH  20  21
HETATM   21  C   UNL     1      -6.661  15.018  70.053  1.00  0.00    -0.158 C  
BRANCH  21  22
HETATM   22  C   UNL     1      -7.137  15.739  68.795  1.00  0.00    -0.131 C  
BRANCH  22  23
HETATM   23  C   UNL     1      -8.481  16.407  69.038  1.00  0.00    -0.225 C  
BRANCH  23  24
HETATM   24  O   UNL     1      -9.335  15.488  69.711  1.00  0.00    -0.274 OA 
BRANCH  24  25
HETATM   25  C   UNL     1     -10.703  15.851  69.536  1.00  0.00    -0.288 C  
BRANCH  25  26
HETATM   26  C   UNL     1     -10.946  16.253  68.091  1.00  0.00    -0.343 C  
BRANCH  26  27
HETATM   27  O   UNL     1     -11.107  15.071  67.305  1.00  0.00    -0.318 OA 
BRANCH  27  28
HETATM   28  C   UNL     1     -10.180  15.034  66.230  1.00  0.00    -0.294 C  
BRANCH  28  29
HETATM   29  C   UNL     1     -10.425  13.787  65.425  1.00  0.00    -0.342 A  
HETATM   30  C   UNL     1      -9.661  12.624  65.628  1.00  0.00    -0.139 A  
HETATM   31 CL   UNL     1      -8.353  12.565  66.759  1.00  0.00    -0.093 Cl 
HETATM   32  C   UNL     1      -9.928  11.449  64.911  1.00  0.00    -0.311 A  
HETATM   33  C   UNL     1     -10.945  11.422  63.963  1.00  0.00    -0.428 A  
HETATM   34  C   UNL     1     -11.677  12.577  63.708  1.00  0.00    -0.564 A  
HETATM   35  C   UNL     1     -11.413  13.752  64.424  1.00  0.00    -0.372 A  
HETATM   36 CL   UNL     1     -12.357  15.143  64.011  1.00  0.00    -0.232 Cl 
ENDBRANCH  28  29
ENDBRANCH  27  28
ENDBRANCH  26  27
ENDBRANCH  25  26
ENDBRANCH  24  25
ENDBRANCH  23  24
ENDBRANCH  22  23
ENDBRANCH  21  22
ENDBRANCH  20  21
ENDBRANCH  19  20
ENDBRANCH  18  19
ENDBRANCH  16  18
ENDBRANCH  15  16
ENDBRANCH  12  15
ENDBRANCH  10  12
ENDBRANCH   2   4
TORSDOF 16
ENDMDL
MODEL      224
REMARK 921   NORMALIZED FREE ENERGY PREDICTED BY IDOCK:   -4.62 KCAL/MOL
REMARK 922        TOTAL FREE ENERGY PREDICTED BY IDOCK:  -11.02 KCAL/MOL
REMARK 923 INTER-LIGAND FREE ENERGY PREDICTED BY IDOCK:   -8.57 KCAL/MOL
REMARK 924 INTRA-LIGAND FREE ENERGY PREDICTED BY IDOCK:   -2.44 KCAL/MOL
REMARK 927      BINDING AFFINITY PREDICTED BY RF-SCORE:    0.00 PKD
ROOT
HETATM    1  O   UNL     1     -12.422  13.968  62.976  1.00  0.00    -1.101 OA 
HETATM    2  C   UNL     1     -12.309  12.567  63.229  1.00  0.00    -0.371 C  
HETATM    3  H   UNL     1     -12.671  14.133  62.075  1.00  0.00     0.000 HD 
ENDROOT
BRANCH   2   4
HETATM    4  C   UNL     1     -11.914  12.305  64.659  1.00  0.00    -0.437 A  
HETATM    5  C   UNL     1     -12.349  13.091  65.733  1.00  0.00    -0.416 A  
HETATM    6  O   UNL     1     -13.232  14.120  65.563  1.00  0.00    -0.688 OA 
HETATM    7  C   UNL     1     -11.902  12.858  67.030  1.00  0.00    -0.437 A  
HETATM    8  C   UNL     1     -11.010  11.818  67.282  1.00  0.00    -0.318 A  
HETATM    9  H   UNL     1     -13.527  14.653  66.292  1.00  0.00     0.000 HD 
HETATM   10  C   UNL     1     -10.551  11.007  66.235  1.00  0.00    -0.295 A  
HETATM   11  C   UNL     1     -11.001  11.271  64.928  1.00  0.00    -0.243 A  
BRANCH  10  12
HETATM   12  C   UNL     1      -9.529   9.926  66.517  1.00  0.00    -0.181 C  
HETATM   13  O   UNL     1     -10.168   8.779  67.093  1.00  0.00    -0.227 OA 
HETATM   14  H   UNL     1      -9.527   8.100  67.270  1.00  0.00     0.000 HD 
BRANCH  12  15
HETATM   15  C   UNL     1      -8.806   9.518  65.216  1.00  0.00    -0.184 C  
BRANCH  15  16
HETATM   16  N   UNL     1      -8.249   8.159  65.317  1.00  0.00    -0.142 NA 
HETATM   17  H   UNL     1      -8.246   7.680  64.416  1.00  0.00     0.000 HD 
BRANCH  16  18
HETATM   18  C   UNL     1      -6.918   8.205  65.914  1.00  0.00    -0.060 C  
BRANCH  18  19
HETATM   19  C   UNL     1      -6.575   6.855  66.538  1.00  0.00    -0.052 C  
BRANCH  19  20
HETATM   20  C   UNL     1      -7.084   6.796  67.978  1.00  0.00    -0.085 C  
BRANCH  20  21
HETATM   21  C   UNL     1      -8.009   5.603  68.185  1.00  0.00    -0.097 C  
BRANCH  21  22
HETATM   22  C   UNL     1      -8.760   5.711  69.509  1.00  0.00    -0.109 C  
BRANCH  22  23
HETATM   23  C   UNL     1      -8.145   4.789  70.550  1.00  0.00    -0.083 C  
BRANCH  23  24
HETATM   24  O   UNL     1      -9.058   4.647  71.633  1.00  0.00    -0.129 OA 
BRANCH  24  25
HETATM   25  C   UNL     1     -10.356   5.106  71.262  1.00  0.00    -0.205 C  
BRANCH  25  26
HETATM   26  C   UNL     1     -11.062   5.685  72.476  1.00  0.00    -0.276 C  
BRANCH  26  27
HETATM   27  O   UNL     1     -11.683   6.916  72.105  1.00  0.00    -0.279 OA 
BRANCH  27  28
HETATM   28  C   UNL     1     -11.118   8.014  72.806  1.00  0.00    -0.381 C  
BRANCH  28  29
HETATM   29  C   UNL     1      -9.889   8.475  72.069  1.00  0.00    -0.383 A  
HETATM   30  C   UNL     1      -9.985   9.268  70.913  1.00  0.00    -0.297 A  
HETATM   31 CL   UNL     1     -11.508   9.712  70.221  1.00  0.00    -0.296 Cl 
HETATM   32  C   UNL     1      -8.836   9.737  70.261  1.00  0.00    -0.188 A  
HETATM   33  C   UNL     1      -7.573   9.403  70.737  1.00  0.00    -0.138 A  
HETATM   34  C   UNL     1      -7.456   8.575  71.849  1.00  0.00    -0.127 A  
HETATM   35  C   UNL     1      -8.603   8.105  72.502  1.00  0.00    -0.194 A  
HETATM   36 CL   UNL     1      -8.352   7.055  73.855  1.00  0.00    -0.153 Cl 
ENDBRANCH  28  29
ENDBRANCH  27  28
ENDBRANCH  26  27
ENDBRANCH  25  26
ENDBRANCH  24  25
ENDBRANCH  23  24
ENDBRANCH  22  23
ENDBRANCH  21  22
ENDBRANCH  20  21
ENDBRANCH  19  20
ENDBRANCH  18  19
ENDBRANCH  16  18
ENDBRANCH  15  16
ENDBRANCH  12  15
ENDBRANCH  10  12
ENDBRANCH   2   4
TORSDOF 16
ENDMDL
MODEL      225
REMARK 921   NORMALIZED FREE ENERGY PREDICTED BY IDOCK:   -4.61 KCAL/MOL
REMARK 922        TOTAL FREE ENERGY PREDICTED BY IDOCK:  -11.00 KCAL/MOL
REMARK 923 INTER-LIGAND FREE ENERGY PREDICTED BY IDOCK:   -9.45 KCAL/MOL
REMARK 924 INTRA-LIGAND FREE ENERGY PREDICTED BY IDOCK:   -1.55 KCAL/MOL
REMARK 927      BINDING AFFINITY PREDICTED BY RF-SCORE:    0.00 PKD
ROOT
HETATM    1  O   UNL     1     -11.464   6.470  66.706  1.00  0.00    -0.774 OA 
HETATM    2  C   UNL     1     -10.698   6.910  67.828  1.00  0.00    -0.254 C  
HETATM    3  H   UNL     1     -11.799   5.591  66.845  1.00  0.00     0.000 HD 
ENDROOT
BRANCH   2   4
HETATM    4  C   UNL     1     -10.168   8.303  67.607  1.00  0.00    -0.294 A  
HETATM    5  C   UNL     1     -10.504   9.392  68.420  1.00  0.00    -0.218 A  
HETATM    6  O   UNL     1     -11.289   9.249  69.530  1.00  0.00    -0.435 OA 
HETATM    7  C   UNL     1     -10.049  10.677  68.137  1.00  0.00    -0.179 A  
HETATM    8  C   UNL     1      -9.234  10.897  67.030  1.00  0.00    -0.165 A  
HETATM    9  H   UNL     1     -11.517   9.987  70.081  1.00  0.00     0.000 HD 
HETATM   10  C   UNL     1      -8.873   9.833  66.191  1.00  0.00    -0.162 A  
HETATM   11  C   UNL     1      -9.358   8.546  66.484  1.00  0.00    -0.260 A  
BRANCH  10  12
HETATM   12  C   UNL     1      -8.043  10.104  64.953  1.00  0.00    -0.153 C  
HETATM   13  O   UNL     1      -6.647  10.098  65.282  1.00  0.00    -0.107 OA 
HETATM   14  H   UNL     1      -6.127  10.267  64.505  1.00  0.00     0.000 HD 
BRANCH  12  15
HETATM   15  C   UNL     1      -8.326   9.038  63.874  1.00  0.00    -0.176 C  
BRANCH  15  16
HETATM   16  N   UNL     1      -9.363   9.491  62.932  1.00  0.00    -0.547 NA 
HETATM   17  H   UNL     1     -10.282   9.115  63.165  1.00  0.00     0.000 HD 
BRANCH  16  18
HETATM   18  C   UNL     1      -9.373  10.948  62.859  1.00  0.00    -0.349 C  
BRANCH  18  19
HETATM   19  C   UNL     1     -10.782  11.477  63.112  1.00  0.00    -0.281 C  
BRANCH  19  20
HETATM   20  C   UNL     1     -10.751  12.569  64.181  1.00  0.00    -0.423 C  
BRANCH  20  21
HETATM   21  C   UNL     1     -11.900  12.405  65.168  1.00  0.00    -0.437 C  
BRANCH  21  22
HETATM   22  C   UNL     1     -12.242  13.730  65.841  1.00  0.00    -0.501 C  
BRANCH  22  23
HETATM   23  C   UNL     1     -11.624  14.892  65.081  1.00  0.00    -0.330 C  
BRANCH  23  24
HETATM   24  O   UNL     1     -10.640  15.507  65.905  1.00  0.00    -0.309 OA 
BRANCH  24  25
HETATM   25  C   UNL     1     -10.374  16.838  65.466  1.00  0.00    -0.215 C  
BRANCH  25  26
HETATM   26  C   UNL     1      -9.741  17.633  66.595  1.00  0.00    -0.301 C  
BRANCH  26  27
HETATM   27  O   UNL     1      -8.683  18.430  66.061  1.00  0.00    -0.499 OA 
BRANCH  27  28
HETATM   28  C   UNL     1      -7.429  17.774  66.183  1.00  0.00    -0.287 C  
BRANCH  28  29
HETATM   29  C   UNL     1      -6.816  18.147  67.505  1.00  0.00    -0.203 A  
HETATM   30  C   UNL     1      -6.636  17.194  68.523  1.00  0.00    -0.167 A  
HETATM   31 CL   UNL     1      -7.164  15.554  68.355  1.00  0.00    -0.112 Cl 
HETATM   32  C   UNL     1      -6.018  17.536  69.733  1.00  0.00    -0.245 A  
HETATM   33  C   UNL     1      -5.590  18.840  69.958  1.00  0.00    -0.245 A  
HETATM   34  C   UNL     1      -5.806  19.811  68.985  1.00  0.00    -0.272 A  
HETATM   35  C   UNL     1      -6.424  19.471  67.775  1.00  0.00    -0.222 A  
HETATM   36 CL   UNL     1      -6.677  20.756  66.643  1.00  0.00    -0.331 Cl 
ENDBRANCH  28  29
ENDBRANCH  27  28
ENDBRANCH  26  27
ENDBRANCH  25  26
ENDBRANCH  24  25
ENDBRANCH  23  24
ENDBRANCH  22  23
ENDBRANCH  21  22
ENDBRANCH  20  21
ENDBRANCH  19  20
ENDBRANCH  18  19
ENDBRANCH  16  18
ENDBRANCH  15  16
ENDBRANCH  12  15
ENDBRANCH  10  12
ENDBRANCH   2   4
TORSDOF 16
ENDMDL
MODEL      226
REMARK 921   NORMALIZED FREE ENERGY PREDICTED BY IDOCK:   -4.60 KCAL/MOL
REMARK 922        TOTAL FREE ENERGY PREDICTED BY IDOCK:  -10.98 KCAL/MOL
REMARK 923 INTER-LIGAND FREE ENERGY PREDICTED BY IDOCK:   -8.74 KCAL/MOL
REMARK 924 INTRA-LIGAND FREE ENERGY PREDICTED BY IDOCK:   -2.24 KCAL/MOL
REMARK 927      BINDING AFFINITY PREDICTED BY RF-SCORE:    0.00 PKD
ROOT
HETATM    1  O   UNL     1     -10.674   7.096  69.681  1.00  0.00    -0.229 OA 
HETATM    2  C   UNL     1      -9.408   7.352  69.072  1.00  0.00    -0.145 C  
HETATM    3  H   UNL     1     -10.645   6.309  70.212  1.00  0.00     0.000 HD 
ENDROOT
BRANCH   2   4
HETATM    4  C   UNL     1      -9.455   8.600  68.230  1.00  0.00    -0.150 A  
HETATM    5  C   UNL     1     -10.019   8.643  66.949  1.00  0.00    -0.260 A  
HETATM    6  O   UNL     1     -10.639   7.557  66.397  1.00  0.00    -0.449 OA 
HETATM    7  C   UNL     1      -9.977   9.799  66.176  1.00  0.00    -0.338 A  
HETATM    8  C   UNL     1      -9.372  10.949  66.678  1.00  0.00    -0.191 A  
HETATM    9  H   UNL     1     -11.022   7.586  65.529  1.00  0.00     0.000 HD 
HETATM   10  C   UNL     1      -8.797  10.949  67.956  1.00  0.00    -0.135 A  
HETATM   11  C   UNL     1      -8.834   9.765  68.714  1.00  0.00    -0.129 A  
BRANCH  10  12
HETATM   12  C   UNL     1      -8.083  12.187  68.457  1.00  0.00    -0.112 C  
HETATM   13  O   UNL     1      -6.868  11.822  69.126  1.00  0.00    -0.100 OA 
HETATM   14  H   UNL     1      -6.421  12.599  69.439  1.00  0.00     0.000 HD 
BRANCH  12  15
HETATM   15  C   UNL     1      -7.762  13.133  67.281  1.00  0.00    -0.098 C  
BRANCH  15  16
HETATM   16  N   UNL     1      -6.322  13.432  67.211  1.00  0.00    -0.454 NA 
HETATM   17  H   UNL     1      -5.940  13.256  66.282  1.00  0.00     0.000 HD 
BRANCH  16  18
HETATM   18  C   UNL     1      -6.071  14.800  67.653  1.00  0.00    -0.065 C  
BRANCH  18  19
HETATM   19  C   UNL     1      -7.219  15.710  67.225  1.00  0.00    -0.252 C  
BRANCH  19  20
HETATM   20  C   UNL     1      -6.670  16.989  66.596  1.00  0.00    -0.273 C  
BRANCH  20  21
HETATM   21  C   UNL     1      -7.790  17.834  66.001  1.00  0.00    -0.193 C  
BRANCH  21  22
HETATM   22  C   UNL     1      -7.748  19.262  66.536  1.00  0.00    -0.284 C  
BRANCH  22  23
HETATM   23  C   UNL     1      -8.924  19.521  67.464  1.00  0.00    -0.306 C  
BRANCH  23  24
HETATM   24  O   UNL     1      -8.822  18.652  68.587  1.00  0.00    -0.323 OA 
BRANCH  24  25
HETATM   25  C   UNL     1     -10.117  18.277  69.053  1.00  0.00    -0.260 C  
BRANCH  25  26
HETATM   26  C   UNL     1     -10.400  16.834  68.670  1.00  0.00    -0.318 C  
BRANCH  26  27
HETATM   27  O   UNL     1     -10.818  16.122  69.835  1.00  0.00    -0.313 OA 
BRANCH  27  28
HETATM   28  C   UNL     1     -12.168  15.693  69.724  1.00  0.00    -0.270 C  
BRANCH  28  29
HETATM   29  C   UNL     1     -12.231  14.219  70.017  1.00  0.00    -0.417 A  
HETATM   30  C   UNL     1     -11.869  13.265  69.049  1.00  0.00    -0.321 A  
HETATM   31 CL   UNL     1     -11.394  13.711  67.446  1.00  0.00    -0.323 Cl 
HETATM   32  C   UNL     1     -11.881  11.895  69.345  1.00  0.00    -0.389 A  
HETATM   33  C   UNL     1     -12.277  11.452  70.602  1.00  0.00    -0.484 A  
HETATM   34  C   UNL     1     -12.690  12.376  71.556  1.00  0.00    -0.333 A  
HETATM   35  C   UNL     1     -12.679  13.746  71.263  1.00  0.00    -0.371 A  
HETATM   36 CL   UNL     1     -13.242  14.812  72.506  1.00  0.00    -0.458 Cl 
ENDBRANCH  28  29
ENDBRANCH  27  28
ENDBRANCH  26  27
ENDBRANCH  25  26
ENDBRANCH  24  25
ENDBRANCH  23  24
ENDBRANCH  22  23
ENDBRANCH  21  22
ENDBRANCH  20  21
ENDBRANCH  19  20
ENDBRANCH  18  19
ENDBRANCH  16  18
ENDBRANCH  15  16
ENDBRANCH  12  15
ENDBRANCH  10  12
ENDBRANCH   2   4
TORSDOF 16
ENDMDL
MODEL      227
REMARK 921   NORMALIZED FREE ENERGY PREDICTED BY IDOCK:   -4.60 KCAL/MOL
REMARK 922        TOTAL FREE ENERGY PREDICTED BY IDOCK:  -10.97 KCAL/MOL
REMARK 923 INTER-LIGAND FREE ENERGY PREDICTED BY IDOCK:   -9.33 KCAL/MOL
REMARK 924 INTRA-LIGAND FREE ENERGY PREDICTED BY IDOCK:   -1.64 KCAL/MOL
REMARK 927      BINDING AFFINITY PREDICTED BY RF-SCORE:    0.00 PKD
ROOT
HETATM    1  O   UNL     1      -8.101   3.760  71.656  1.00  0.00    -0.064 OA 
HETATM    2  C   UNL     1      -9.492   3.605  71.941  1.00  0.00    -0.136 C  
HETATM    3  H   UNL     1      -7.607   3.002  71.945  1.00  0.00     0.000 HD 
ENDROOT
BRANCH   2   4
HETATM    4  C   UNL     1     -10.275   4.807  71.482  1.00  0.00    -0.246 A  
HETATM    5  C   UNL     1     -11.320   5.372  72.221  1.00  0.00    -0.134 A  
HETATM    6  O   UNL     1     -11.660   4.910  73.461  1.00  0.00    -0.439 OA 
HETATM    7  C   UNL     1     -12.065   6.439  71.726  1.00  0.00    -0.351 A  
HETATM    8  C   UNL     1     -11.769   6.972  70.473  1.00  0.00    -0.359 A  
HETATM    9  H   UNL     1     -12.369   5.293  73.963  1.00  0.00     0.000 HD 
HETATM   10  C   UNL     1     -10.729   6.436  69.702  1.00  0.00    -0.339 A  
HETATM   11  C   UNL     1     -10.000   5.346  70.213  1.00  0.00    -0.298 A  
BRANCH  10  12
HETATM   12  C   UNL     1     -10.467   6.983  68.315  1.00  0.00    -0.202 C  
HETATM   13  O   UNL     1     -11.550   6.646  67.437  1.00  0.00    -0.727 OA 
HETATM   14  H   UNL     1     -11.385   6.989  66.566  1.00  0.00     0.000 HD 
BRANCH  12  15
HETATM   15  C   UNL     1     -10.300   8.516  68.365  1.00  0.00    -0.202 C  
BRANCH  15  16
HETATM   16  N   UNL     1      -9.250   8.909  69.320  1.00  0.00    -0.144 NA 
HETATM   17  H   UNL     1      -8.348   9.041  68.863  1.00  0.00     0.000 HD 
BRANCH  16  18
HETATM   18  C   UNL     1      -9.664  10.096  70.061  1.00  0.00    -0.093 C  
BRANCH  18  19
HETATM   19  C   UNL     1     -11.089  10.485  69.677  1.00  0.00    -0.338 C  
BRANCH  19  20
HETATM   20  C   UNL     1     -11.922  10.738  70.934  1.00  0.00    -0.438 C  
BRANCH  20  21
HETATM   21  C   UNL     1     -12.519  12.140  70.925  1.00  0.00    -0.374 C  
BRANCH  21  22
HETATM   22  C   UNL     1     -13.411  12.368  72.141  1.00  0.00    -0.508 C  
BRANCH  22  23
HETATM   23  C   UNL     1     -13.772  13.839  72.273  1.00  0.00    -0.575 C  
BRANCH  23  24
HETATM   24  O   UNL     1     -13.558  14.477  71.018  1.00  0.00    -0.359 OA 
BRANCH  24  25
HETATM   25  C   UNL     1     -12.592  15.518  71.141  1.00  0.00    -0.448 C  
BRANCH  25  26
HETATM   26  C   UNL     1     -12.125  15.949  69.760  1.00  0.00    -0.215 C  
BRANCH  26  27
HETATM   27  O   UNL     1     -10.698  15.976  69.743  1.00  0.00    -0.279 OA 
BRANCH  27  28
HETATM   28  C   UNL     1     -10.198  16.137  68.424  1.00  0.00    -0.240 C  
BRANCH  28  29
HETATM   29  C   UNL     1      -9.669  14.813  67.944  1.00  0.00    -0.211 A  
HETATM   30  C   UNL     1      -8.406  14.341  68.345  1.00  0.00    -0.164 A  
HETATM   31 CL   UNL     1      -7.352  15.270  69.355  1.00  0.00    -0.193 Cl 
HETATM   32  C   UNL     1      -7.941  13.084  67.936  1.00  0.00    -0.157 A  
HETATM   33  C   UNL     1      -8.716  12.287  67.100  1.00  0.00    -0.193 A  
HETATM   34  C   UNL     1      -9.944  12.757  66.648  1.00  0.00    -0.246 A  
HETATM   35  C   UNL     1     -10.412  14.013  67.056  1.00  0.00    -0.275 A  
HETATM   36 CL   UNL     1     -11.937  14.522  66.414  1.00  0.00    -0.385 Cl 
ENDBRANCH  28  29
ENDBRANCH  27  28
ENDBRANCH  26  27
ENDBRANCH  25  26
ENDBRANCH  24  25
ENDBRANCH  23  24
ENDBRANCH  22  23
ENDBRANCH  21  22
ENDBRANCH  20  21
ENDBRANCH  19  20
ENDBRANCH  18  19
ENDBRANCH  16  18
ENDBRANCH  15  16
ENDBRANCH  12  15
ENDBRANCH  10  12
ENDBRANCH   2   4
TORSDOF 16
ENDMDL
MODEL      228
REMARK 921   NORMALIZED FREE ENERGY PREDICTED BY IDOCK:   -4.59 KCAL/MOL
REMARK 922        TOTAL FREE ENERGY PREDICTED BY IDOCK:  -10.95 KCAL/MOL
REMARK 923 INTER-LIGAND FREE ENERGY PREDICTED BY IDOCK:   -9.93 KCAL/MOL
REMARK 924 INTRA-LIGAND FREE ENERGY PREDICTED BY IDOCK:   -1.02 KCAL/MOL
REMARK 927      BINDING AFFINITY PREDICTED BY RF-SCORE:    0.00 PKD
ROOT
HETATM    1  O   UNL     1     -11.589  16.307  63.705  1.00  0.00    -1.539 OA 
HETATM    2  C   UNL     1     -10.862  15.780  64.816  1.00  0.00    -0.344 C  
HETATM    3  H   UNL     1     -11.346  17.210  63.535  1.00  0.00     0.000 HD 
ENDROOT
BRANCH   2   4
HETATM    4  C   UNL     1     -11.248  14.349  65.085  1.00  0.00    -0.359 A  
HETATM    5  C   UNL     1     -12.005  13.576  64.196  1.00  0.00    -0.448 A  
HETATM    6  O   UNL     1     -12.389  14.052  62.974  1.00  0.00    -1.101 OA 
HETATM    7  C   UNL     1     -12.401  12.281  64.516  1.00  0.00    -0.468 A  
HETATM    8  C   UNL     1     -12.036  11.725  65.740  1.00  0.00     0.192 A  
HETATM    9  H   UNL     1     -12.903  13.528  62.371  1.00  0.00     0.000 HD 
HETATM   10  C   UNL     1     -11.277  12.465  66.658  1.00  0.00    -0.366 A  
HETATM   11  C   UNL     1     -10.902  13.778  66.322  1.00  0.00    -0.283 A  
BRANCH  10  12
HETATM   12  C   UNL     1     -10.948  11.869  68.010  1.00  0.00    -0.224 C  
HETATM   13  O   UNL     1     -11.959  10.926  68.395  1.00  0.00    -0.701 OA 
HETATM   14  H   UNL     1     -11.753  10.552  69.243  1.00  0.00     0.000 HD 
BRANCH  12  15
HETATM   15  C   UNL     1      -9.575  11.167  67.968  1.00  0.00    -0.176 C  
BRANCH  15  16
HETATM   16  N   UNL     1      -9.290  10.627  66.628  1.00  0.00    -0.163 NA 
HETATM   17  H   UNL     1      -8.343  10.850  66.320  1.00  0.00     0.000 HD 
BRANCH  16  18
HETATM   18  C   UNL     1      -9.548   9.191  66.600  1.00  0.00    -0.203 C  
BRANCH  18  19
HETATM   19  C   UNL     1      -8.574   8.501  65.649  1.00  0.00    -0.200 C  
BRANCH  19  20
HETATM   20  C   UNL     1      -8.030   7.224  66.288  1.00  0.00    -0.110 C  
BRANCH  20  21
HETATM   21  C   UNL     1      -6.873   7.532  67.232  1.00  0.00    -0.071 C  
BRANCH  21  22
HETATM   22  C   UNL     1      -7.226   7.175  68.672  1.00  0.00    -0.094 C  
BRANCH  22  23
HETATM   23  C   UNL     1      -7.488   8.431  69.487  1.00  0.00    -0.088 C  
BRANCH  23  24
HETATM   24  O   UNL     1      -8.852   8.437  69.895  1.00  0.00    -0.134 OA 
BRANCH  24  25
HETATM   25  C   UNL     1      -8.993   9.055  71.172  1.00  0.00    -0.235 C  
BRANCH  25  26
HETATM   26  C   UNL     1      -9.883   8.199  72.059  1.00  0.00    -0.232 C  
BRANCH  26  27
HETATM   27  O   UNL     1     -11.211   8.221  71.537  1.00  0.00    -0.244 OA 
BRANCH  27  28
HETATM   28  C   UNL     1     -11.894   7.005  71.808  1.00  0.00    -0.312 C  
BRANCH  28  29
HETATM   29  C   UNL     1     -10.982   5.855  71.475  1.00  0.00    -0.323 A  
HETATM   30  C   UNL     1     -10.703   5.506  70.142  1.00  0.00    -0.278 A  
HETATM   31 CL   UNL     1     -11.433   6.322  68.801  1.00  0.00    -0.238 Cl 
HETATM   32  C   UNL     1      -9.812   4.467  69.838  1.00  0.00    -0.298 A  
HETATM   33  C   UNL     1      -9.204   3.744  70.858  1.00  0.00    -0.196 A  
HETATM   34  C   UNL     1      -9.508   4.038  72.183  1.00  0.00    -0.192 A  
HETATM   35  C   UNL     1     -10.398   5.076  72.490  1.00  0.00    -0.202 A  
HETATM   36 CL   UNL     1     -10.735   5.342  74.166  1.00  0.00    -0.298 Cl 
ENDBRANCH  28  29
ENDBRANCH  27  28
ENDBRANCH  26  27
ENDBRANCH  25  26
ENDBRANCH  24  25
ENDBRANCH  23  24
ENDBRANCH  22  23
ENDBRANCH  21  22
ENDBRANCH  20  21
ENDBRANCH  19  20
ENDBRANCH  18  19
ENDBRANCH  16  18
ENDBRANCH  15  16
ENDBRANCH  12  15
ENDBRANCH  10  12
ENDBRANCH   2   4
TORSDOF 16
ENDMDL
MODEL      229
REMARK 921   NORMALIZED FREE ENERGY PREDICTED BY IDOCK:   -4.59 KCAL/MOL
REMARK 922        TOTAL FREE ENERGY PREDICTED BY IDOCK:  -10.95 KCAL/MOL
REMARK 923 INTER-LIGAND FREE ENERGY PREDICTED BY IDOCK:   -8.79 KCAL/MOL
REMARK 924 INTRA-LIGAND FREE ENERGY PREDICTED BY IDOCK:   -2.16 KCAL/MOL
REMARK 927      BINDING AFFINITY PREDICTED BY RF-SCORE:    0.00 PKD
ROOT
HETATM    1  O   UNL     1      -7.293   4.855  71.465  1.00  0.00    -0.065 OA 
HETATM    2  C   UNL     1      -8.653   4.454  71.637  1.00  0.00    -0.113 C  
HETATM    3  H   UNL     1      -6.714   4.339  72.013  1.00  0.00     0.000 HD 
ENDROOT
BRANCH   2   4
HETATM    4  C   UNL     1      -9.572   5.273  70.768  1.00  0.00    -0.234 A  
HETATM    5  C   UNL     1     -10.670   5.985  71.265  1.00  0.00    -0.263 A  
HETATM    6  O   UNL     1     -10.945   6.045  72.603  1.00  0.00    -0.235 OA 
HETATM    7  C   UNL     1     -11.535   6.670  70.418  1.00  0.00    -0.444 A  
HETATM    8  C   UNL     1     -11.311   6.664  69.043  1.00  0.00    -0.235 A  
HETATM    9  H   UNL     1     -11.689   6.528  72.940  1.00  0.00     0.000 HD 
HETATM   10  C   UNL     1     -10.222   5.965  68.504  1.00  0.00    -0.240 A  
HETATM   11  C   UNL     1      -9.370   5.263  69.376  1.00  0.00    -0.172 A  
BRANCH  10  12
HETATM   12  C   UNL     1     -10.035   5.912  67.002  1.00  0.00    -0.166 C  
HETATM   13  O   UNL     1     -11.289   6.123  66.339  1.00  0.00    -0.715 OA 
HETATM   14  H   UNL     1     -11.172   6.091  65.397  1.00  0.00     0.000 HD 
BRANCH  12  15
HETATM   15  C   UNL     1      -9.023   6.986  66.550  1.00  0.00    -0.147 C  
BRANCH  15  16
HETATM   16  N   UNL     1      -9.707   8.161  65.984  1.00  0.00    -0.459 NA 
HETATM   17  H   UNL     1      -9.976   8.831  66.705  1.00  0.00     0.000 HD 
BRANCH  16  18
HETATM   18  C   UNL     1      -8.878   8.775  64.952  1.00  0.00    -0.074 C  
BRANCH  18  19
HETATM   19  C   UNL     1      -9.092  10.286  64.936  1.00  0.00    -0.250 C  
BRANCH  19  20
HETATM   20  C   UNL     1     -10.444  10.620  64.306  1.00  0.00    -0.221 C  
BRANCH  20  21
HETATM   21  C   UNL     1     -10.335  11.819  63.372  1.00  0.00    -0.481 C  
BRANCH  21  22
HETATM   22  C   UNL     1     -11.253  12.952  63.819  1.00  0.00    -0.452 C  
BRANCH  22  23
HETATM   23  C   UNL     1     -12.410  12.411  64.643  1.00  0.00    -0.441 C  
BRANCH  23  24
HETATM   24  O   UNL     1     -12.957  13.472  65.418  1.00  0.00    -0.656 OA 
BRANCH  24  25
HETATM   25  C   UNL     1     -11.931  14.363  65.849  1.00  0.00    -0.359 C  
BRANCH  25  26
HETATM   26  C   UNL     1     -11.867  14.374  67.367  1.00  0.00    -0.400 C  
BRANCH  26  27
HETATM   27  O   UNL     1     -10.526  14.099  67.774  1.00  0.00    -0.242 OA 
BRANCH  27  28
HETATM   28  C   UNL     1      -9.953  13.057  66.997  1.00  0.00    -0.242 C  
BRANCH  28  29
HETATM   29  C   UNL     1      -9.286  12.076  67.923  1.00  0.00    -0.190 A  
HETATM   30  C   UNL     1      -9.982  10.968  68.438  1.00  0.00    -0.186 A  
HETATM   31 CL   UNL     1     -11.657  10.692  68.102  1.00  0.00    -0.305 Cl 
HETATM   32  C   UNL     1      -9.341  10.030  69.259  1.00  0.00    -0.224 A  
HETATM   33  C   UNL     1      -8.002  10.194  69.599  1.00  0.00    -0.181 A  
HETATM   34  C   UNL     1      -7.311  11.312  69.144  1.00  0.00    -0.104 A  
HETATM   35  C   UNL     1      -7.949  12.251  68.324  1.00  0.00    -0.163 A  
HETATM   36 CL   UNL     1      -7.012  13.623  67.837  1.00  0.00    -0.134 Cl 
ENDBRANCH  28  29
ENDBRANCH  27  28
ENDBRANCH  26  27
ENDBRANCH  25  26
ENDBRANCH  24  25
ENDBRANCH  23  24
ENDBRANCH  22  23
ENDBRANCH  21  22
ENDBRANCH  20  21
ENDBRANCH  19  20
ENDBRANCH  18  19
ENDBRANCH  16  18
ENDBRANCH  15  16
ENDBRANCH  12  15
ENDBRANCH  10  12
ENDBRANCH   2   4
TORSDOF 16
ENDMDL
MODEL      230
REMARK 921   NORMALIZED FREE ENERGY PREDICTED BY IDOCK:   -4.57 KCAL/MOL
REMARK 922        TOTAL FREE ENERGY PREDICTED BY IDOCK:  -10.92 KCAL/MOL
REMARK 923 INTER-LIGAND FREE ENERGY PREDICTED BY IDOCK:   -9.26 KCAL/MOL
REMARK 924 INTRA-LIGAND FREE ENERGY PREDICTED BY IDOCK:   -1.66 KCAL/MOL
REMARK 927      BINDING AFFINITY PREDICTED BY RF-SCORE:    0.00 PKD
ROOT
HETATM    1  O   UNL     1     -11.132  17.847  64.825  1.00  0.00    -0.785 OA 
HETATM    2  C   UNL     1     -10.839  18.975  65.652  1.00  0.00    -0.090 C  
HETATM    3  H   UNL     1     -11.884  18.017  64.271  1.00  0.00     0.000 HD 
ENDROOT
BRANCH   2   4
HETATM    4  C   UNL     1      -9.645  18.705  66.530  1.00  0.00    -0.351 A  
HETATM    5  C   UNL     1      -8.891  19.717  67.135  1.00  0.00    -0.312 A  
HETATM    6  O   UNL     1      -9.234  21.036  67.028  1.00  0.00    -0.646 OA 
HETATM    7  C   UNL     1      -7.752  19.427  67.881  1.00  0.00    -0.319 A  
HETATM    8  C   UNL     1      -7.347  18.104  68.045  1.00  0.00    -0.235 A  
HETATM    9  H   UNL     1      -8.723  21.722  67.438  1.00  0.00     0.000 HD 
HETATM   10  C   UNL     1      -8.075  17.060  67.457  1.00  0.00    -0.189 A  
HETATM   11  C   UNL     1      -9.212  17.377  66.692  1.00  0.00    -0.278 A  
BRANCH  10  12
HETATM   12  C   UNL     1      -7.581  15.635  67.588  1.00  0.00    -0.158 C  
HETATM   13  O   UNL     1      -6.220  15.540  67.145  1.00  0.00    -0.316 OA 
HETATM   14  H   UNL     1      -5.910  14.646  67.228  1.00  0.00     0.000 HD 
BRANCH  12  15
HETATM   15  C   UNL     1      -7.682  15.165  69.054  1.00  0.00    -0.177 C  
BRANCH  15  16
HETATM   16  N   UNL     1      -9.086  15.021  69.475  1.00  0.00    -0.438 NA 
HETATM   17  H   UNL     1      -9.549  15.924  69.575  1.00  0.00     0.000 HD 
BRANCH  16  18
HETATM   18  C   UNL     1      -9.798  14.142  68.554  1.00  0.00    -0.230 C  
BRANCH  18  19
HETATM   19  C   UNL     1     -11.298  14.198  68.828  1.00  0.00    -0.308 C  
BRANCH  19  20
HETATM   20  C   UNL     1     -11.565  14.916  70.151  1.00  0.00    -0.333 C  
BRANCH  20  21
HETATM   21  C   UNL     1     -12.448  14.074  71.065  1.00  0.00    -0.444 C  
BRANCH  21  22
HETATM   22  C   UNL     1     -12.367  12.595  70.701  1.00  0.00    -0.375 C  
BRANCH  22  23
HETATM   23  C   UNL     1     -13.120  11.751  71.717  1.00  0.00    -0.375 C  
BRANCH  23  24
HETATM   24  O   UNL     1     -13.101  10.394  71.289  1.00  0.00    -0.378 OA 
BRANCH  24  25
HETATM   25  C   UNL     1     -11.773   9.876  71.310  1.00  0.00    -0.392 C  
BRANCH  25  26
HETATM   26  C   UNL     1     -11.803   8.376  71.071  1.00  0.00    -0.252 C  
BRANCH  26  27
HETATM   27  O   UNL     1     -11.013   8.077  69.920  1.00  0.00    -0.242 OA 
BRANCH  27  28
HETATM   28  C   UNL     1     -10.042   9.086  69.682  1.00  0.00    -0.197 C  
BRANCH  28  29
HETATM   29  C   UNL     1      -9.654   9.050  68.229  1.00  0.00    -0.158 A  
HETATM   30  C   UNL     1     -10.354   9.799  67.267  1.00  0.00    -0.248 A  
HETATM   31 CL   UNL     1     -11.741  10.754  67.670  1.00  0.00    -0.104 Cl 
HETATM   32  C   UNL     1      -9.957   9.801  65.923  1.00  0.00    -0.345 A  
HETATM   33  C   UNL     1      -8.869   9.038  65.512  1.00  0.00    -0.233 A  
HETATM   34  C   UNL     1      -8.196   8.248  66.438  1.00  0.00    -0.107 A  
HETATM   35  C   UNL     1      -8.591   8.244  67.782  1.00  0.00    -0.131 A  
HETATM   36 CL   UNL     1      -7.710   7.204  68.849  1.00  0.00    -0.111 Cl 
ENDBRANCH  28  29
ENDBRANCH  27  28
ENDBRANCH  26  27
ENDBRANCH  25  26
ENDBRANCH  24  25
ENDBRANCH  23  24
ENDBRANCH  22  23
ENDBRANCH  21  22
ENDBRANCH  20  21
ENDBRANCH  19  20
ENDBRANCH  18  19
ENDBRANCH  16  18
ENDBRANCH  15  16
ENDBRANCH  12  15
ENDBRANCH  10  12
ENDBRANCH   2   4
TORSDOF 16
ENDMDL
MODEL      231
REMARK 921   NORMALIZED FREE ENERGY PREDICTED BY IDOCK:   -4.57 KCAL/MOL
REMARK 922        TOTAL FREE ENERGY PREDICTED BY IDOCK:  -10.92 KCAL/MOL
REMARK 923 INTER-LIGAND FREE ENERGY PREDICTED BY IDOCK:   -8.76 KCAL/MOL
REMARK 924 INTRA-LIGAND FREE ENERGY PREDICTED BY IDOCK:   -2.16 KCAL/MOL
REMARK 927      BINDING AFFINITY PREDICTED BY RF-SCORE:    0.00 PKD
ROOT
HETATM    1  O   UNL     1     -13.991   8.772  71.060  1.00  0.00    -0.595 OA 
HETATM    2  C   UNL     1     -12.783   9.272  71.635  1.00  0.00    -0.364 C  
HETATM    3  H   UNL     1     -14.711   9.375  71.200  1.00  0.00     0.000 HD 
ENDROOT
BRANCH   2   4
HETATM    4  C   UNL     1     -11.641   8.315  71.412  1.00  0.00    -0.322 A  
HETATM    5  C   UNL     1     -11.678   6.970  71.797  1.00  0.00    -0.298 A  
HETATM    6  O   UNL     1     -12.798   6.407  72.343  1.00  0.00    -0.543 OA 
HETATM    7  C   UNL     1     -10.574   6.138  71.638  1.00  0.00    -0.276 A  
HETATM    8  C   UNL     1      -9.402   6.640  71.077  1.00  0.00    -0.161 A  
HETATM    9  H   UNL     1     -12.823   5.494  72.604  1.00  0.00     0.000 HD 
HETATM   10  C   UNL     1      -9.323   7.981  70.677  1.00  0.00    -0.162 A  
HETATM   11  C   UNL     1     -10.445   8.809  70.863  1.00  0.00    -0.278 A  
BRANCH  10  12
HETATM   12  C   UNL     1      -8.019   8.525  70.133  1.00  0.00    -0.105 C  
HETATM   13  O   UNL     1      -7.750   7.966  68.840  1.00  0.00    -0.101 OA 
HETATM   14  H   UNL     1      -6.932   8.308  68.498  1.00  0.00     0.000 HD 
BRANCH  12  15
HETATM   15  C   UNL     1      -8.081  10.064  70.029  1.00  0.00    -0.136 C  
BRANCH  15  16
HETATM   16  N   UNL     1      -6.892  10.690  70.633  1.00  0.00    -0.457 NA 
HETATM   17  H   UNL     1      -6.169  10.005  70.850  1.00  0.00     0.000 HD 
BRANCH  16  18
HETATM   18  C   UNL     1      -6.393  11.755  69.770  1.00  0.00    -0.125 C  
BRANCH  18  19
HETATM   19  C   UNL     1      -7.213  11.818  68.485  1.00  0.00    -0.095 C  
BRANCH  19  20
HETATM   20  C   UNL     1      -8.024  13.114  68.441  1.00  0.00    -0.130 C  
BRANCH  20  21
HETATM   21  C   UNL     1      -7.163  14.314  68.818  1.00  0.00    -0.129 C  
BRANCH  21  22
HETATM   22  C   UNL     1      -7.031  15.287  67.650  1.00  0.00    -0.209 C  
BRANCH  22  23
HETATM   23  C   UNL     1      -7.831  16.552  67.915  1.00  0.00    -0.154 C  
BRANCH  23  24
HETATM   24  O   UNL     1      -8.768  16.293  68.955  1.00  0.00    -0.242 OA 
BRANCH  24  25
HETATM   25  C   UNL     1     -10.103  16.471  68.487  1.00  0.00    -0.255 C  
BRANCH  25  26
HETATM   26  C   UNL     1     -10.101  16.608  66.974  1.00  0.00    -0.281 C  
BRANCH  26  27
HETATM   27  O   UNL     1     -10.410  15.339  66.396  1.00  0.00    -0.271 OA 
BRANCH  27  28
HETATM   28  C   UNL     1     -11.641  14.831  66.891  1.00  0.00    -0.327 C  
BRANCH  28  29
HETATM   29  C   UNL     1     -11.478  13.363  67.176  1.00  0.00    -0.373 A  
HETATM   30  C   UNL     1     -11.153  12.452  66.156  1.00  0.00    -0.302 A  
HETATM   31 CL   UNL     1     -10.985  12.937  64.504  1.00  0.00    -0.351 Cl 
HETATM   32  C   UNL     1     -10.951  11.094  66.438  1.00  0.00    -0.248 A  
HETATM   33  C   UNL     1     -11.094  10.618  67.736  1.00  0.00    -0.385 A  
HETATM   34  C   UNL     1     -11.468  11.493  68.751  1.00  0.00    -0.349 A  
HETATM   35  C   UNL     1     -11.670  12.851  68.472  1.00  0.00    -0.339 A  
HETATM   36 CL   UNL     1     -12.164  13.851  69.796  1.00  0.00    -0.394 Cl 
ENDBRANCH  28  29
ENDBRANCH  27  28
ENDBRANCH  26  27
ENDBRANCH  25  26
ENDBRANCH  24  25
ENDBRANCH  23  24
ENDBRANCH  22  23
ENDBRANCH  21  22
ENDBRANCH  20  21
ENDBRANCH  19  20
ENDBRANCH  18  19
ENDBRANCH  16  18
ENDBRANCH  15  16
ENDBRANCH  12  15
ENDBRANCH  10  12
ENDBRANCH   2   4
TORSDOF 16
ENDMDL
MODEL      232
REMARK 921   NORMALIZED FREE ENERGY PREDICTED BY IDOCK:   -4.56 KCAL/MOL
REMARK 922        TOTAL FREE ENERGY PREDICTED BY IDOCK:  -10.90 KCAL/MOL
REMARK 923 INTER-LIGAND FREE ENERGY PREDICTED BY IDOCK:   -9.56 KCAL/MOL
REMARK 924 INTRA-LIGAND FREE ENERGY PREDICTED BY IDOCK:   -1.35 KCAL/MOL
REMARK 927      BINDING AFFINITY PREDICTED BY RF-SCORE:    0.00 PKD
ROOT
HETATM    1  O   UNL     1     -12.839  15.397  69.644  1.00  0.00    -0.609 OA 
HETATM    2  C   UNL     1     -11.532  14.925  69.314  1.00  0.00    -0.303 C  
HETATM    3  H   UNL     1     -12.987  15.363  70.582  1.00  0.00     0.000 HD 
ENDROOT
BRANCH   2   4
HETATM    4  C   UNL     1     -11.298  14.980  67.827  1.00  0.00    -0.340 A  
HETATM    5  C   UNL     1     -10.530  15.971  67.205  1.00  0.00    -0.308 A  
HETATM    6  O   UNL     1      -9.871  16.930  67.922  1.00  0.00    -0.251 OA 
HETATM    7  C   UNL     1     -10.399  16.026  65.820  1.00  0.00    -0.398 A  
HETATM    8  C   UNL     1     -11.032  15.075  65.024  1.00  0.00    -0.436 A  
HETATM    9  H   UNL     1      -9.350  17.603  67.501  1.00  0.00     0.000 HD 
HETATM   10  C   UNL     1     -11.809  14.064  65.607  1.00  0.00    -0.384 A  
HETATM   11  C   UNL     1     -11.944  14.038  67.007  1.00  0.00    -0.472 A  
BRANCH  10  12
HETATM   12  C   UNL     1     -12.545  13.081  64.722  1.00  0.00    -0.397 C  
HETATM   13  O   UNL     1     -12.733  13.637  63.413  1.00  0.00    -0.762 OA 
HETATM   14  H   UNL     1     -13.195  13.020  62.858  1.00  0.00     0.000 HD 
BRANCH  12  15
HETATM   15  C   UNL     1     -11.756  11.759  64.615  1.00  0.00    -0.164 C  
BRANCH  15  16
HETATM   16  N   UNL     1     -11.123  11.619  63.292  1.00  0.00    -0.726 NA 
HETATM   17  H   UNL     1     -10.765  12.508  62.944  1.00  0.00     0.000 HD 
BRANCH  16  18
HETATM   18  C   UNL     1     -10.086  10.594  63.338  1.00  0.00    -0.202 C  
BRANCH  18  19
HETATM   19  C   UNL     1      -9.737  10.263  64.787  1.00  0.00    -0.397 C  
BRANCH  19  20
HETATM   20  C   UNL     1      -8.249   9.937  64.909  1.00  0.00    -0.146 C  
BRANCH  20  21
HETATM   21  C   UNL     1      -8.024   8.434  65.023  1.00  0.00    -0.139 C  
BRANCH  21  22
HETATM   22  C   UNL     1      -8.074   7.978  66.478  1.00  0.00    -0.103 C  
BRANCH  22  23
HETATM   23  C   UNL     1      -8.310   6.478  66.562  1.00  0.00    -0.116 C  
BRANCH  23  24
HETATM   24  O   UNL     1      -9.690   6.217  66.331  1.00  0.00    -0.160 OA 
BRANCH  24  25
HETATM   25  C   UNL     1     -10.129   5.102  67.103  1.00  0.00    -0.206 C  
BRANCH  25  26
HETATM   26  C   UNL     1      -9.258   4.962  68.341  1.00  0.00    -0.124 C  
BRANCH  26  27
HETATM   27  O   UNL     1     -10.094   4.672  69.462  1.00  0.00    -0.222 OA 
BRANCH  27  28
HETATM   28  C   UNL     1     -11.033   5.712  69.691  1.00  0.00    -0.222 C  
BRANCH  28  29
HETATM   29  C   UNL     1     -10.439   6.691  70.668  1.00  0.00    -0.253 A  
HETATM   30  C   UNL     1     -10.199   6.334  72.006  1.00  0.00    -0.189 A  
HETATM   31 CL   UNL     1     -10.627   4.780  72.638  1.00  0.00    -0.265 Cl 
HETATM   32  C   UNL     1      -9.599   7.233  72.898  1.00  0.00    -0.206 A  
HETATM   33  C   UNL     1      -9.250   8.511  72.476  1.00  0.00    -0.303 A  
HETATM   34  C   UNL     1      -9.528   8.903  71.171  1.00  0.00    -0.335 A  
HETATM   35  C   UNL     1     -10.128   8.006  70.277  1.00  0.00    -0.192 A  
HETATM   36 CL   UNL     1     -10.461   8.599  68.686  1.00  0.00    -0.227 Cl 
ENDBRANCH  28  29
ENDBRANCH  27  28
ENDBRANCH  26  27
ENDBRANCH  25  26
ENDBRANCH  24  25
ENDBRANCH  23  24
ENDBRANCH  22  23
ENDBRANCH  21  22
ENDBRANCH  20  21
ENDBRANCH  19  20
ENDBRANCH  18  19
ENDBRANCH  16  18
ENDBRANCH  15  16
ENDBRANCH  12  15
ENDBRANCH  10  12
ENDBRANCH   2   4
TORSDOF 16
ENDMDL
MODEL      233
REMARK 921   NORMALIZED FREE ENERGY PREDICTED BY IDOCK:   -4.55 KCAL/MOL
REMARK 922        TOTAL FREE ENERGY PREDICTED BY IDOCK:  -10.88 KCAL/MOL
REMARK 923 INTER-LIGAND FREE ENERGY PREDICTED BY IDOCK:   -8.91 KCAL/MOL
REMARK 924 INTRA-LIGAND FREE ENERGY PREDICTED BY IDOCK:   -1.98 KCAL/MOL
REMARK 927      BINDING AFFINITY PREDICTED BY RF-SCORE:    0.00 PKD
ROOT
HETATM    1  O   UNL     1     -11.373   6.245  66.502  1.00  0.00    -0.732 OA 
HETATM    2  C   UNL     1     -10.075   6.338  67.090  1.00  0.00    -0.168 C  
HETATM    3  H   UNL     1     -11.733   5.372  66.604  1.00  0.00     0.000 HD 
ENDROOT
BRANCH   2   4
HETATM    4  C   UNL     1      -9.506   7.723  66.928  1.00  0.00    -0.238 A  
HETATM    5  C   UNL     1     -10.069   8.861  67.517  1.00  0.00    -0.227 A  
HETATM    6  O   UNL     1     -11.149   8.781  68.351  1.00  0.00    -0.445 OA 
HETATM    7  C   UNL     1      -9.553  10.132  67.283  1.00  0.00    -0.189 A  
HETATM    8  C   UNL     1      -8.445  10.289  66.453  1.00  0.00    -0.132 A  
HETATM    9  H   UNL     1     -11.532   9.553  68.751  1.00  0.00     0.000 HD 
HETATM   10  C   UNL     1      -7.850   9.175  65.845  1.00  0.00    -0.105 A  
HETATM   11  C   UNL     1      -8.398   7.902  66.080  1.00  0.00    -0.127 A  
BRANCH  10  12
HETATM   12  C   UNL     1      -6.690   9.374  64.891  1.00  0.00    -0.085 C  
HETATM   13  O   UNL     1      -5.805   8.246  64.947  1.00  0.00    -0.044 OA 
HETATM   14  H   UNL     1      -5.077   8.370  64.349  1.00  0.00     0.000 HD 
BRANCH  12  15
HETATM   15  C   UNL     1      -7.206   9.557  63.449  1.00  0.00    -0.107 C  
BRANCH  15  16
HETATM   16  N   UNL     1      -7.844  10.872  63.271  1.00  0.00    -0.358 NA 
HETATM   17  H   UNL     1      -7.326  11.464  62.622  1.00  0.00     0.000 HD 
BRANCH  16  18
HETATM   18  C   UNL     1      -9.235  10.704  62.863  1.00  0.00    -0.305 C  
BRANCH  18  19
HETATM   19  C   UNL     1     -10.061  11.909  63.303  1.00  0.00    -0.427 C  
BRANCH  19  20
HETATM   20  C   UNL     1     -11.207  11.459  64.209  1.00  0.00    -0.306 C  
BRANCH  20  21
HETATM   21  C   UNL     1     -12.173  12.605  64.485  1.00  0.00    -0.514 C  
BRANCH  21  22
HETATM   22  C   UNL     1     -12.284  12.885  65.980  1.00  0.00    -0.431 C  
BRANCH  22  23
HETATM   23  C   UNL     1     -10.977  13.444  66.519  1.00  0.00    -0.290 C  
BRANCH  23  24
HETATM   24  O   UNL     1     -10.941  13.248  67.929  1.00  0.00    -0.238 OA 
BRANCH  24  25
HETATM   25  C   UNL     1      -9.715  13.731  68.473  1.00  0.00    -0.193 C  
BRANCH  25  26
HETATM   26  C   UNL     1      -8.787  14.158  67.348  1.00  0.00    -0.206 C  
BRANCH  26  27
HETATM   27  O   UNL     1      -8.387  15.510  67.569  1.00  0.00    -0.156 OA 
BRANCH  27  28
HETATM   28  C   UNL     1      -8.566  16.301  66.403  1.00  0.00    -0.326 C  
BRANCH  28  29
HETATM   29  C   UNL     1      -8.871  17.714  66.821  1.00  0.00    -0.275 A  
HETATM   30  C   UNL     1     -10.075  18.041  67.469  1.00  0.00    -0.351 A  
HETATM   31 CL   UNL     1     -11.310  16.867  67.771  1.00  0.00     0.005 Cl 
HETATM   32  C   UNL     1     -10.330  19.350  67.902  1.00  0.00    -0.542 A  
HETATM   33  C   UNL     1      -9.401  20.358  67.673  1.00  0.00    -0.453 A  
HETATM   34  C   UNL     1      -8.227  20.067  66.986  1.00  0.00    -0.364 A  
HETATM   35  C   UNL     1      -7.969  18.760  66.552  1.00  0.00    -0.279 A  
HETATM   36 CL   UNL     1      -6.497  18.507  65.678  1.00  0.00    -0.299 Cl 
ENDBRANCH  28  29
ENDBRANCH  27  28
ENDBRANCH  26  27
ENDBRANCH  25  26
ENDBRANCH  24  25
ENDBRANCH  23  24
ENDBRANCH  22  23
ENDBRANCH  21  22
ENDBRANCH  20  21
ENDBRANCH  19  20
ENDBRANCH  18  19
ENDBRANCH  16  18
ENDBRANCH  15  16
ENDBRANCH  12  15
ENDBRANCH  10  12
ENDBRANCH   2   4
TORSDOF 16
ENDMDL
MODEL      234
REMARK 921   NORMALIZED FREE ENERGY PREDICTED BY IDOCK:   -4.55 KCAL/MOL
REMARK 922        TOTAL FREE ENERGY PREDICTED BY IDOCK:  -10.88 KCAL/MOL
REMARK 923 INTER-LIGAND FREE ENERGY PREDICTED BY IDOCK:   -9.73 KCAL/MOL
REMARK 924 INTRA-LIGAND FREE ENERGY PREDICTED BY IDOCK:   -1.15 KCAL/MOL
REMARK 927      BINDING AFFINITY PREDICTED BY RF-SCORE:    0.00 PKD
ROOT
HETATM    1  O   UNL     1      -8.124   3.818  71.479  1.00  0.00    -0.066 OA 
HETATM    2  C   UNL     1      -9.465   3.762  71.966  1.00  0.00    -0.137 C  
HETATM    3  H   UNL     1      -7.608   3.095  71.815  1.00  0.00     0.000 HD 
ENDROOT
BRANCH   2   4
HETATM    4  C   UNL     1     -10.283   4.909  71.432  1.00  0.00    -0.257 A  
HETATM    5  C   UNL     1     -11.330   5.505  72.144  1.00  0.00    -0.149 A  
HETATM    6  O   UNL     1     -11.639   5.129  73.422  1.00  0.00    -0.499 OA 
HETATM    7  C   UNL     1     -12.107   6.514  71.584  1.00  0.00    -0.381 A  
HETATM    8  C   UNL     1     -11.843   6.957  70.290  1.00  0.00    -0.311 A  
HETATM    9  H   UNL     1     -12.349   5.533  73.906  1.00  0.00     0.000 HD 
HETATM   10  C   UNL     1     -10.803   6.388  69.543  1.00  0.00    -0.381 A  
HETATM   11  C   UNL     1     -10.042   5.357  70.121  1.00  0.00    -0.322 A  
BRANCH  10  12
HETATM   12  C   UNL     1     -10.576   6.835  68.114  1.00  0.00    -0.230 C  
HETATM   13  O   UNL     1     -11.658   6.397  67.281  1.00  0.00    -0.695 OA 
HETATM   14  H   UNL     1     -11.516   6.678  66.384  1.00  0.00     0.000 HD 
BRANCH  12  15
HETATM   15  C   UNL     1     -10.458   8.372  68.045  1.00  0.00    -0.184 C  
BRANCH  15  16
HETATM   16  N   UNL     1      -9.319   8.858  68.842  1.00  0.00    -0.140 NA 
HETATM   17  H   UNL     1      -8.466   8.930  68.286  1.00  0.00     0.000 HD 
BRANCH  16  18
HETATM   18  C   UNL     1      -9.658  10.124  69.484  1.00  0.00    -0.221 C  
BRANCH  18  19
HETATM   19  C   UNL     1     -11.132  10.449  69.256  1.00  0.00    -0.303 C  
BRANCH  19  20
HETATM   20  C   UNL     1     -11.831  10.687  70.594  1.00  0.00    -0.463 C  
BRANCH  20  21
HETATM   21  C   UNL     1     -12.404  12.097  70.673  1.00  0.00    -0.385 C  
BRANCH  21  22
HETATM   22  C   UNL     1     -13.329  12.250  71.877  1.00  0.00    -0.431 C  
BRANCH  22  23
HETATM   23  C   UNL     1     -13.678  13.712  72.101  1.00  0.00    -0.555 C  
BRANCH  23  24
HETATM   24  O   UNL     1     -13.303  14.456  70.946  1.00  0.00    -0.351 OA 
BRANCH  24  25
HETATM   25  C   UNL     1     -12.277  15.394  71.262  1.00  0.00    -0.371 C  
BRANCH  25  26
HETATM   26  C   UNL     1     -11.654  15.924  69.981  1.00  0.00    -0.344 C  
BRANCH  26  27
HETATM   27  O   UNL     1     -10.235  15.797  70.072  1.00  0.00    -0.297 OA 
BRANCH  27  28
HETATM   28  C   UNL     1      -9.625  15.875  68.792  1.00  0.00    -0.219 C  
BRANCH  28  29
HETATM   29  C   UNL     1      -8.415  16.764  68.887  1.00  0.00    -0.217 A  
HETATM   30  C   UNL     1      -7.157  16.249  69.246  1.00  0.00    -0.222 A  
HETATM   31 CL   UNL     1      -6.925  14.585  69.665  1.00  0.00    -0.146 Cl 
HETATM   32  C   UNL     1      -6.023  17.071  69.283  1.00  0.00    -0.204 A  
HETATM   33  C   UNL     1      -6.129  18.426  68.987  1.00  0.00    -0.230 A  
HETATM   34  C   UNL     1      -7.374  18.966  68.683  1.00  0.00    -0.343 A  
HETATM   35  C   UNL     1      -8.509  18.146  68.644  1.00  0.00    -0.270 A  
HETATM   36 CL   UNL     1     -10.016  18.919  68.287  1.00  0.00    -0.404 Cl 
ENDBRANCH  28  29
ENDBRANCH  27  28
ENDBRANCH  26  27
ENDBRANCH  25  26
ENDBRANCH  24  25
ENDBRANCH  23  24
ENDBRANCH  22  23
ENDBRANCH  21  22
ENDBRANCH  20  21
ENDBRANCH  19  20
ENDBRANCH  18  19
ENDBRANCH  16  18
ENDBRANCH  15  16
ENDBRANCH  12  15
ENDBRANCH  10  12
ENDBRANCH   2   4
TORSDOF 16
ENDMDL
MODEL      235
REMARK 921   NORMALIZED FREE ENERGY PREDICTED BY IDOCK:   -4.54 KCAL/MOL
REMARK 922        TOTAL FREE ENERGY PREDICTED BY IDOCK:  -10.87 KCAL/MOL
REMARK 923 INTER-LIGAND FREE ENERGY PREDICTED BY IDOCK:   -9.42 KCAL/MOL
REMARK 924 INTRA-LIGAND FREE ENERGY PREDICTED BY IDOCK:   -1.45 KCAL/MOL
REMARK 927      BINDING AFFINITY PREDICTED BY RF-SCORE:    0.00 PKD
ROOT
HETATM    1  O   UNL     1     -13.506  12.084  72.514  1.00  0.00    -0.590 OA 
HETATM    2  C   UNL     1     -13.876  13.455  72.359  1.00  0.00    -0.564 C  
HETATM    3  H   UNL     1     -14.164  11.606  73.005  1.00  0.00     0.000 HD 
ENDROOT
BRANCH   2   4
HETATM    4  C   UNL     1     -12.833  14.212  71.579  1.00  0.00    -0.430 A  
HETATM    5  C   UNL     1     -12.224  15.383  72.045  1.00  0.00    -0.383 A  
HETATM    6  O   UNL     1     -12.484  15.886  73.289  1.00  0.00    -0.420 OA 
HETATM    7  C   UNL     1     -11.317  16.091  71.262  1.00  0.00    -0.397 A  
HETATM    8  C   UNL     1     -10.993  15.631  69.987  1.00  0.00    -0.336 A  
HETATM    9  H   UNL     1     -12.071  16.680  73.605  1.00  0.00     0.000 HD 
HETATM   10  C   UNL     1     -11.580  14.462  69.483  1.00  0.00    -0.352 A  
HETATM   11  C   UNL     1     -12.507  13.772  70.284  1.00  0.00    -0.357 A  
BRANCH  10  12
HETATM   12  C   UNL     1     -11.268  14.016  68.070  1.00  0.00    -0.279 C  
HETATM   13  O   UNL     1     -12.226  14.567  67.155  1.00  0.00    -0.552 OA 
HETATM   14  H   UNL     1     -12.030  14.287  66.268  1.00  0.00     0.000 HD 
BRANCH  12  15
HETATM   15  C   UNL     1      -9.848  14.467  67.667  1.00  0.00    -0.224 C  
BRANCH  15  16
HETATM   16  N   UNL     1      -9.886  15.406  66.533  1.00  0.00    -0.258 NA 
HETATM   17  H   UNL     1     -10.771  15.360  66.028  1.00  0.00     0.000 HD 
BRANCH  16  18
HETATM   18  C   UNL     1      -9.590  16.759  66.992  1.00  0.00    -0.239 C  
BRANCH  18  19
HETATM   19  C   UNL     1      -8.246  17.221  66.436  1.00  0.00    -0.317 C  
BRANCH  19  20
HETATM   20  C   UNL     1      -7.106  16.478  67.130  1.00  0.00    -0.228 C  
BRANCH  20  21
HETATM   21  C   UNL     1      -7.084  16.776  68.624  1.00  0.00    -0.195 C  
BRANCH  21  22
HETATM   22  C   UNL     1      -6.244  15.751  69.379  1.00  0.00    -0.144 C  
BRANCH  22  23
HETATM   23  C   UNL     1      -7.042  14.480  69.623  1.00  0.00    -0.090 C  
BRANCH  23  24
HETATM   24  O   UNL     1      -6.446  13.416  68.889  1.00  0.00    -0.091 OA 
BRANCH  24  25
HETATM   25  C   UNL     1      -6.856  12.153  69.409  1.00  0.00    -0.010 C  
BRANCH  25  26
HETATM   26  C   UNL     1      -7.732  11.441  68.391  1.00  0.00    -0.127 C  
BRANCH  26  27
HETATM   27  O   UNL     1      -8.281  10.270  68.996  1.00  0.00    -0.118 OA 
BRANCH  27  28
HETATM   28  C   UNL     1      -9.701  10.288  68.964  1.00  0.00    -0.205 C  
BRANCH  28  29
HETATM   29  C   UNL     1     -10.198   8.876  68.812  1.00  0.00    -0.224 A  
HETATM   30  C   UNL     1     -10.207   8.235  67.560  1.00  0.00    -0.243 A  
HETATM   31 CL   UNL     1      -9.716   9.038  66.108  1.00  0.00    -0.343 Cl 
HETATM   32  C   UNL     1     -10.623   6.902  67.433  1.00  0.00    -0.373 A  
HETATM   33  C   UNL     1     -11.059   6.195  68.548  1.00  0.00    -0.352 A  
HETATM   34  C   UNL     1     -11.109   6.826  69.786  1.00  0.00    -0.368 A  
HETATM   35  C   UNL     1     -10.694   8.158  69.916  1.00  0.00    -0.241 A  
HETATM   36 CL   UNL     1     -10.824   8.864  71.491  1.00  0.00    -0.369 Cl 
ENDBRANCH  28  29
ENDBRANCH  27  28
ENDBRANCH  26  27
ENDBRANCH  25  26
ENDBRANCH  24  25
ENDBRANCH  23  24
ENDBRANCH  22  23
ENDBRANCH  21  22
ENDBRANCH  20  21
ENDBRANCH  19  20
ENDBRANCH  18  19
ENDBRANCH  16  18
ENDBRANCH  15  16
ENDBRANCH  12  15
ENDBRANCH  10  12
ENDBRANCH   2   4
TORSDOF 16
ENDMDL
MODEL      236
REMARK 921   NORMALIZED FREE ENERGY PREDICTED BY IDOCK:   -4.53 KCAL/MOL
REMARK 922        TOTAL FREE ENERGY PREDICTED BY IDOCK:  -10.84 KCAL/MOL
REMARK 923 INTER-LIGAND FREE ENERGY PREDICTED BY IDOCK:   -8.54 KCAL/MOL
REMARK 924 INTRA-LIGAND FREE ENERGY PREDICTED BY IDOCK:   -2.30 KCAL/MOL
REMARK 927      BINDING AFFINITY PREDICTED BY RF-SCORE:    0.00 PKD
ROOT
HETATM    1  O   UNL     1     -13.416  14.055  65.217  1.00  0.00    -0.622 OA 
HETATM    2  C   UNL     1     -12.122  13.523  64.933  1.00  0.00    -0.397 C  
HETATM    3  H   UNL     1     -13.781  14.489  64.455  1.00  0.00     0.000 HD 
ENDROOT
BRANCH   2   4
HETATM    4  C   UNL     1     -11.544  12.834  66.142  1.00  0.00    -0.431 A  
HETATM    5  C   UNL     1     -11.694  13.316  67.447  1.00  0.00    -0.373 A  
HETATM    6  O   UNL     1     -12.448  14.422  67.726  1.00  0.00    -0.588 OA 
HETATM    7  C   UNL     1     -11.082  12.688  68.528  1.00  0.00    -0.300 A  
HETATM    8  C   UNL     1     -10.309  11.548  68.323  1.00  0.00    -0.211 A  
HETATM    9  H   UNL     1     -12.549  14.749  68.612  1.00  0.00     0.000 HD 
HETATM   10  C   UNL     1     -10.134  11.031  67.031  1.00  0.00    -0.232 A  
HETATM   11  C   UNL     1     -10.746  11.692  65.951  1.00  0.00    -0.328 A  
BRANCH  10  12
HETATM   12  C   UNL     1      -9.234   9.832  66.819  1.00  0.00    -0.148 C  
HETATM   13  O   UNL     1      -8.472   9.570  68.006  1.00  0.00    -0.118 OA 
HETATM   14  H   UNL     1      -7.907   8.817  67.873  1.00  0.00     0.000 HD 
BRANCH  12  15
HETATM   15  C   UNL     1     -10.073   8.589  66.456  1.00  0.00    -0.258 C  
BRANCH  15  16
HETATM   16  N   UNL     1     -10.880   8.135  67.601  1.00  0.00    -0.507 NA 
HETATM   17  H   UNL     1     -11.837   8.486  67.557  1.00  0.00     0.000 HD 
BRANCH  16  18
HETATM   18  C   UNL     1     -10.838   6.680  67.700  1.00  0.00    -0.315 C  
BRANCH  18  19
HETATM   19  C   UNL     1      -9.710   6.250  68.635  1.00  0.00    -0.137 C  
BRANCH  19  20
HETATM   20  C   UNL     1      -8.920   5.100  68.011  1.00  0.00    -0.117 C  
BRANCH  20  21
HETATM   21  C   UNL     1      -9.509   3.750  68.405  1.00  0.00    -0.211 C  
BRANCH  21  22
HETATM   22  C   UNL     1      -8.644   3.056  69.452  1.00  0.00    -0.114 C  
BRANCH  22  23
HETATM   23  C   UNL     1      -9.398   1.900  70.089  1.00  0.00    -0.097 C  
BRANCH  23  24
HETATM   24  O   UNL     1      -9.169   1.920  71.494  1.00  0.00    -0.080 OA 
BRANCH  24  25
HETATM   25  C   UNL     1      -8.812   3.231  71.927  1.00  0.00    -0.090 C  
BRANCH  25  26
HETATM   26  C   UNL     1      -9.828   3.729  72.941  1.00  0.00    -0.140 C  
BRANCH  26  27
HETATM   27  O   UNL     1     -10.750   4.597  72.282  1.00  0.00    -0.172 OA 
BRANCH  27  28
HETATM   28  C   UNL     1     -11.118   5.690  73.112  1.00  0.00    -0.270 C  
BRANCH  28  29
HETATM   29  C   UNL     1     -10.915   6.968  72.344  1.00  0.00    -0.282 A  
HETATM   30  C   UNL     1     -11.992   7.628  71.727  1.00  0.00    -0.299 A  
HETATM   31 CL   UNL     1     -13.601   6.990  71.748  1.00  0.00    -0.371 Cl 
HETATM   32  C   UNL     1     -11.806   8.845  71.057  1.00  0.00    -0.324 A  
HETATM   33  C   UNL     1     -10.539   9.411  70.971  1.00  0.00    -0.400 A  
HETATM   34  C   UNL     1      -9.451   8.747  71.528  1.00  0.00    -0.341 A  
HETATM   35  C   UNL     1      -9.634   7.531  72.198  1.00  0.00    -0.152 A  
HETATM   36 CL   UNL     1      -8.214   6.767  72.828  1.00  0.00    -0.110 Cl 
ENDBRANCH  28  29
ENDBRANCH  27  28
ENDBRANCH  26  27
ENDBRANCH  25  26
ENDBRANCH  24  25
ENDBRANCH  23  24
ENDBRANCH  22  23
ENDBRANCH  21  22
ENDBRANCH  20  21
ENDBRANCH  19  20
ENDBRANCH  18  19
ENDBRANCH  16  18
ENDBRANCH  15  16
ENDBRANCH  12  15
ENDBRANCH  10  12
ENDBRANCH   2   4
TORSDOF 16
ENDMDL
MODEL      237
REMARK 921   NORMALIZED FREE ENERGY PREDICTED BY IDOCK:   -4.52 KCAL/MOL
REMARK 922        TOTAL FREE ENERGY PREDICTED BY IDOCK:  -10.83 KCAL/MOL
REMARK 923 INTER-LIGAND FREE ENERGY PREDICTED BY IDOCK:   -8.65 KCAL/MOL
REMARK 924 INTRA-LIGAND FREE ENERGY PREDICTED BY IDOCK:   -2.18 KCAL/MOL
REMARK 927      BINDING AFFINITY PREDICTED BY RF-SCORE:    0.00 PKD
ROOT
HETATM    1  O   UNL     1     -12.286  11.575  67.825  1.00  0.00    -0.560 OA 
HETATM    2  C   UNL     1     -11.053  12.256  67.588  1.00  0.00    -0.268 C  
HETATM    3  H   UNL     1     -12.172  10.873  68.456  1.00  0.00     0.000 HD 
ENDROOT
BRANCH   2   4
HETATM    4  C   UNL     1     -11.234  13.369  66.588  1.00  0.00    -0.330 A  
HETATM    5  C   UNL     1     -11.869  13.197  65.353  1.00  0.00    -0.372 A  
HETATM    6  O   UNL     1     -12.441  12.009  64.994  1.00  0.00    -0.414 OA 
HETATM    7  C   UNL     1     -11.951  14.235  64.429  1.00  0.00    -0.476 A  
HETATM    8  C   UNL     1     -11.402  15.479  64.730  1.00  0.00    -0.362 A  
HETATM    9  H   UNL     1     -12.872  11.892  64.156  1.00  0.00     0.000 HD 
HETATM   10  C   UNL     1     -10.759  15.693  65.957  1.00  0.00    -0.322 A  
HETATM   11  C   UNL     1     -10.670  14.626  66.869  1.00  0.00    -0.294 A  
BRANCH  10  12
HETATM   12  C   UNL     1     -10.107  17.031  66.238  1.00  0.00    -0.320 C  
HETATM   13  O   UNL     1     -10.560  18.010  65.293  1.00  0.00    -0.615 OA 
HETATM   14  H   UNL     1     -10.152  18.849  65.469  1.00  0.00     0.000 HD 
BRANCH  12  15
HETATM   15  C   UNL     1     -10.441  17.500  67.670  1.00  0.00    -0.370 C  
BRANCH  15  16
HETATM   16  N   UNL     1      -9.326  18.262  68.257  1.00  0.00    -0.298 NA 
HETATM   17  H   UNL     1      -9.562  18.636  69.176  1.00  0.00     0.000 HD 
BRANCH  16  18
HETATM   18  C   UNL     1      -8.122  17.439  68.297  1.00  0.00    -0.249 C  
BRANCH  18  19
HETATM   19  C   UNL     1      -8.355  16.208  69.168  1.00  0.00    -0.230 C  
BRANCH  19  20
HETATM   20  C   UNL     1      -7.095  15.343  69.206  1.00  0.00    -0.179 C  
BRANCH  20  21
HETATM   21  C   UNL     1      -6.821  14.711  67.846  1.00  0.00    -0.176 C  
BRANCH  21  22
HETATM   22  C   UNL     1      -7.001  13.197  67.895  1.00  0.00    -0.132 C  
BRANCH  22  23
HETATM   23  C   UNL     1      -5.838  12.497  67.211  1.00  0.00    -0.100 C  
BRANCH  23  24
HETATM   24  O   UNL     1      -6.336  11.366  66.504  1.00  0.00    -0.138 OA 
BRANCH  24  25
HETATM   25  C   UNL     1      -7.634  11.009  66.974  1.00  0.00    -0.127 C  
BRANCH  25  26
HETATM   26  C   UNL     1      -8.340  10.157  65.932  1.00  0.00    -0.136 C  
BRANCH  26  27
HETATM   27  O   UNL     1      -9.266   9.295  66.593  1.00  0.00    -0.137 OA 
BRANCH  27  28
HETATM   28  C   UNL     1      -8.596   8.307  67.362  1.00  0.00    -0.125 C  
BRANCH  28  29
HETATM   29  C   UNL     1      -9.583   7.682  68.310  1.00  0.00    -0.160 A  
HETATM   30  C   UNL     1     -10.143   6.418  68.055  1.00  0.00    -0.148 A  
HETATM   31 CL   UNL     1      -9.792   5.527  66.613  1.00  0.00    -0.172 Cl 
HETATM   32  C   UNL     1     -11.022   5.818  68.966  1.00  0.00    -0.280 A  
HETATM   33  C   UNL     1     -11.377   6.480  70.137  1.00  0.00    -0.463 A  
HETATM   34  C   UNL     1     -10.877   7.754  70.384  1.00  0.00    -0.248 A  
HETATM   35  C   UNL     1      -9.998   8.356  69.474  1.00  0.00    -0.190 A  
HETATM   36 CL   UNL     1      -9.457   9.955  69.855  1.00  0.00    -0.258 Cl 
ENDBRANCH  28  29
ENDBRANCH  27  28
ENDBRANCH  26  27
ENDBRANCH  25  26
ENDBRANCH  24  25
ENDBRANCH  23  24
ENDBRANCH  22  23
ENDBRANCH  21  22
ENDBRANCH  20  21
ENDBRANCH  19  20
ENDBRANCH  18  19
ENDBRANCH  16  18
ENDBRANCH  15  16
ENDBRANCH  12  15
ENDBRANCH  10  12
ENDBRANCH   2   4
TORSDOF 16
ENDMDL
MODEL      238
REMARK 921   NORMALIZED FREE ENERGY PREDICTED BY IDOCK:   -4.52 KCAL/MOL
REMARK 922        TOTAL FREE ENERGY PREDICTED BY IDOCK:  -10.82 KCAL/MOL
REMARK 923 INTER-LIGAND FREE ENERGY PREDICTED BY IDOCK:   -9.79 KCAL/MOL
REMARK 924 INTRA-LIGAND FREE ENERGY PREDICTED BY IDOCK:   -1.03 KCAL/MOL
REMARK 927      BINDING AFFINITY PREDICTED BY RF-SCORE:    0.00 PKD
ROOT
HETATM    1  O   UNL     1      -7.772   3.521  71.971  1.00  0.00    -0.056 OA 
HETATM    2  C   UNL     1      -9.078   3.360  72.526  1.00  0.00    -0.093 C  
HETATM    3  H   UNL     1      -7.197   2.814  72.238  1.00  0.00     0.000 HD 
ENDROOT
BRANCH   2   4
HETATM    4  C   UNL     1      -9.988   4.483  72.101  1.00  0.00    -0.246 A  
HETATM    5  C   UNL     1     -11.046   4.954  72.887  1.00  0.00    -0.256 A  
HETATM    6  O   UNL     1     -11.284   4.469  74.143  1.00  0.00    -0.248 OA 
HETATM    7  C   UNL     1     -11.908   5.945  72.426  1.00  0.00    -0.263 A  
HETATM    8  C   UNL     1     -11.720   6.495  71.160  1.00  0.00    -0.392 A  
HETATM    9  H   UNL     1     -12.002   4.789  74.676  1.00  0.00     0.000 HD 
HETATM   10  C   UNL     1     -10.671   6.052  70.342  1.00  0.00    -0.358 A  
HETATM   11  C   UNL     1      -9.823   5.037  70.820  1.00  0.00    -0.279 A  
BRANCH  10  12
HETATM   12  C   UNL     1     -10.524   6.613  68.943  1.00  0.00    -0.212 C  
HETATM   13  O   UNL     1     -11.590   6.142  68.107  1.00  0.00    -0.356 OA 
HETATM   14  H   UNL     1     -11.498   6.494  67.229  1.00  0.00     0.000 HD 
BRANCH  12  15
HETATM   15  C   UNL     1     -10.538   8.156  68.979  1.00  0.00    -0.151 C  
BRANCH  15  16
HETATM   16  N   UNL     1      -9.644   8.675  70.029  1.00  0.00    -0.167 NA 
HETATM   17  H   UNL     1      -8.760   9.009  69.646  1.00  0.00     0.000 HD 
BRANCH  16  18
HETATM   18  C   UNL     1     -10.326   9.705  70.805  1.00  0.00    -0.286 C  
BRANCH  18  19
HETATM   19  C   UNL     1     -11.708   9.978  70.217  1.00  0.00    -0.327 C  
BRANCH  19  20
HETATM   20  C   UNL     1     -12.433  11.038  71.045  1.00  0.00    -0.512 C  
BRANCH  20  21
HETATM   21  C   UNL     1     -12.312  12.415  70.402  1.00  0.00    -0.307 C  
BRANCH  21  22
HETATM   22  C   UNL     1     -12.799  13.509  71.347  1.00  0.00    -0.440 C  
BRANCH  22  23
HETATM   23  C   UNL     1     -11.900  14.732  71.258  1.00  0.00    -0.335 C  
BRANCH  23  24
HETATM   24  O   UNL     1     -11.248  14.731  69.993  1.00  0.00    -0.253 OA 
BRANCH  24  25
HETATM   25  C   UNL     1     -11.531  15.932  69.278  1.00  0.00    -0.374 C  
BRANCH  25  26
HETATM   26  C   UNL     1     -11.088  15.784  67.832  1.00  0.00    -0.326 C  
BRANCH  26  27
HETATM   27  O   UNL     1     -10.856  14.402  67.560  1.00  0.00    -0.274 OA 
BRANCH  27  28
HETATM   28  C   UNL     1     -11.994  13.792  66.969  1.00  0.00    -0.413 C  
BRANCH  28  29
HETATM   29  C   UNL     1     -11.552  13.016  65.758  1.00  0.00    -0.396 A  
HETATM   30  C   UNL     1     -10.896  11.779  65.883  1.00  0.00    -0.291 A  
HETATM   31 CL   UNL     1     -10.495  11.097  67.422  1.00  0.00    -0.244 Cl 
HETATM   32  C   UNL     1     -10.532  11.036  64.751  1.00  0.00    -0.384 A  
HETATM   33  C   UNL     1     -10.794  11.527  63.476  1.00  0.00    -0.473 A  
HETATM   34  C   UNL     1     -11.393  12.774  63.330  1.00  0.00    -0.395 A  
HETATM   35  C   UNL     1     -11.758  13.518  64.460  1.00  0.00    -0.397 A  
HETATM   36 CL   UNL     1     -12.467  15.070  64.173  1.00  0.00    -0.291 Cl 
ENDBRANCH  28  29
ENDBRANCH  27  28
ENDBRANCH  26  27
ENDBRANCH  25  26
ENDBRANCH  24  25
ENDBRANCH  23  24
ENDBRANCH  22  23
ENDBRANCH  21  22
ENDBRANCH  20  21
ENDBRANCH  19  20
ENDBRANCH  18  19
ENDBRANCH  16  18
ENDBRANCH  15  16
ENDBRANCH  12  15
ENDBRANCH  10  12
ENDBRANCH   2   4
TORSDOF 16
ENDMDL
MODEL      239
REMARK 921   NORMALIZED FREE ENERGY PREDICTED BY IDOCK:   -4.52 KCAL/MOL
REMARK 922        TOTAL FREE ENERGY PREDICTED BY IDOCK:  -10.82 KCAL/MOL
REMARK 923 INTER-LIGAND FREE ENERGY PREDICTED BY IDOCK:   -9.02 KCAL/MOL
REMARK 924 INTRA-LIGAND FREE ENERGY PREDICTED BY IDOCK:   -1.80 KCAL/MOL
REMARK 927      BINDING AFFINITY PREDICTED BY RF-SCORE:    0.00 PKD
ROOT
HETATM    1  O   UNL     1     -11.089   8.876  67.048  1.00  0.00    -0.242 OA 
HETATM    2  C   UNL     1      -9.810   8.851  66.414  1.00  0.00    -0.283 C  
HETATM    3  H   UNL     1     -11.105   8.307  67.808  1.00  0.00     0.000 HD 
ENDROOT
BRANCH   2   4
HETATM    4  C   UNL     1      -9.786   9.755  65.209  1.00  0.00    -0.371 A  
HETATM    5  C   UNL     1      -8.760   9.741  64.257  1.00  0.00    -0.206 A  
HETATM    6  O   UNL     1      -7.731   8.843  64.318  1.00  0.00    -0.110 OA 
HETATM    7  C   UNL     1      -8.740  10.643  63.197  1.00  0.00    -0.190 A  
HETATM    8  C   UNL     1      -9.762  11.580  63.063  1.00  0.00    -0.382 A  
HETATM    9  H   UNL     1      -7.035   8.833  63.672  1.00  0.00     0.000 HD 
HETATM   10  C   UNL     1     -10.809  11.627  63.994  1.00  0.00    -0.455 A  
HETATM   11  C   UNL     1     -10.800  10.719  65.068  1.00  0.00    -0.055 A  
BRANCH  10  12
HETATM   12  C   UNL     1     -11.874  12.697  63.871  1.00  0.00    -0.467 C  
HETATM   13  O   UNL     1     -13.065  12.292  64.561  1.00  0.00    -0.791 OA 
HETATM   14  H   UNL     1     -13.732  12.964  64.484  1.00  0.00     0.000 HD 
BRANCH  12  15
HETATM   15  C   UNL     1     -11.364  14.031  64.456  1.00  0.00    -0.358 C  
BRANCH  15  16
HETATM   16  N   UNL     1     -10.864  13.856  65.830  1.00  0.00    -0.285 NA 
HETATM   17  H   UNL     1      -9.845  13.894  65.873  1.00  0.00     0.000 HD 
BRANCH  16  18
HETATM   18  C   UNL     1     -11.483  14.834  66.718  1.00  0.00    -0.338 C  
BRANCH  18  19
HETATM   19  C   UNL     1     -10.431  15.804  67.248  1.00  0.00    -0.308 C  
BRANCH  19  20
HETATM   20  C   UNL     1      -9.483  15.081  68.204  1.00  0.00    -0.196 C  
BRANCH  20  21
HETATM   21  C   UNL     1      -8.057  15.599  68.061  1.00  0.00    -0.140 C  
BRANCH  21  22
HETATM   22  C   UNL     1      -7.071  14.453  67.856  1.00  0.00    -0.169 C  
BRANCH  22  23
HETATM   23  C   UNL     1      -7.391  13.298  68.791  1.00  0.00    -0.070 C  
BRANCH  23  24
HETATM   24  O   UNL     1      -6.312  12.370  68.760  1.00  0.00    -0.068 OA 
BRANCH  24  25
HETATM   25  C   UNL     1      -6.477  11.370  69.763  1.00  0.00    -0.133 C  
BRANCH  25  26
HETATM   26  C   UNL     1      -7.500  10.345  69.301  1.00  0.00    -0.120 C  
BRANCH  26  27
HETATM   27  O   UNL     1      -8.290   9.946  70.421  1.00  0.00    -0.153 OA 
BRANCH  27  28
HETATM   28  C   UNL     1      -9.321   9.049  70.034  1.00  0.00    -0.183 C  
BRANCH  28  29
HETATM   29  C   UNL     1     -10.624   9.536  70.606  1.00  0.00    -0.374 A  
HETATM   30  C   UNL     1     -11.260  10.685  70.102  1.00  0.00    -0.302 A  
HETATM   31 CL   UNL     1     -10.563  11.649  68.846  1.00  0.00    -0.234 Cl 
HETATM   32  C   UNL     1     -12.499  11.105  70.605  1.00  0.00    -0.448 A  
HETATM   33  C   UNL     1     -13.114  10.400  71.634  1.00  0.00    -0.553 A  
HETATM   34  C   UNL     1     -12.476   9.293  72.184  1.00  0.00    -0.421 A  
HETATM   35  C   UNL     1     -11.238   8.871  71.684  1.00  0.00    -0.345 A  
HETATM   36 CL   UNL     1     -10.512   7.502  72.456  1.00  0.00    -0.273 Cl 
ENDBRANCH  28  29
ENDBRANCH  27  28
ENDBRANCH  26  27
ENDBRANCH  25  26
ENDBRANCH  24  25
ENDBRANCH  23  24
ENDBRANCH  22  23
ENDBRANCH  21  22
ENDBRANCH  20  21
ENDBRANCH  19  20
ENDBRANCH  18  19
ENDBRANCH  16  18
ENDBRANCH  15  16
ENDBRANCH  12  15
ENDBRANCH  10  12
ENDBRANCH   2   4
TORSDOF 16
ENDMDL
MODEL      240
REMARK 921   NORMALIZED FREE ENERGY PREDICTED BY IDOCK:   -4.50 KCAL/MOL
REMARK 922        TOTAL FREE ENERGY PREDICTED BY IDOCK:  -10.77 KCAL/MOL
REMARK 923 INTER-LIGAND FREE ENERGY PREDICTED BY IDOCK:   -8.56 KCAL/MOL
REMARK 924 INTRA-LIGAND FREE ENERGY PREDICTED BY IDOCK:   -2.21 KCAL/MOL
REMARK 927      BINDING AFFINITY PREDICTED BY RF-SCORE:    0.00 PKD
ROOT
HETATM    1  O   UNL     1     -11.278   7.580  66.760  1.00  0.00    -0.378 OA 
HETATM    2  C   UNL     1      -9.870   7.497  66.982  1.00  0.00    -0.214 C  
HETATM    3  H   UNL     1     -11.478   7.580  65.831  1.00  0.00     0.000 HD 
ENDROOT
BRANCH   2   4
HETATM    4  C   UNL     1      -9.554   7.496  68.455  1.00  0.00    -0.150 A  
HETATM    5  C   UNL     1      -8.544   8.279  69.026  1.00  0.00    -0.135 A  
HETATM    6  O   UNL     1      -7.812   9.165  68.285  1.00  0.00    -0.100 OA 
HETATM    7  C   UNL     1      -8.237   8.194  70.381  1.00  0.00    -0.114 A  
HETATM    8  C   UNL     1      -8.949   7.321  71.201  1.00  0.00    -0.147 A  
HETATM    9  H   UNL     1      -7.127   9.696  68.672  1.00  0.00     0.000 HD 
HETATM   10  C   UNL     1      -9.970   6.521  70.669  1.00  0.00    -0.206 A  
HETATM   11  C   UNL     1     -10.251   6.609  69.294  1.00  0.00    -0.206 A  
BRANCH  10  12
HETATM   12  C   UNL     1     -10.686   5.529  71.562  1.00  0.00    -0.222 C  
HETATM   13  O   UNL     1      -9.745   4.611  72.136  1.00  0.00    -0.152 OA 
HETATM   14  H   UNL     1     -10.194   3.989  72.697  1.00  0.00     0.000 HD 
BRANCH  12  15
HETATM   15  C   UNL     1     -11.441   6.268  72.687  1.00  0.00    -0.218 C  
BRANCH  15  16
HETATM   16  N   UNL     1     -12.531   7.096  72.145  1.00  0.00    -0.500 NA 
HETATM   17  H   UNL     1     -13.450   6.724  72.387  1.00  0.00     0.000 HD 
BRANCH  16  18
HETATM   18  C   UNL     1     -12.373   8.481  72.579  1.00  0.00    -0.306 C  
BRANCH  18  19
HETATM   19  C   UNL     1     -13.256   9.399  71.738  1.00  0.00    -0.487 C  
BRANCH  19  20
HETATM   20  C   UNL     1     -12.785  10.847  71.868  1.00  0.00    -0.340 C  
BRANCH  20  21
HETATM   21  C   UNL     1     -12.353  11.408  70.519  1.00  0.00    -0.439 C  
BRANCH  21  22
HETATM   22  C   UNL     1     -11.490  10.408  69.756  1.00  0.00    -0.348 C  
BRANCH  22  23
HETATM   23  C   UNL     1     -10.809  11.080  68.575  1.00  0.00    -0.213 C  
BRANCH  23  24
HETATM   24  O   UNL     1      -9.439  11.298  68.899  1.00  0.00    -0.174 OA 
BRANCH  24  25
HETATM   25  C   UNL     1      -9.015  12.584  68.452  1.00  0.00    -0.130 C  
BRANCH  25  26
HETATM   26  C   UNL     1     -10.226  13.469  68.214  1.00  0.00    -0.250 C  
BRANCH  26  27
HETATM   27  O   UNL     1      -9.911  14.416  67.192  1.00  0.00    -0.247 OA 
BRANCH  27  28
HETATM   28  C   UNL     1      -9.284  13.790  66.082  1.00  0.00     0.005 C  
BRANCH  28  29
HETATM   29  C   UNL     1     -10.349  13.295  65.142  1.00  0.00    -0.336 A  
HETATM   30  C   UNL     1     -10.442  11.936  64.795  1.00  0.00    -0.289 A  
HETATM   31 CL   UNL     1      -9.311  10.757  65.365  1.00  0.00    -0.226 Cl 
HETATM   32  C   UNL     1     -11.468  11.472  63.960  1.00  0.00    -0.331 A  
HETATM   33  C   UNL     1     -12.402  12.359  63.437  1.00  0.00    -0.603 A  
HETATM   34  C   UNL     1     -12.295  13.716  63.724  1.00  0.00    -0.357 A  
HETATM   35  C   UNL     1     -11.272  14.182  64.559  1.00  0.00    -0.337 A  
HETATM   36 CL   UNL     1     -11.205  15.891  64.830  1.00  0.00    -0.416 Cl 
ENDBRANCH  28  29
ENDBRANCH  27  28
ENDBRANCH  26  27
ENDBRANCH  25  26
ENDBRANCH  24  25
ENDBRANCH  23  24
ENDBRANCH  22  23
ENDBRANCH  21  22
ENDBRANCH  20  21
ENDBRANCH  19  20
ENDBRANCH  18  19
ENDBRANCH  16  18
ENDBRANCH  15  16
ENDBRANCH  12  15
ENDBRANCH  10  12
ENDBRANCH   2   4
TORSDOF 16
ENDMDL
MODEL      241
REMARK 921   NORMALIZED FREE ENERGY PREDICTED BY IDOCK:   -4.49 KCAL/MOL
REMARK 922        TOTAL FREE ENERGY PREDICTED BY IDOCK:  -10.76 KCAL/MOL
REMARK 923 INTER-LIGAND FREE ENERGY PREDICTED BY IDOCK:   -9.78 KCAL/MOL
REMARK 924 INTRA-LIGAND FREE ENERGY PREDICTED BY IDOCK:   -0.98 KCAL/MOL
REMARK 927      BINDING AFFINITY PREDICTED BY RF-SCORE:    0.00 PKD
ROOT
HETATM    1  O   UNL     1      -8.425   3.150  69.652  1.00  0.00    -0.057 OA 
HETATM    2  C   UNL     1      -9.551   4.003  69.864  1.00  0.00    -0.211 C  
HETATM    3  H   UNL     1      -8.223   3.075  68.727  1.00  0.00     0.000 HD 
ENDROOT
BRANCH   2   4
HETATM    4  C   UNL     1      -9.870   4.121  71.332  1.00  0.00    -0.254 A  
HETATM    5  C   UNL     1     -10.108   3.018  72.159  1.00  0.00    -0.132 A  
HETATM    6  O   UNL     1      -9.992   1.735  71.701  1.00  0.00    -0.148 OA 
HETATM    7  C   UNL     1     -10.471   3.175  73.493  1.00  0.00    -0.253 A  
HETATM    8  C   UNL     1     -10.597   4.453  74.033  1.00  0.00    -0.332 A  
HETATM    9  H   UNL     1     -10.153   0.986  72.263  1.00  0.00     0.000 HD 
HETATM   10  C   UNL     1     -10.366   5.585  73.239  1.00  0.00    -0.233 A  
HETATM   11  C   UNL     1     -10.018   5.404  71.888  1.00  0.00    -0.233 A  
BRANCH  10  12
HETATM   12  C   UNL     1     -10.574   6.966  73.825  1.00  0.00    -0.301 C  
HETATM   13  O   UNL     1      -9.328   7.497  74.295  1.00  0.00    -0.409 OA 
HETATM   14  H   UNL     1      -9.459   8.364  74.662  1.00  0.00     0.000 HD 
BRANCH  12  15
HETATM   15  C   UNL     1     -11.174   7.913  72.765  1.00  0.00    -0.405 C  
BRANCH  15  16
HETATM   16  N   UNL     1     -12.634   7.749  72.664  1.00  0.00    -0.541 NA 
HETATM   17  H   UNL     1     -13.107   7.995  73.534  1.00  0.00     0.000 HD 
BRANCH  16  18
HETATM   18  C   UNL     1     -13.148   8.511  71.531  1.00  0.00    -0.299 C  
BRANCH  18  19
HETATM   19  C   UNL     1     -13.694   9.855  72.005  1.00  0.00    -0.298 C  
BRANCH  19  20
HETATM   20  C   UNL     1     -12.940  10.998  71.326  1.00  0.00    -0.472 C  
BRANCH  20  21
HETATM   21  C   UNL     1     -13.381  12.350  71.875  1.00  0.00    -0.450 C  
BRANCH  21  22
HETATM   22  C   UNL     1     -12.618  13.491  71.210  1.00  0.00    -0.427 C  
BRANCH  22  23
HETATM   23  C   UNL     1     -13.160  14.836  71.666  1.00  0.00    -0.337 C  
BRANCH  23  24
HETATM   24  O   UNL     1     -12.438  15.869  71.004  1.00  0.00    -0.440 OA 
BRANCH  24  25
HETATM   25  C   UNL     1     -11.306  15.336  70.320  1.00  0.00    -0.292 C  
BRANCH  25  26
HETATM   26  C   UNL     1     -11.321  15.792  68.871  1.00  0.00    -0.356 C  
BRANCH  26  27
HETATM   27  O   UNL     1     -10.806  17.122  68.801  1.00  0.00    -0.305 OA 
BRANCH  27  28
HETATM   28  C   UNL     1      -9.862  17.257  67.749  1.00  0.00    -0.281 C  
BRANCH  28  29
HETATM   29  C   UNL     1      -8.613  17.891  68.300  1.00  0.00    -0.277 A  
HETATM   30  C   UNL     1      -8.351  19.261  68.125  1.00  0.00    -0.323 A  
HETATM   31 CL   UNL     1      -9.401  20.294  67.215  1.00  0.00    -0.514 Cl 
HETATM   32  C   UNL     1      -7.212  19.857  68.684  1.00  0.00    -0.323 A  
HETATM   33  C   UNL     1      -6.303  19.091  69.406  1.00  0.00    -0.309 A  
HETATM   34  C   UNL     1      -6.516  17.724  69.545  1.00  0.00    -0.185 A  
HETATM   35  C   UNL     1      -7.654  17.126  68.987  1.00  0.00    -0.187 A  
HETATM   36 CL   UNL     1      -7.811  15.414  69.188  1.00  0.00    -0.194 Cl 
ENDBRANCH  28  29
ENDBRANCH  27  28
ENDBRANCH  26  27
ENDBRANCH  25  26
ENDBRANCH  24  25
ENDBRANCH  23  24
ENDBRANCH  22  23
ENDBRANCH  21  22
ENDBRANCH  20  21
ENDBRANCH  19  20
ENDBRANCH  18  19
ENDBRANCH  16  18
ENDBRANCH  15  16
ENDBRANCH  12  15
ENDBRANCH  10  12
ENDBRANCH   2   4
TORSDOF 16
ENDMDL
MODEL      242
REMARK 921   NORMALIZED FREE ENERGY PREDICTED BY IDOCK:   -4.49 KCAL/MOL
REMARK 922        TOTAL FREE ENERGY PREDICTED BY IDOCK:  -10.76 KCAL/MOL
REMARK 923 INTER-LIGAND FREE ENERGY PREDICTED BY IDOCK:   -8.53 KCAL/MOL
REMARK 924 INTRA-LIGAND FREE ENERGY PREDICTED BY IDOCK:   -2.22 KCAL/MOL
REMARK 927      BINDING AFFINITY PREDICTED BY RF-SCORE:    0.00 PKD
ROOT
HETATM    1  O   UNL     1      -8.527  18.875  67.191  1.00  0.00    -0.268 OA 
HETATM    2  C   UNL     1      -9.570  18.421  66.327  1.00  0.00    -0.261 C  
HETATM    3  H   UNL     1      -8.158  19.693  66.879  1.00  0.00     0.000 HD 
ENDROOT
BRANCH   2   4
HETATM    4  C   UNL     1     -10.155  17.123  66.822  1.00  0.00    -0.303 A  
HETATM    5  C   UNL     1     -10.639  16.944  68.123  1.00  0.00    -0.360 A  
HETATM    6  O   UNL     1     -10.682  17.971  69.025  1.00  0.00    -0.330 OA 
HETATM    7  C   UNL     1     -11.105  15.708  68.560  1.00  0.00    -0.322 A  
HETATM    8  C   UNL     1     -11.104  14.618  67.693  1.00  0.00    -0.311 A  
HETATM    9  H   UNL     1     -11.011  17.849  69.907  1.00  0.00     0.000 HD 
HETATM   10  C   UNL     1     -10.629  14.756  66.381  1.00  0.00    -0.300 A  
HETATM   11  C   UNL     1     -10.145  16.009  65.965  1.00  0.00    -0.362 A  
BRANCH  10  12
HETATM   12  C   UNL     1     -10.571  13.544  65.475  1.00  0.00    -0.296 C  
HETATM   13  O   UNL     1      -9.979  13.895  64.216  1.00  0.00    -0.714 OA 
HETATM   14  H   UNL     1      -9.942  13.134  63.648  1.00  0.00     0.000 HD 
BRANCH  12  15
HETATM   15  C   UNL     1      -9.750  12.417  66.137  1.00  0.00    -0.246 C  
BRANCH  15  16
HETATM   16  N   UNL     1      -9.345  11.400  65.153  1.00  0.00    -0.331 NA 
HETATM   17  H   UNL     1      -8.331  11.303  65.098  1.00  0.00     0.000 HD 
BRANCH  16  18
HETATM   18  C   UNL     1      -9.998  10.129  65.446  1.00  0.00    -0.307 C  
BRANCH  18  19
HETATM   19  C   UNL     1     -10.392  10.069  66.920  1.00  0.00    -0.297 C  
BRANCH  19  20
HETATM   20  C   UNL     1      -9.781   8.832  67.578  1.00  0.00    -0.214 C  
BRANCH  20  21
HETATM   21  C   UNL     1      -8.806   9.222  68.682  1.00  0.00    -0.132 C  
BRANCH  21  22
HETATM   22  C   UNL     1      -8.027   8.010  69.184  1.00  0.00    -0.114 C  
BRANCH  22  23
HETATM   23  C   UNL     1      -6.656   8.427  69.692  1.00  0.00    -0.037 C  
BRANCH  23  24
HETATM   24  O   UNL     1      -6.432   7.816  70.959  1.00  0.00    -0.038 OA 
BRANCH  24  25
HETATM   25  C   UNL     1      -6.341   8.802  71.985  1.00  0.00    -0.068 C  
BRANCH  25  26
HETATM   26  C   UNL     1      -7.131   8.350  73.201  1.00  0.00    -0.069 C  
BRANCH  26  27
HETATM   27  O   UNL     1      -8.480   8.798  73.067  1.00  0.00    -0.402 OA 
BRANCH  27  28
HETATM   28  C   UNL     1      -9.401   7.803  73.492  1.00  0.00    -0.290 C  
BRANCH  28  29
HETATM   29  C   UNL     1      -9.946   7.101  72.279  1.00  0.00    -0.193 A  
HETATM   30  C   UNL     1      -9.453   5.847  71.877  1.00  0.00    -0.151 A  
HETATM   31 CL   UNL     1      -8.149   5.060  72.700  1.00  0.00    -0.107 Cl 
HETATM   32  C   UNL     1     -10.000   5.174  70.776  1.00  0.00    -0.285 A  
HETATM   33  C   UNL     1     -11.033   5.750  70.044  1.00  0.00    -0.382 A  
HETATM   34  C   UNL     1     -11.499   7.013  70.393  1.00  0.00    -0.355 A  
HETATM   35  C   UNL     1     -10.954   7.688  71.492  1.00  0.00    -0.233 A  
HETATM   36 CL   UNL     1     -11.579   9.268  71.825  1.00  0.00    -0.455 Cl 
ENDBRANCH  28  29
ENDBRANCH  27  28
ENDBRANCH  26  27
ENDBRANCH  25  26
ENDBRANCH  24  25
ENDBRANCH  23  24
ENDBRANCH  22  23
ENDBRANCH  21  22
ENDBRANCH  20  21
ENDBRANCH  19  20
ENDBRANCH  18  19
ENDBRANCH  16  18
ENDBRANCH  15  16
ENDBRANCH  12  15
ENDBRANCH  10  12
ENDBRANCH   2   4
TORSDOF 16
ENDMDL
MODEL      243
REMARK 921   NORMALIZED FREE ENERGY PREDICTED BY IDOCK:   -4.48 KCAL/MOL
REMARK 922        TOTAL FREE ENERGY PREDICTED BY IDOCK:  -10.73 KCAL/MOL
REMARK 923 INTER-LIGAND FREE ENERGY PREDICTED BY IDOCK:   -8.45 KCAL/MOL
REMARK 924 INTRA-LIGAND FREE ENERGY PREDICTED BY IDOCK:   -2.29 KCAL/MOL
REMARK 927      BINDING AFFINITY PREDICTED BY RF-SCORE:    0.00 PKD
ROOT
HETATM    1  O   UNL     1     -11.211   4.946  65.836  1.00  0.00    -0.785 OA 
HETATM    2  C   UNL     1     -10.797   6.087  66.589  1.00  0.00    -0.213 C  
HETATM    3  H   UNL     1     -11.327   5.166  64.920  1.00  0.00     0.000 HD 
ENDROOT
BRANCH   2   4
HETATM    4  C   UNL     1     -10.612   5.738  68.043  1.00  0.00    -0.295 A  
HETATM    5  C   UNL     1      -9.767   4.714  68.487  1.00  0.00    -0.142 A  
HETATM    6  O   UNL     1      -8.984   3.999  67.623  1.00  0.00    -0.112 OA 
HETATM    7  C   UNL     1      -9.680   4.377  69.834  1.00  0.00    -0.291 A  
HETATM    8  C   UNL     1     -10.439   5.070  70.774  1.00  0.00    -0.222 A  
HETATM    9  H   UNL     1      -8.411   3.305  67.924  1.00  0.00     0.000 HD 
HETATM   10  C   UNL     1     -11.297   6.103  70.372  1.00  0.00    -0.399 A  
HETATM   11  C   UNL     1     -11.383   6.416  69.003  1.00  0.00    -0.332 A  
BRANCH  10  12
HETATM   12  C   UNL     1     -12.165   6.799  71.399  1.00  0.00    -0.363 C  
HETATM   13  O   UNL     1     -12.408   5.928  72.513  1.00  0.00    -0.514 OA 
HETATM   14  H   UNL     1     -12.952   6.364  73.158  1.00  0.00     0.000 HD 
BRANCH  12  15
HETATM   15  C   UNL     1     -11.481   8.091  71.892  1.00  0.00    -0.291 C  
BRANCH  15  16
HETATM   16  N   UNL     1     -10.479   7.804  72.932  1.00  0.00    -0.321 NA 
HETATM   17  H   UNL     1     -10.358   6.802  73.080  1.00  0.00     0.000 HD 
BRANCH  16  18
HETATM   18  C   UNL     1      -9.217   8.463  72.610  1.00  0.00    -0.254 C  
BRANCH  18  19
HETATM   19  C   UNL     1      -8.305   7.506  71.846  1.00  0.00    -0.118 C  
BRANCH  19  20
HETATM   20  C   UNL     1      -8.197   7.937  70.384  1.00  0.00    -0.119 C  
BRANCH  20  21
HETATM   21  C   UNL     1      -8.441   9.434  70.232  1.00  0.00    -0.237 C  
BRANCH  21  22
HETATM   22  C   UNL     1      -8.225   9.885  68.791  1.00  0.00    -0.114 C  
BRANCH  22  23
HETATM   23  C   UNL     1      -8.871   8.908  67.822  1.00  0.00    -0.135 C  
BRANCH  23  24
HETATM   24  O   UNL     1     -10.025   9.519  67.255  1.00  0.00    -0.167 OA 
BRANCH  24  25
HETATM   25  C   UNL     1      -9.890   9.635  65.840  1.00  0.00    -0.288 C  
BRANCH  25  26
HETATM   26  C   UNL     1     -10.211  11.056  65.410  1.00  0.00    -0.274 C  
BRANCH  26  27
HETATM   27  O   UNL     1      -9.301  11.949  66.053  1.00  0.00    -0.229 OA 
BRANCH  27  28
HETATM   28  C   UNL     1      -9.572  13.300  65.711  1.00  0.00    -0.049 C  
BRANCH  28  29
HETATM   29  C   UNL     1      -9.919  14.055  66.966  1.00  0.00    -0.257 A  
HETATM   30  C   UNL     1      -8.924  14.477  67.864  1.00  0.00    -0.187 A  
HETATM   31 CL   UNL     1      -7.250  14.105  67.629  1.00  0.00    -0.182 Cl 
HETATM   32  C   UNL     1      -9.248  15.224  69.005  1.00  0.00    -0.223 A  
HETATM   33  C   UNL     1     -10.574  15.542  69.281  1.00  0.00    -0.236 A  
HETATM   34  C   UNL     1     -11.579  15.088  68.434  1.00  0.00    -0.352 A  
HETATM   35  C   UNL     1     -11.257  14.341  67.293  1.00  0.00    -0.318 A  
HETATM   36 CL   UNL     1     -12.582  13.796  66.321  1.00  0.00    -0.431 Cl 
ENDBRANCH  28  29
ENDBRANCH  27  28
ENDBRANCH  26  27
ENDBRANCH  25  26
ENDBRANCH  24  25
ENDBRANCH  23  24
ENDBRANCH  22  23
ENDBRANCH  21  22
ENDBRANCH  20  21
ENDBRANCH  19  20
ENDBRANCH  18  19
ENDBRANCH  16  18
ENDBRANCH  15  16
ENDBRANCH  12  15
ENDBRANCH  10  12
ENDBRANCH   2   4
TORSDOF 16
ENDMDL
MODEL      244
REMARK 921   NORMALIZED FREE ENERGY PREDICTED BY IDOCK:   -4.47 KCAL/MOL
REMARK 922        TOTAL FREE ENERGY PREDICTED BY IDOCK:  -10.73 KCAL/MOL
REMARK 923 INTER-LIGAND FREE ENERGY PREDICTED BY IDOCK:   -8.75 KCAL/MOL
REMARK 924 INTRA-LIGAND FREE ENERGY PREDICTED BY IDOCK:   -1.98 KCAL/MOL
REMARK 927      BINDING AFFINITY PREDICTED BY RF-SCORE:    0.00 PKD
ROOT
HETATM    1  O   UNL     1      -8.365  19.242  67.477  1.00  0.00    -0.281 OA 
HETATM    2  C   UNL     1      -9.214  18.709  66.460  1.00  0.00    -0.320 C  
HETATM    3  H   UNL     1      -7.849  19.968  67.146  1.00  0.00     0.000 HD 
ENDROOT
BRANCH   2   4
HETATM    4  C   UNL     1     -10.032  17.558  66.985  1.00  0.00    -0.311 A  
HETATM    5  C   UNL     1     -10.510  17.491  68.299  1.00  0.00    -0.383 A  
HETATM    6  O   UNL     1     -10.327  18.514  69.187  1.00  0.00    -0.483 OA 
HETATM    7  C   UNL     1     -11.200  16.376  68.764  1.00  0.00    -0.313 A  
HETATM    8  C   UNL     1     -11.435  15.299  67.912  1.00  0.00    -0.325 A  
HETATM    9  H   UNL     1     -10.651  18.469  70.078  1.00  0.00     0.000 HD 
HETATM   10  C   UNL     1     -10.975  15.327  66.589  1.00  0.00    -0.297 A  
HETATM   11  C   UNL     1     -10.263  16.456  66.144  1.00  0.00    -0.363 A  
BRANCH  10  12
HETATM   12  C   UNL     1     -11.180  14.119  65.699  1.00  0.00    -0.308 C  
HETATM   13  O   UNL     1     -10.847  14.442  64.341  1.00  0.00    -0.611 OA 
HETATM   14  H   UNL     1     -10.975  13.684  63.783  1.00  0.00     0.000 HD 
BRANCH  12  15
HETATM   15  C   UNL     1     -10.305  12.943  66.181  1.00  0.00    -0.276 C  
BRANCH  15  16
HETATM   16  N   UNL     1     -11.091  11.703  66.299  1.00  0.00    -0.304 NA 
HETATM   17  H   UNL     1     -10.520  10.872  66.143  1.00  0.00     0.000 HD 
BRANCH  16  18
HETATM   18  C   UNL     1     -11.773  11.662  67.588  1.00  0.00    -0.228 C  
BRANCH  18  19
HETATM   19  C   UNL     1     -10.776  11.907  68.718  1.00  0.00    -0.257 C  
BRANCH  19  20
HETATM   20  C   UNL     1     -11.073  10.977  69.893  1.00  0.00    -0.276 C  
BRANCH  20  21
HETATM   21  C   UNL     1     -10.138   9.774  69.892  1.00  0.00    -0.288 C  
BRANCH  21  22
HETATM   22  C   UNL     1     -10.162   9.055  71.237  1.00  0.00    -0.384 C  
BRANCH  22  23
HETATM   23  C   UNL     1     -11.591   8.761  71.662  1.00  0.00    -0.320 C  
BRANCH  23  24
HETATM   24  O   UNL     1     -11.584   7.664  72.570  1.00  0.00    -0.323 OA 
BRANCH  24  25
HETATM   25  C   UNL     1     -12.145   6.503  71.962  1.00  0.00    -0.312 C  
BRANCH  25  26
HETATM   26  C   UNL     1     -11.033   5.560  71.535  1.00  0.00    -0.150 C  
BRANCH  26  27
HETATM   27  O   UNL     1     -10.906   5.611  70.114  1.00  0.00    -0.316 OA 
BRANCH  27  28
HETATM   28  C   UNL     1      -9.626   5.164  69.691  1.00  0.00    -0.167 C  
BRANCH  28  29
HETATM   29  C   UNL     1      -8.938   6.288  68.965  1.00  0.00    -0.123 A  
HETATM   30  C   UNL     1      -7.805   6.921  69.505  1.00  0.00    -0.120 A  
HETATM   31 CL   UNL     1      -7.166   6.504  71.059  1.00  0.00    -0.076 Cl 
HETATM   32  C   UNL     1      -7.137   7.932  68.800  1.00  0.00    -0.072 A  
HETATM   33  C   UNL     1      -7.602   8.345  67.557  1.00  0.00    -0.098 A  
HETATM   34  C   UNL     1      -8.753   7.769  67.029  1.00  0.00    -0.131 A  
HETATM   35  C   UNL     1      -9.422   6.758  67.731  1.00  0.00    -0.118 A  
HETATM   36 CL   UNL     1     -10.861   6.127  67.004  1.00  0.00    -0.416 Cl 
ENDBRANCH  28  29
ENDBRANCH  27  28
ENDBRANCH  26  27
ENDBRANCH  25  26
ENDBRANCH  24  25
ENDBRANCH  23  24
ENDBRANCH  22  23
ENDBRANCH  21  22
ENDBRANCH  20  21
ENDBRANCH  19  20
ENDBRANCH  18  19
ENDBRANCH  16  18
ENDBRANCH  15  16
ENDBRANCH  12  15
ENDBRANCH  10  12
ENDBRANCH   2   4
TORSDOF 16
ENDMDL
MODEL      245
REMARK 921   NORMALIZED FREE ENERGY PREDICTED BY IDOCK:   -4.47 KCAL/MOL
REMARK 922        TOTAL FREE ENERGY PREDICTED BY IDOCK:  -10.72 KCAL/MOL
REMARK 923 INTER-LIGAND FREE ENERGY PREDICTED BY IDOCK:   -9.57 KCAL/MOL
REMARK 924 INTRA-LIGAND FREE ENERGY PREDICTED BY IDOCK:   -1.14 KCAL/MOL
REMARK 927      BINDING AFFINITY PREDICTED BY RF-SCORE:    0.00 PKD
ROOT
HETATM    1  O   UNL     1     -11.380  16.560  70.399  1.00  0.00    -0.496 OA 
HETATM    2  C   UNL     1     -12.210  16.119  71.474  1.00  0.00    -0.306 C  
HETATM    3  H   UNL     1     -11.190  17.488  70.472  1.00  0.00     0.000 HD 
ENDROOT
BRANCH   2   4
HETATM    4  C   UNL     1     -12.510  14.648  71.357  1.00  0.00    -0.410 A  
HETATM    5  C   UNL     1     -13.256  13.937  72.304  1.00  0.00    -0.473 A  
HETATM    6  O   UNL     1     -13.833  14.554  73.379  1.00  0.00    -0.289 OA 
HETATM    7  C   UNL     1     -13.449  12.563  72.195  1.00  0.00    -0.523 A  
HETATM    8  C   UNL     1     -12.901  11.868  71.119  1.00  0.00    -0.346 A  
HETATM    9  H   UNL     1     -14.339  14.072  74.022  1.00  0.00     0.000 HD 
HETATM   10  C   UNL     1     -12.149  12.543  70.147  1.00  0.00    -0.368 A  
HETATM   11  C   UNL     1     -11.951  13.928  70.286  1.00  0.00    -0.401 A  
BRANCH  10  12
HETATM   12  C   UNL     1     -11.504  11.760  69.022  1.00  0.00    -0.297 C  
HETATM   13  O   UNL     1     -12.356  10.678  68.620  1.00  0.00    -0.820 OA 
HETATM   14  H   UNL     1     -11.952  10.187  67.915  1.00  0.00     0.000 HD 
BRANCH  12  15
HETATM   15  C   UNL     1     -11.232  12.681  67.815  1.00  0.00    -0.274 C  
BRANCH  15  16
HETATM   16  N   UNL     1     -10.066  12.220  67.042  1.00  0.00    -0.212 NA 
HETATM   17  H   UNL     1     -10.101  11.217  66.859  1.00  0.00     0.000 HD 
BRANCH  16  18
HETATM   18  C   UNL     1      -9.942  12.994  65.811  1.00  0.00    -0.254 C  
BRANCH  18  19
HETATM   19  C   UNL     1     -10.987  12.540  64.796  1.00  0.00    -0.339 C  
BRANCH  19  20
HETATM   20  C   UNL     1     -10.302  11.996  63.543  1.00  0.00    -0.492 C  
BRANCH  20  21
HETATM   21  C   UNL     1     -10.078  10.492  63.649  1.00  0.00    -0.219 C  
BRANCH  21  22
HETATM   22  C   UNL     1      -8.635  10.125  63.315  1.00  0.00    -0.198 C  
BRANCH  22  23
HETATM   23  C   UNL     1      -7.737  10.326  64.525  1.00  0.00    -0.107 C  
BRANCH  23  24
HETATM   24  O   UNL     1      -7.557   9.072  65.175  1.00  0.00    -0.095 OA 
BRANCH  24  25
HETATM   25  C   UNL     1      -7.901   9.166  66.556  1.00  0.00    -0.100 C  
BRANCH  25  26
HETATM   26  C   UNL     1      -9.385   8.893  66.734  1.00  0.00    -0.175 C  
BRANCH  26  27
HETATM   27  O   UNL     1      -9.645   7.527  66.409  1.00  0.00    -0.182 OA 
BRANCH  27  28
HETATM   28  C   UNL     1     -10.710   7.004  67.189  1.00  0.00    -0.363 C  
BRANCH  28  29
HETATM   29  C   UNL     1     -10.241   5.743  67.862  1.00  0.00    -0.231 A  
HETATM   30  C   UNL     1      -9.902   4.599  67.118  1.00  0.00    -0.195 A  
HETATM   31 CL   UNL     1     -10.062   4.538  65.396  1.00  0.00    -0.221 Cl 
HETATM   32  C   UNL     1      -9.416   3.445  67.747  1.00  0.00    -0.229 A  
HETATM   33  C   UNL     1      -9.283   3.403  69.130  1.00  0.00    -0.227 A  
HETATM   34  C   UNL     1      -9.664   4.504  69.890  1.00  0.00    -0.288 A  
HETATM   35  C   UNL     1     -10.150   5.660  69.264  1.00  0.00    -0.214 A  
HETATM   36 CL   UNL     1     -10.627   6.963  70.298  1.00  0.00    -0.232 Cl 
ENDBRANCH  28  29
ENDBRANCH  27  28
ENDBRANCH  26  27
ENDBRANCH  25  26
ENDBRANCH  24  25
ENDBRANCH  23  24
ENDBRANCH  22  23
ENDBRANCH  21  22
ENDBRANCH  20  21
ENDBRANCH  19  20
ENDBRANCH  18  19
ENDBRANCH  16  18
ENDBRANCH  15  16
ENDBRANCH  12  15
ENDBRANCH  10  12
ENDBRANCH   2   4
TORSDOF 16
ENDMDL
MODEL      246
REMARK 921   NORMALIZED FREE ENERGY PREDICTED BY IDOCK:   -4.46 KCAL/MOL
REMARK 922        TOTAL FREE ENERGY PREDICTED BY IDOCK:  -10.71 KCAL/MOL
REMARK 923 INTER-LIGAND FREE ENERGY PREDICTED BY IDOCK:   -8.61 KCAL/MOL
REMARK 924 INTRA-LIGAND FREE ENERGY PREDICTED BY IDOCK:   -2.11 KCAL/MOL
REMARK 927      BINDING AFFINITY PREDICTED BY RF-SCORE:    0.00 PKD
ROOT
HETATM    1  O   UNL     1     -13.081  16.147  73.608  1.00  0.00    -0.624 OA 
HETATM    2  C   UNL     1     -13.939  15.517  72.656  1.00  0.00    -0.528 C  
HETATM    3  H   UNL     1     -13.563  16.765  74.144  1.00  0.00     0.000 HD 
ENDROOT
BRANCH   2   4
HETATM    4  C   UNL     1     -13.175  14.535  71.806  1.00  0.00    -0.429 A  
HETATM    5  C   UNL     1     -12.200  14.917  70.877  1.00  0.00    -0.326 A  
HETATM    6  O   UNL     1     -11.818  16.221  70.727  1.00  0.00    -0.525 OA 
HETATM    7  C   UNL     1     -11.569  13.983  70.061  1.00  0.00    -0.302 A  
HETATM    8  C   UNL     1     -11.898  12.634  70.166  1.00  0.00    -0.326 A  
HETATM    9  H   UNL     1     -11.157  16.481  70.097  1.00  0.00     0.000 HD 
HETATM   10  C   UNL     1     -12.868  12.209  71.085  1.00  0.00    -0.313 A  
HETATM   11  C   UNL     1     -13.506  13.171  71.887  1.00  0.00    -0.513 A  
BRANCH  10  12
HETATM   12  C   UNL     1     -13.261  10.748  71.136  1.00  0.00    -0.175 C  
HETATM   13  O   UNL     1     -13.398  10.225  69.807  1.00  0.00    -0.403 OA 
HETATM   14  H   UNL     1     -13.645   9.308  69.839  1.00  0.00     0.000 HD 
BRANCH  12  15
HETATM   15  C   UNL     1     -12.200   9.933  71.906  1.00  0.00    -0.251 C  
BRANCH  15  16
HETATM   16  N   UNL     1     -12.779   8.705  72.478  1.00  0.00    -0.531 NA 
HETATM   17  H   UNL     1     -13.717   8.523  72.121  1.00  0.00     0.000 HD 
BRANCH  16  18
HETATM   18  C   UNL     1     -11.882   7.576  72.254  1.00  0.00    -0.289 C  
BRANCH  18  19
HETATM   19  C   UNL     1     -10.435   8.000  72.489  1.00  0.00    -0.383 C  
BRANCH  19  20
HETATM   20  C   UNL     1      -9.645   6.852  73.117  1.00  0.00    -0.183 C  
BRANCH  20  21
HETATM   21  C   UNL     1     -10.574   5.853  73.797  1.00  0.00    -0.275 C  
BRANCH  21  22
HETATM   22  C   UNL     1     -10.130   4.418  73.531  1.00  0.00    -0.195 C  
BRANCH  22  23
HETATM   23  C   UNL     1     -10.152   4.117  72.041  1.00  0.00    -0.164 C  
BRANCH  23  24
HETATM   24  O   UNL     1      -9.137   3.162  71.751  1.00  0.00    -0.093 OA 
BRANCH  24  25
HETATM   25  C   UNL     1      -8.493   3.470  70.517  1.00  0.00    -0.061 C  
BRANCH  25  26
HETATM   26  C   UNL     1      -9.048   4.771  69.960  1.00  0.00    -0.103 C  
BRANCH  26  27
HETATM   27  O   UNL     1      -8.193   5.843  70.356  1.00  0.00    -0.108 OA 
BRANCH  27  28
HETATM   28  C   UNL     1      -7.691   6.549  69.230  1.00  0.00    -0.101 C  
BRANCH  28  29
HETATM   29  C   UNL     1      -8.533   7.776  69.016  1.00  0.00    -0.132 A  
HETATM   30  C   UNL     1      -9.522   7.819  68.017  1.00  0.00    -0.144 A  
HETATM   31 CL   UNL     1      -9.794   6.500  66.931  1.00  0.00    -0.197 Cl 
HETATM   32  C   UNL     1     -10.338   8.947  67.856  1.00  0.00    -0.286 A  
HETATM   33  C   UNL     1     -10.166  10.060  68.671  1.00  0.00    -0.198 A  
HETATM   34  C   UNL     1      -9.157  10.059  69.629  1.00  0.00    -0.230 A  
HETATM   35  C   UNL     1      -8.340   8.933  69.793  1.00  0.00    -0.125 A  
HETATM   36 CL   UNL     1      -7.094   9.043  70.989  1.00  0.00    -0.093 Cl 
ENDBRANCH  28  29
ENDBRANCH  27  28
ENDBRANCH  26  27
ENDBRANCH  25  26
ENDBRANCH  24  25
ENDBRANCH  23  24
ENDBRANCH  22  23
ENDBRANCH  21  22
ENDBRANCH  20  21
ENDBRANCH  19  20
ENDBRANCH  18  19
ENDBRANCH  16  18
ENDBRANCH  15  16
ENDBRANCH  12  15
ENDBRANCH  10  12
ENDBRANCH   2   4
TORSDOF 16
ENDMDL
MODEL      247
REMARK 921   NORMALIZED FREE ENERGY PREDICTED BY IDOCK:   -4.46 KCAL/MOL
REMARK 922        TOTAL FREE ENERGY PREDICTED BY IDOCK:  -10.71 KCAL/MOL
REMARK 923 INTER-LIGAND FREE ENERGY PREDICTED BY IDOCK:   -9.85 KCAL/MOL
REMARK 924 INTRA-LIGAND FREE ENERGY PREDICTED BY IDOCK:   -0.86 KCAL/MOL
REMARK 927      BINDING AFFINITY PREDICTED BY RF-SCORE:    0.00 PKD
ROOT
HETATM    1  O   UNL     1      -9.747  20.487  66.094  1.00  0.00    -0.648 OA 
HETATM    2  C   UNL     1     -10.625  19.544  66.711  1.00  0.00    -0.488 C  
HETATM    3  H   UNL     1     -10.108  21.365  66.132  1.00  0.00     0.000 HD 
ENDROOT
BRANCH   2   4
HETATM    4  C   UNL     1     -10.051  18.152  66.651  1.00  0.00    -0.376 A  
HETATM    5  C   UNL     1      -8.851  17.787  67.271  1.00  0.00    -0.238 A  
HETATM    6  O   UNL     1      -8.144  18.663  68.047  1.00  0.00    -0.262 OA 
HETATM    7  C   UNL     1      -8.320  16.508  67.130  1.00  0.00    -0.206 A  
HETATM    8  C   UNL     1      -8.992  15.558  66.364  1.00  0.00    -0.359 A  
HETATM    9  H   UNL     1      -7.330  18.415  68.469  1.00  0.00     0.000 HD 
HETATM   10  C   UNL     1     -10.198  15.882  65.727  1.00  0.00    -0.389 A  
HETATM   11  C   UNL     1     -10.707  17.186  65.868  1.00  0.00    -0.132 A  
BRANCH  10  12
HETATM   12  C   UNL     1     -10.877  14.858  64.843  1.00  0.00    -0.413 C  
HETATM   13  O   UNL     1      -9.997  13.751  64.602  1.00  0.00    -0.620 OA 
HETATM   14  H   UNL     1     -10.424  13.107  64.048  1.00  0.00     0.000 HD 
BRANCH  12  15
HETATM   15  C   UNL     1     -12.175  14.353  65.507  1.00  0.00    -0.348 C  
BRANCH  15  16
HETATM   16  N   UNL     1     -12.100  14.453  66.974  1.00  0.00    -0.524 NA 
HETATM   17  H   UNL     1     -12.966  14.811  67.377  1.00  0.00     0.000 HD 
BRANCH  16  18
HETATM   18  C   UNL     1     -11.724  13.165  67.548  1.00  0.00    -0.366 C  
BRANCH  18  19
HETATM   19  C   UNL     1     -11.191  13.356  68.965  1.00  0.00    -0.323 C  
BRANCH  19  20
HETATM   20  C   UNL     1     -12.293  13.900  69.873  1.00  0.00    -0.358 C  
BRANCH  20  21
HETATM   21  C   UNL     1     -12.656  12.894  70.959  1.00  0.00    -0.376 C  
BRANCH  21  22
HETATM   22  C   UNL     1     -12.034  11.530  70.678  1.00  0.00    -0.391 C  
BRANCH  22  23
HETATM   23  C   UNL     1     -12.873  10.421  71.293  1.00  0.00    -0.433 C  
BRANCH  23  24
HETATM   24  O   UNL     1     -12.099   9.226  71.328  1.00  0.00    -0.303 OA 
BRANCH  24  25
HETATM   25  C   UNL     1     -10.857   9.410  70.652  1.00  0.00    -0.283 C  
BRANCH  25  26
HETATM   26  C   UNL     1     -10.553   8.190  69.799  1.00  0.00    -0.231 C  
BRANCH  26  27
HETATM   27  O   UNL     1     -11.357   7.101  70.249  1.00  0.00    -0.281 OA 
BRANCH  27  28
HETATM   28  C   UNL     1     -10.870   5.860  69.760  1.00  0.00    -0.377 C  
BRANCH  28  29
HETATM   29  C   UNL     1      -9.633   5.489  70.532  1.00  0.00    -0.225 A  
HETATM   30  C   UNL     1      -9.657   5.356  71.932  1.00  0.00    -0.154 A  
HETATM   31 CL   UNL     1     -11.080   5.671  72.864  1.00  0.00    -0.317 Cl 
HETATM   32  C   UNL     1      -8.515   4.961  72.640  1.00  0.00    -0.119 A  
HETATM   33  C   UNL     1      -7.322   4.715  71.968  1.00  0.00    -0.072 A  
HETATM   34  C   UNL     1      -7.262   4.893  70.590  1.00  0.00    -0.053 A  
HETATM   35  C   UNL     1      -8.403   5.288  69.879  1.00  0.00    -0.094 A  
HETATM   36 CL   UNL     1      -8.218   5.513  68.173  1.00  0.00    -0.096 Cl 
ENDBRANCH  28  29
ENDBRANCH  27  28
ENDBRANCH  26  27
ENDBRANCH  25  26
ENDBRANCH  24  25
ENDBRANCH  23  24
ENDBRANCH  22  23
ENDBRANCH  21  22
ENDBRANCH  20  21
ENDBRANCH  19  20
ENDBRANCH  18  19
ENDBRANCH  16  18
ENDBRANCH  15  16
ENDBRANCH  12  15
ENDBRANCH  10  12
ENDBRANCH   2   4
TORSDOF 16
ENDMDL
MODEL      248
REMARK 921   NORMALIZED FREE ENERGY PREDICTED BY IDOCK:   -4.46 KCAL/MOL
REMARK 922        TOTAL FREE ENERGY PREDICTED BY IDOCK:  -10.70 KCAL/MOL
REMARK 923 INTER-LIGAND FREE ENERGY PREDICTED BY IDOCK:   -9.90 KCAL/MOL
REMARK 924 INTRA-LIGAND FREE ENERGY PREDICTED BY IDOCK:   -0.80 KCAL/MOL
REMARK 927      BINDING AFFINITY PREDICTED BY RF-SCORE:    0.00 PKD
ROOT
HETATM    1  O   UNL     1      -9.534   3.110  68.941  1.00  0.00    -0.168 OA 
HETATM    2  C   UNL     1      -8.840   4.079  69.729  1.00  0.00    -0.089 C  
HETATM    3  H   UNL     1      -8.974   2.761  68.258  1.00  0.00     0.000 HD 
ENDROOT
BRANCH   2   4
HETATM    4  C   UNL     1      -9.728   4.631  70.813  1.00  0.00    -0.269 A  
HETATM    5  C   UNL     1      -9.788   4.098  72.105  1.00  0.00    -0.169 A  
HETATM    6  O   UNL     1      -8.979   3.068  72.499  1.00  0.00    -0.085 OA 
HETATM    7  C   UNL     1     -10.675   4.594  73.055  1.00  0.00    -0.302 A  
HETATM    8  C   UNL     1     -11.523   5.651  72.730  1.00  0.00    -0.328 A  
HETATM    9  H   UNL     1      -9.020   2.706  73.375  1.00  0.00     0.000 HD 
HETATM   10  C   UNL     1     -11.493   6.215  71.447  1.00  0.00    -0.317 A  
HETATM   11  C   UNL     1     -10.601   5.687  70.496  1.00  0.00    -0.354 A  
BRANCH  10  12
HETATM   12  C   UNL     1     -12.469   7.317  71.091  1.00  0.00    -0.336 C  
HETATM   13  O   UNL     1     -13.563   7.328  72.019  1.00  0.00    -0.521 OA 
HETATM   14  H   UNL     1     -14.175   8.020  71.796  1.00  0.00     0.000 HD 
BRANCH  12  15
HETATM   15  C   UNL     1     -11.760   8.688  71.109  1.00  0.00    -0.288 C  
BRANCH  15  16
HETATM   16  N   UNL     1     -11.781   9.319  69.779  1.00  0.00    -0.419 NA 
HETATM   17  H   UNL     1     -12.629   9.089  69.260  1.00  0.00     0.000 HD 
BRANCH  16  18
HETATM   18  C   UNL     1     -11.593  10.760  69.904  1.00  0.00    -0.331 C  
BRANCH  18  19
HETATM   19  C   UNL     1     -11.495  11.400  68.521  1.00  0.00    -0.361 C  
BRANCH  19  20
HETATM   20  C   UNL     1     -10.877  10.415  67.529  1.00  0.00    -0.358 C  
BRANCH  20  21
HETATM   21  C   UNL     1     -10.568  11.095  66.200  1.00  0.00    -0.305 C  
BRANCH  21  22
HETATM   22  C   UNL     1     -11.545  12.233  65.923  1.00  0.00    -0.450 C  
BRANCH  22  23
HETATM   23  C   UNL     1     -11.190  12.939  64.624  1.00  0.00    -0.320 C  
BRANCH  23  24
HETATM   24  O   UNL     1     -11.484  14.326  64.761  1.00  0.00    -0.359 OA 
BRANCH  24  25
HETATM   25  C   UNL     1     -10.289  15.077  64.964  1.00  0.00    -0.357 C  
BRANCH  25  26
HETATM   26  C   UNL     1     -10.558  16.216  65.932  1.00  0.00    -0.312 C  
BRANCH  26  27
HETATM   27  O   UNL     1      -9.670  16.096  67.044  1.00  0.00    -0.224 OA 
BRANCH  27  28
HETATM   28  C   UNL     1      -9.910  17.107  68.011  1.00  0.00    -0.283 C  
BRANCH  28  29
HETATM   29  C   UNL     1      -8.864  18.178  67.861  1.00  0.00    -0.273 A  
HETATM   30  C   UNL     1      -9.133  19.372  67.170  1.00  0.00    -0.303 A  
HETATM   31 CL   UNL     1     -10.652  19.666  66.392  1.00  0.00    -0.585 Cl 
HETATM   32  C   UNL     1      -8.171  20.387  67.077  1.00  0.00    -0.349 A  
HETATM   33  C   UNL     1      -6.916  20.218  67.651  1.00  0.00    -0.317 A  
HETATM   34  C   UNL     1      -6.610  19.022  68.293  1.00  0.00    -0.265 A  
HETATM   35  C   UNL     1      -7.570  18.006  68.387  1.00  0.00    -0.284 A  
HETATM   36 CL   UNL     1      -7.082  16.545  69.176  1.00  0.00    -0.220 Cl 
ENDBRANCH  28  29
ENDBRANCH  27  28
ENDBRANCH  26  27
ENDBRANCH  25  26
ENDBRANCH  24  25
ENDBRANCH  23  24
ENDBRANCH  22  23
ENDBRANCH  21  22
ENDBRANCH  20  21
ENDBRANCH  19  20
ENDBRANCH  18  19
ENDBRANCH  16  18
ENDBRANCH  15  16
ENDBRANCH  12  15
ENDBRANCH  10  12
ENDBRANCH   2   4
TORSDOF 16
ENDMDL
MODEL      249
REMARK 921   NORMALIZED FREE ENERGY PREDICTED BY IDOCK:   -4.46 KCAL/MOL
REMARK 922        TOTAL FREE ENERGY PREDICTED BY IDOCK:  -10.70 KCAL/MOL
REMARK 923 INTER-LIGAND FREE ENERGY PREDICTED BY IDOCK:   -8.58 KCAL/MOL
REMARK 924 INTRA-LIGAND FREE ENERGY PREDICTED BY IDOCK:   -2.11 KCAL/MOL
REMARK 927      BINDING AFFINITY PREDICTED BY RF-SCORE:    0.00 PKD
ROOT
HETATM    1  O   UNL     1      -7.939   8.998  71.690  1.00  0.00    -0.326 OA 
HETATM    2  C   UNL     1      -8.054   7.681  72.231  1.00  0.00    -0.107 C  
HETATM    3  H   UNL     1      -7.351   9.531  72.212  1.00  0.00     0.000 HD 
ENDROOT
BRANCH   2   4
HETATM    4  C   UNL     1      -8.986   6.836  71.403  1.00  0.00    -0.142 A  
HETATM    5  C   UNL     1      -9.226   5.481  71.657  1.00  0.00    -0.142 A  
HETATM    6  O   UNL     1      -8.679   4.840  72.734  1.00  0.00    -0.113 OA 
HETATM    7  C   UNL     1     -10.039   4.718  70.823  1.00  0.00    -0.286 A  
HETATM    8  C   UNL     1     -10.641   5.306  69.713  1.00  0.00    -0.283 A  
HETATM    9  H   UNL     1      -8.842   3.921  72.906  1.00  0.00     0.000 HD 
HETATM   10  C   UNL     1     -10.428   6.661  69.424  1.00  0.00    -0.254 A  
HETATM   11  C   UNL     1      -9.588   7.409  70.269  1.00  0.00    -0.165 A  
BRANCH  10  12
HETATM   12  C   UNL     1     -11.035   7.265  68.175  1.00  0.00     0.007 C  
HETATM   13  O   UNL     1     -10.639   8.637  68.046  1.00  0.00    -0.340 OA 
HETATM   14  H   UNL     1     -11.019   9.016  67.262  1.00  0.00     0.000 HD 
BRANCH  12  15
HETATM   15  C   UNL     1     -10.587   6.477  66.926  1.00  0.00    -0.305 C  
BRANCH  15  16
HETATM   16  N   UNL     1      -9.660   7.266  66.098  1.00  0.00    -0.408 NA 
HETATM   17  H   UNL     1      -9.802   8.270  66.216  1.00  0.00     0.000 HD 
BRANCH  16  18
HETATM   18  C   UNL     1      -8.282   6.875  66.376  1.00  0.00    -0.117 C  
BRANCH  18  19
HETATM   19  C   UNL     1      -7.482   8.080  66.865  1.00  0.00    -0.091 C  
BRANCH  19  20
HETATM   20  C   UNL     1      -6.657   8.665  65.719  1.00  0.00    -0.057 C  
BRANCH  20  21
HETATM   21  C   UNL     1      -7.228  10.002  65.259  1.00  0.00    -0.137 C  
BRANCH  21  22
HETATM   22  C   UNL     1      -8.093  10.635  66.343  1.00  0.00    -0.148 C  
BRANCH  22  23
HETATM   23  C   UNL     1      -9.443  11.048  65.778  1.00  0.00    -0.210 C  
BRANCH  23  24
HETATM   24  O   UNL     1      -9.465  12.464  65.632  1.00  0.00    -0.168 OA 
BRANCH  24  25
HETATM   25  C   UNL     1     -10.382  13.052  66.553  1.00  0.00    -0.274 C  
BRANCH  25  26
HETATM   26  C   UNL     1     -11.741  12.387  66.417  1.00  0.00    -0.391 C  
BRANCH  26  27
HETATM   27  O   UNL     1     -12.178  11.962  67.709  1.00  0.00    -0.508 OA 
BRANCH  27  28
HETATM   28  C   UNL     1     -11.248  12.330  68.717  1.00  0.00    -0.265 C  
BRANCH  28  29
HETATM   29  C   UNL     1     -12.008  12.743  69.948  1.00  0.00    -0.368 A  
HETATM   30  C   UNL     1     -12.339  14.088  70.186  1.00  0.00    -0.345 A  
HETATM   31 CL   UNL     1     -11.843  15.363  69.126  1.00  0.00    -0.359 Cl 
HETATM   32  C   UNL     1     -13.092  14.460  71.308  1.00  0.00    -0.421 A  
HETATM   33  C   UNL     1     -13.507  13.499  72.224  1.00  0.00    -0.669 A  
HETATM   34  C   UNL     1     -13.144  12.169  72.035  1.00  0.00    -0.462 A  
HETATM   35  C   UNL     1     -12.392  11.795  70.915  1.00  0.00    -0.320 A  
HETATM   36 CL   UNL     1     -11.964  10.123  70.787  1.00  0.00    -0.408 Cl 
ENDBRANCH  28  29
ENDBRANCH  27  28
ENDBRANCH  26  27
ENDBRANCH  25  26
ENDBRANCH  24  25
ENDBRANCH  23  24
ENDBRANCH  22  23
ENDBRANCH  21  22
ENDBRANCH  20  21
ENDBRANCH  19  20
ENDBRANCH  18  19
ENDBRANCH  16  18
ENDBRANCH  15  16
ENDBRANCH  12  15
ENDBRANCH  10  12
ENDBRANCH   2   4
TORSDOF 16
ENDMDL
MODEL      250
REMARK 921   NORMALIZED FREE ENERGY PREDICTED BY IDOCK:   -4.45 KCAL/MOL
REMARK 922        TOTAL FREE ENERGY PREDICTED BY IDOCK:  -10.69 KCAL/MOL
REMARK 923 INTER-LIGAND FREE ENERGY PREDICTED BY IDOCK:   -9.65 KCAL/MOL
REMARK 924 INTRA-LIGAND FREE ENERGY PREDICTED BY IDOCK:   -1.04 KCAL/MOL
REMARK 927      BINDING AFFINITY PREDICTED BY RF-SCORE:    0.00 PKD
ROOT
HETATM    1  O   UNL     1     -14.182   7.275  70.882  1.00  0.00    -0.538 OA 
HETATM    2  C   UNL     1     -12.940   7.422  71.571  1.00  0.00    -0.375 C  
HETATM    3  H   UNL     1     -14.860   7.806  71.283  1.00  0.00     0.000 HD 
ENDROOT
BRANCH   2   4
HETATM    4  C   UNL     1     -11.866   6.579  70.934  1.00  0.00    -0.391 A  
HETATM    5  C   UNL     1     -11.037   5.713  71.656  1.00  0.00    -0.181 A  
HETATM    6  O   UNL     1     -11.197   5.516  73.000  1.00  0.00    -0.285 OA 
HETATM    7  C   UNL     1     -10.009   5.007  71.039  1.00  0.00    -0.281 A  
HETATM    8  C   UNL     1      -9.794   5.149  69.670  1.00  0.00    -0.286 A  
HETATM    9  H   UNL     1     -10.635   4.928  73.490  1.00  0.00     0.000 HD 
HETATM   10  C   UNL     1     -10.603   6.005  68.909  1.00  0.00    -0.356 A  
HETATM   11  C   UNL     1     -11.624   6.723  69.556  1.00  0.00    -0.183 A  
BRANCH  10  12
HETATM   12  C   UNL     1     -10.310   6.198  67.436  1.00  0.00    -0.211 C  
HETATM   13  O   UNL     1     -11.535   6.307  66.697  1.00  0.00    -0.693 OA 
HETATM   14  H   UNL     1     -11.351   6.429  65.773  1.00  0.00     0.000 HD 
BRANCH  12  15
HETATM   15  C   UNL     1      -9.460   7.468  67.220  1.00  0.00    -0.151 C  
BRANCH  15  16
HETATM   16  N   UNL     1      -8.436   7.258  66.183  1.00  0.00    -0.135 NA 
HETATM   17  H   UNL     1      -8.752   7.571  65.265  1.00  0.00     0.000 HD 
BRANCH  16  18
HETATM   18  C   UNL     1      -7.185   7.898  66.576  1.00  0.00    -0.083 C  
BRANCH  18  19
HETATM   19  C   UNL     1      -6.336   8.193  65.342  1.00  0.00    -0.048 C  
BRANCH  19  20
HETATM   20  C   UNL     1      -7.082   7.771  64.076  1.00  0.00    -0.072 C  
BRANCH  20  21
HETATM   21  C   UNL     1      -7.346   8.967  63.170  1.00  0.00    -0.096 C  
BRANCH  21  22
HETATM   22  C   UNL     1      -8.704   9.595  63.467  1.00  0.00    -0.236 C  
BRANCH  22  23
HETATM   23  C   UNL     1      -8.990  10.735  62.502  1.00  0.00    -0.311 C  
BRANCH  23  24
HETATM   24  O   UNL     1      -9.616  11.795  63.218  1.00  0.00    -0.349 OA 
BRANCH  24  25
HETATM   25  C   UNL     1     -10.826  11.347  63.826  1.00  0.00    -0.395 C  
BRANCH  25  26
HETATM   26  C   UNL     1     -11.840  12.479  63.844  1.00  0.00    -0.463 C  
BRANCH  26  27
HETATM   27  O   UNL     1     -12.605  12.393  65.046  1.00  0.00    -0.601 OA 
BRANCH  27  28
HETATM   28  C   UNL     1     -12.611  13.629  65.746  1.00  0.00    -0.461 C  
BRANCH  28  29
HETATM   29  C   UNL     1     -11.218  13.910  66.241  1.00  0.00    -0.310 A  
HETATM   30  C   UNL     1     -10.600  13.081  67.193  1.00  0.00    -0.246 A  
HETATM   31 CL   UNL     1     -11.412  11.730  67.908  1.00  0.00    -0.371 Cl 
HETATM   32  C   UNL     1      -9.283  13.317  67.612  1.00  0.00    -0.209 A  
HETATM   33  C   UNL     1      -8.570  14.399  67.107  1.00  0.00    -0.237 A  
HETATM   34  C   UNL     1      -9.182  15.263  66.205  1.00  0.00    -0.345 A  
HETATM   35  C   UNL     1     -10.498  15.028  65.784  1.00  0.00    -0.337 A  
HETATM   36 CL   UNL     1     -11.180  16.178  64.684  1.00  0.00    -0.411 Cl 
ENDBRANCH  28  29
ENDBRANCH  27  28
ENDBRANCH  26  27
ENDBRANCH  25  26
ENDBRANCH  24  25
ENDBRANCH  23  24
ENDBRANCH  22  23
ENDBRANCH  21  22
ENDBRANCH  20  21
ENDBRANCH  19  20
ENDBRANCH  18  19
ENDBRANCH  16  18
ENDBRANCH  15  16
ENDBRANCH  12  15
ENDBRANCH  10  12
ENDBRANCH   2   4
TORSDOF 16
ENDMDL
MODEL      251
REMARK 921   NORMALIZED FREE ENERGY PREDICTED BY IDOCK:   -4.45 KCAL/MOL
REMARK 922        TOTAL FREE ENERGY PREDICTED BY IDOCK:  -10.68 KCAL/MOL
REMARK 923 INTER-LIGAND FREE ENERGY PREDICTED BY IDOCK:   -9.53 KCAL/MOL
REMARK 924 INTRA-LIGAND FREE ENERGY PREDICTED BY IDOCK:   -1.15 KCAL/MOL
REMARK 927      BINDING AFFINITY PREDICTED BY RF-SCORE:    0.00 PKD
ROOT
HETATM    1  O   UNL     1     -12.215  12.286  64.463  1.00  0.00    -0.410 OA 
HETATM    2  C   UNL     1     -12.106  13.640  64.023  1.00  0.00    -0.425 C  
HETATM    3  H   UNL     1     -12.648  11.749  63.810  1.00  0.00     0.000 HD 
ENDROOT
BRANCH   2   4
HETATM    4  C   UNL     1     -11.418  14.491  65.059  1.00  0.00    -0.382 A  
HETATM    5  C   UNL     1     -11.116  15.844  64.866  1.00  0.00    -0.389 A  
HETATM    6  O   UNL     1     -11.494  16.514  63.736  1.00  0.00    -1.615 OA 
HETATM    7  C   UNL     1     -10.415  16.575  65.821  1.00  0.00    -0.343 A  
HETATM    8  C   UNL     1     -10.007  15.962  67.004  1.00  0.00    -0.248 A  
HETATM    9  H   UNL     1     -11.289  17.432  63.605  1.00  0.00     0.000 HD 
HETATM   10  C   UNL     1     -10.292  14.609  67.237  1.00  0.00    -0.256 A  
HETATM   11  C   UNL     1     -10.985  13.884  66.251  1.00  0.00    -0.298 A  
BRANCH  10  12
HETATM   12  C   UNL     1      -9.781  13.943  68.497  1.00  0.00    -0.202 C  
HETATM   13  O   UNL     1     -10.648  14.239  69.601  1.00  0.00    -0.440 OA 
HETATM   14  H   UNL     1     -10.327  13.821  70.391  1.00  0.00     0.000 HD 
BRANCH  12  15
HETATM   15  C   UNL     1      -9.697  12.415  68.300  1.00  0.00    -0.218 C  
BRANCH  15  16
HETATM   16  N   UNL     1      -8.415  11.881  68.789  1.00  0.00    -0.352 NA 
HETATM   17  H   UNL     1      -8.548  11.124  69.461  1.00  0.00     0.000 HD 
BRANCH  16  18
HETATM   18  C   UNL     1      -7.580  11.471  67.665  1.00  0.00    -0.115 C  
BRANCH  18  19
HETATM   19  C   UNL     1      -8.447  11.185  66.443  1.00  0.00    -0.167 C  
BRANCH  19  20
HETATM   20  C   UNL     1      -8.197   9.762  65.942  1.00  0.00    -0.117 C  
BRANCH  20  21
HETATM   21  C   UNL     1      -9.509   9.022  65.712  1.00  0.00    -0.305 C  
BRANCH  21  22
HETATM   22  C   UNL     1     -10.208   8.714  67.033  1.00  0.00    -0.360 C  
BRANCH  22  23
HETATM   23  C   UNL     1     -10.821   7.323  67.003  1.00  0.00    -0.280 C  
BRANCH  23  24
HETATM   24  O   UNL     1      -9.857   6.408  66.494  1.00  0.00    -0.164 OA 
BRANCH  24  25
HETATM   25  C   UNL     1      -9.902   5.177  67.212  1.00  0.00    -0.168 C  
BRANCH  25  26
HETATM   26  C   UNL     1     -10.213   5.448  68.675  1.00  0.00    -0.176 C  
BRANCH  26  27
HETATM   27  O   UNL     1      -8.986   5.653  69.376  1.00  0.00    -0.113 OA 
BRANCH  27  28
HETATM   28  C   UNL     1      -9.130   6.633  70.394  1.00  0.00    -0.152 C  
BRANCH  28  29
HETATM   29  C   UNL     1      -9.698   5.973  71.621  1.00  0.00    -0.180 A  
HETATM   30  C   UNL     1      -8.875   5.278  72.525  1.00  0.00    -0.127 A  
HETATM   31 CL   UNL     1      -7.177   5.075  72.259  1.00  0.00    -0.086 Cl 
HETATM   32  C   UNL     1      -9.402   4.710  73.692  1.00  0.00    -0.124 A  
HETATM   33  C   UNL     1     -10.762   4.804  73.967  1.00  0.00    -0.358 A  
HETATM   34  C   UNL     1     -11.602   5.441  73.059  1.00  0.00    -0.268 A  
HETATM   35  C   UNL     1     -11.078   6.010  71.891  1.00  0.00    -0.277 A  
HETATM   36 CL   UNL     1     -12.209   6.752  70.811  1.00  0.00    -0.417 Cl 
ENDBRANCH  28  29
ENDBRANCH  27  28
ENDBRANCH  26  27
ENDBRANCH  25  26
ENDBRANCH  24  25
ENDBRANCH  23  24
ENDBRANCH  22  23
ENDBRANCH  21  22
ENDBRANCH  20  21
ENDBRANCH  19  20
ENDBRANCH  18  19
ENDBRANCH  16  18
ENDBRANCH  15  16
ENDBRANCH  12  15
ENDBRANCH  10  12
ENDBRANCH   2   4
TORSDOF 16
ENDMDL
MODEL      252
REMARK 921   NORMALIZED FREE ENERGY PREDICTED BY IDOCK:   -4.44 KCAL/MOL
REMARK 922        TOTAL FREE ENERGY PREDICTED BY IDOCK:  -10.67 KCAL/MOL
REMARK 923 INTER-LIGAND FREE ENERGY PREDICTED BY IDOCK:   -9.32 KCAL/MOL
REMARK 924 INTRA-LIGAND FREE ENERGY PREDICTED BY IDOCK:   -1.36 KCAL/MOL
REMARK 927      BINDING AFFINITY PREDICTED BY RF-SCORE:    0.00 PKD
ROOT
HETATM    1  O   UNL     1     -11.740  16.595  63.837  1.00  0.00    -1.487 OA 
HETATM    2  C   UNL     1     -11.149  16.301  65.103  1.00  0.00    -0.212 C  
HETATM    3  H   UNL     1     -11.660  17.519  63.630  1.00  0.00     0.000 HD 
ENDROOT
BRANCH   2   4
HETATM    4  C   UNL     1     -11.276  14.836  65.431  1.00  0.00    -0.347 A  
HETATM    5  C   UNL     1     -11.741  14.361  66.663  1.00  0.00    -0.394 A  
HETATM    6  O   UNL     1     -12.187  15.206  67.641  1.00  0.00    -0.391 OA 
HETATM    7  C   UNL     1     -11.774  12.999  66.951  1.00  0.00    -0.441 A  
HETATM    8  C   UNL     1     -11.347  12.077  65.998  1.00  0.00    -0.398 A  
HETATM    9  H   UNL     1     -12.502  14.884  68.476  1.00  0.00     0.000 HD 
HETATM   10  C   UNL     1     -10.875  12.511  64.751  1.00  0.00    -0.332 A  
HETATM   11  C   UNL     1     -10.833  13.892  64.488  1.00  0.00    -0.381 A  
BRANCH  10  12
HETATM   12  C   UNL     1     -10.351  11.498  63.755  1.00  0.00    -0.399 C  
HETATM   13  O   UNL     1      -9.231  12.040  63.041  1.00  0.00    -0.647 OA 
HETATM   14  H   UNL     1      -8.902  11.405  62.417  1.00  0.00     0.000 HD 
BRANCH  12  15
HETATM   15  C   UNL     1      -9.926  10.204  64.480  1.00  0.00    -0.205 C  
BRANCH  15  16
HETATM   16  N   UNL     1      -9.407   9.204  63.531  1.00  0.00    -0.335 NA 
HETATM   17  H   UNL     1      -9.504   9.511  62.563  1.00  0.00     0.000 HD 
BRANCH  16  18
HETATM   18  C   UNL     1      -8.026   8.868  63.860  1.00  0.00    -0.154 C  
BRANCH  18  19
HETATM   19  C   UNL     1      -7.961   8.196  65.229  1.00  0.00    -0.126 C  
BRANCH  19  20
HETATM   20  C   UNL     1      -7.006   8.960  66.145  1.00  0.00    -0.081 C  
BRANCH  20  21
HETATM   21  C   UNL     1      -7.643   9.225  67.505  1.00  0.00    -0.088 C  
BRANCH  21  22
HETATM   22  C   UNL     1      -6.780   8.672  68.635  1.00  0.00    -0.059 C  
BRANCH  22  23
HETATM   23  C   UNL     1      -7.284   7.308  69.076  1.00  0.00    -0.089 C  
BRANCH  23  24
HETATM   24  O   UNL     1      -6.236   6.358  68.917  1.00  0.00    -0.030 OA 
BRANCH  24  25
HETATM   25  C   UNL     1      -6.333   5.706  67.653  1.00  0.00    -0.042 C  
BRANCH  25  26
HETATM   26  C   UNL     1      -7.746   5.182  67.454  1.00  0.00    -0.092 C  
BRANCH  26  27
HETATM   27  O   UNL     1      -8.024   4.214  68.465  1.00  0.00    -0.072 OA 
BRANCH  27  28
HETATM   28  C   UNL     1      -9.414   3.928  68.540  1.00  0.00    -0.148 C  
BRANCH  28  29
HETATM   29  C   UNL     1     -10.029   4.798  69.602  1.00  0.00    -0.297 A  
HETATM   30  C   UNL     1     -10.772   5.944  69.269  1.00  0.00    -0.331 A  
HETATM   31 CL   UNL     1     -10.975   6.469  67.632  1.00  0.00    -0.408 Cl 
HETATM   32  C   UNL     1     -11.386   6.722  70.260  1.00  0.00    -0.404 A  
HETATM   33  C   UNL     1     -11.248   6.384  71.602  1.00  0.00    -0.327 A  
HETATM   34  C   UNL     1     -10.473   5.285  71.957  1.00  0.00    -0.283 A  
HETATM   35  C   UNL     1      -9.858   4.506  70.968  1.00  0.00    -0.196 A  
HETATM   36 CL   UNL     1      -8.888   3.180  71.513  1.00  0.00    -0.120 Cl 
ENDBRANCH  28  29
ENDBRANCH  27  28
ENDBRANCH  26  27
ENDBRANCH  25  26
ENDBRANCH  24  25
ENDBRANCH  23  24
ENDBRANCH  22  23
ENDBRANCH  21  22
ENDBRANCH  20  21
ENDBRANCH  19  20
ENDBRANCH  18  19
ENDBRANCH  16  18
ENDBRANCH  15  16
ENDBRANCH  12  15
ENDBRANCH  10  12
ENDBRANCH   2   4
TORSDOF 16
ENDMDL
MODEL      253
REMARK 921   NORMALIZED FREE ENERGY PREDICTED BY IDOCK:   -4.44 KCAL/MOL
REMARK 922        TOTAL FREE ENERGY PREDICTED BY IDOCK:  -10.67 KCAL/MOL
REMARK 923 INTER-LIGAND FREE ENERGY PREDICTED BY IDOCK:   -9.68 KCAL/MOL
REMARK 924 INTRA-LIGAND FREE ENERGY PREDICTED BY IDOCK:   -0.98 KCAL/MOL
REMARK 927      BINDING AFFINITY PREDICTED BY RF-SCORE:    0.00 PKD
ROOT
HETATM    1  O   UNL     1     -11.061  17.719  64.793  1.00  0.00    -0.852 OA 
HETATM    2  C   UNL     1     -10.888  18.856  65.640  1.00  0.00    -0.051 C  
HETATM    3  H   UNL     1     -11.749  17.869  64.157  1.00  0.00     0.000 HD 
ENDROOT
BRANCH   2   4
HETATM    4  C   UNL     1      -9.795  18.617  66.649  1.00  0.00    -0.377 A  
HETATM    5  C   UNL     1      -9.149  19.648  67.341  1.00  0.00    -0.315 A  
HETATM    6  O   UNL     1      -9.520  20.956  67.200  1.00  0.00    -0.656 OA 
HETATM    7  C   UNL     1      -8.095  19.388  68.212  1.00  0.00    -0.371 A  
HETATM    8  C   UNL     1      -7.669  18.078  68.416  1.00  0.00    -0.291 A  
HETATM    9  H   UNL     1      -9.082  21.655  67.669  1.00  0.00     0.000 HD 
HETATM   10  C   UNL     1      -8.290  17.016  67.744  1.00  0.00    -0.199 A  
HETATM   11  C   UNL     1      -9.341  17.302  66.854  1.00  0.00    -0.264 A  
BRANCH  10  12
HETATM   12  C   UNL     1      -7.768  15.607  67.926  1.00  0.00    -0.131 C  
HETATM   13  O   UNL     1      -6.352  15.571  67.704  1.00  0.00    -0.141 OA 
HETATM   14  H   UNL     1      -6.024  14.686  67.819  1.00  0.00     0.000 HD 
BRANCH  12  15
HETATM   15  C   UNL     1      -8.083  15.097  69.348  1.00  0.00    -0.200 C  
BRANCH  15  16
HETATM   16  N   UNL     1      -9.524  14.842  69.519  1.00  0.00    -0.425 NA 
HETATM   17  H   UNL     1     -10.078  15.691  69.404  1.00  0.00     0.000 HD 
BRANCH  16  18
HETATM   18  C   UNL     1      -9.957  13.782  68.615  1.00  0.00    -0.174 C  
BRANCH  18  19
HETATM   19  C   UNL     1     -11.449  13.518  68.792  1.00  0.00    -0.349 C  
BRANCH  19  20
HETATM   20  C   UNL     1     -11.953  14.182  70.073  1.00  0.00    -0.404 C  
BRANCH  20  21
HETATM   21  C   UNL     1     -12.521  13.151  71.040  1.00  0.00    -0.406 C  
BRANCH  21  22
HETATM   22  C   UNL     1     -12.236  11.730  70.562  1.00  0.00    -0.438 C  
BRANCH  22  23
HETATM   23  C   UNL     1     -13.050  10.723  71.359  1.00  0.00    -0.369 C  
BRANCH  23  24
HETATM   24  O   UNL     1     -12.613   9.411  71.021  1.00  0.00    -0.294 OA 
BRANCH  24  25
HETATM   25  C   UNL     1     -11.331   9.145  71.586  1.00  0.00    -0.376 C  
BRANCH  25  26
HETATM   26  C   UNL     1     -11.462   8.107  72.688  1.00  0.00    -0.387 C  
BRANCH  26  27
HETATM   27  O   UNL     1     -10.461   7.106  72.499  1.00  0.00    -0.204 OA 
BRANCH  27  28
HETATM   28  C   UNL     1     -11.017   5.800  72.556  1.00  0.00    -0.263 C  
BRANCH  28  29
HETATM   29  C   UNL     1     -10.234   4.903  71.636  1.00  0.00    -0.267 A  
HETATM   30  C   UNL     1     -10.280   5.068  70.241  1.00  0.00    -0.258 A  
HETATM   31 CL   UNL     1     -11.281   6.259  69.484  1.00  0.00    -0.479 Cl 
HETATM   32  C   UNL     1      -9.508   4.262  69.392  1.00  0.00    -0.256 A  
HETATM   33  C   UNL     1      -8.698   3.263  69.919  1.00  0.00    -0.134 A  
HETATM   34  C   UNL     1      -8.679   3.048  71.293  1.00  0.00    -0.121 A  
HETATM   35  C   UNL     1      -9.449   3.852  72.144  1.00  0.00    -0.132 A  
HETATM   36 CL   UNL     1      -9.382   3.484  73.834  1.00  0.00    -0.101 Cl 
ENDBRANCH  28  29
ENDBRANCH  27  28
ENDBRANCH  26  27
ENDBRANCH  25  26
ENDBRANCH  24  25
ENDBRANCH  23  24
ENDBRANCH  22  23
ENDBRANCH  21  22
ENDBRANCH  20  21
ENDBRANCH  19  20
ENDBRANCH  18  19
ENDBRANCH  16  18
ENDBRANCH  15  16
ENDBRANCH  12  15
ENDBRANCH  10  12
ENDBRANCH   2   4
TORSDOF 16
ENDMDL
MODEL      254
REMARK 921   NORMALIZED FREE ENERGY PREDICTED BY IDOCK:   -4.44 KCAL/MOL
REMARK 922        TOTAL FREE ENERGY PREDICTED BY IDOCK:  -10.66 KCAL/MOL
REMARK 923 INTER-LIGAND FREE ENERGY PREDICTED BY IDOCK:   -9.95 KCAL/MOL
REMARK 924 INTRA-LIGAND FREE ENERGY PREDICTED BY IDOCK:   -0.71 KCAL/MOL
REMARK 927      BINDING AFFINITY PREDICTED BY RF-SCORE:    0.00 PKD
ROOT
HETATM    1  O   UNL     1     -13.431   5.624  72.712  1.00  0.00    -0.309 OA 
HETATM    2  C   UNL     1     -12.023   5.609  72.475  1.00  0.00    -0.067 C  
HETATM    3  H   UNL     1     -13.701   4.864  73.215  1.00  0.00     0.000 HD 
ENDROOT
BRANCH   2   4
HETATM    4  C   UNL     1     -11.596   6.815  71.679  1.00  0.00    -0.336 A  
HETATM    5  C   UNL     1     -12.027   8.116  71.961  1.00  0.00    -0.340 A  
HETATM    6  O   UNL     1     -12.820   8.395  73.040  1.00  0.00    -0.706 OA 
HETATM    7  C   UNL     1     -11.666   9.192  71.156  1.00  0.00    -0.380 A  
HETATM    8  C   UNL     1     -10.850   8.985  70.045  1.00  0.00    -0.247 A  
HETATM    9  H   UNL     1     -13.112   9.278  73.232  1.00  0.00     0.000 HD 
HETATM   10  C   UNL     1     -10.395   7.698  69.728  1.00  0.00    -0.223 A  
HETATM   11  C   UNL     1     -10.787   6.622  70.545  1.00  0.00    -0.310 A  
BRANCH  10  12
HETATM   12  C   UNL     1      -9.567   7.483  68.479  1.00  0.00    -0.150 C  
HETATM   13  O   UNL     1      -8.720   6.336  68.638  1.00  0.00    -0.120 OA 
HETATM   14  H   UNL     1      -8.201   6.201  67.854  1.00  0.00     0.000 HD 
BRANCH  12  15
HETATM   15  C   UNL     1     -10.484   7.284  67.254  1.00  0.00    -0.310 C  
BRANCH  15  16
HETATM   16  N   UNL     1     -10.041   8.104  66.114  1.00  0.00    -0.447 NA 
HETATM   17  H   UNL     1     -10.450   7.787  65.235  1.00  0.00     0.000 HD 
BRANCH  16  18
HETATM   18  C   UNL     1     -10.322   9.513  66.370  1.00  0.00    -0.173 C  
BRANCH  18  19
HETATM   19  C   UNL     1      -9.972  10.349  65.142  1.00  0.00    -0.390 C  
BRANCH  19  20
HETATM   20  C   UNL     1     -10.366  11.808  65.370  1.00  0.00    -0.311 C  
BRANCH  20  21
HETATM   21  C   UNL     1     -10.350  12.157  66.853  1.00  0.00    -0.235 C  
BRANCH  21  22
HETATM   22  C   UNL     1     -11.725  12.615  67.328  1.00  0.00    -0.435 C  
BRANCH  22  23
HETATM   23  C   UNL     1     -12.312  13.635  66.366  1.00  0.00    -0.389 C  
BRANCH  23  24
HETATM   24  O   UNL     1     -11.657  14.883  66.566  1.00  0.00    -0.339 OA 
BRANCH  24  25
HETATM   25  C   UNL     1     -11.151  15.390  65.334  1.00  0.00    -0.326 C  
BRANCH  25  26
HETATM   26  C   UNL     1     -10.046  16.397  65.609  1.00  0.00    -0.286 C  
BRANCH  26  27
HETATM   27  O   UNL     1      -8.846  15.690  65.922  1.00  0.00    -0.279 OA 
BRANCH  27  28
HETATM   28  C   UNL     1      -8.341  16.063  67.196  1.00  0.00    -0.199 C  
BRANCH  28  29
HETATM   29  C   UNL     1      -8.705  17.499  67.457  1.00  0.00    -0.225 A  
HETATM   30  C   UNL     1      -9.741  17.841  68.344  1.00  0.00    -0.333 A  
HETATM   31 CL   UNL     1     -10.708  16.647  69.139  1.00  0.00    -0.336 Cl 
HETATM   32  C   UNL     1     -10.041  19.182  68.622  1.00  0.00    -0.471 A  
HETATM   33  C   UNL     1      -9.329  20.203  68.003  1.00  0.00    -0.353 A  
HETATM   34  C   UNL     1      -8.336  19.887  67.082  1.00  0.00    -0.367 A  
HETATM   35  C   UNL     1      -8.034  18.548  66.802  1.00  0.00    -0.252 A  
HETATM   36 CL   UNL     1      -6.805  18.258  65.618  1.00  0.00    -0.304 Cl 
ENDBRANCH  28  29
ENDBRANCH  27  28
ENDBRANCH  26  27
ENDBRANCH  25  26
ENDBRANCH  24  25
ENDBRANCH  23  24
ENDBRANCH  22  23
ENDBRANCH  21  22
ENDBRANCH  20  21
ENDBRANCH  19  20
ENDBRANCH  18  19
ENDBRANCH  16  18
ENDBRANCH  15  16
ENDBRANCH  12  15
ENDBRANCH  10  12
ENDBRANCH   2   4
TORSDOF 16
ENDMDL
MODEL      255
REMARK 921   NORMALIZED FREE ENERGY PREDICTED BY IDOCK:   -4.43 KCAL/MOL
REMARK 922        TOTAL FREE ENERGY PREDICTED BY IDOCK:  -10.64 KCAL/MOL
REMARK 923 INTER-LIGAND FREE ENERGY PREDICTED BY IDOCK:   -8.84 KCAL/MOL
REMARK 924 INTRA-LIGAND FREE ENERGY PREDICTED BY IDOCK:   -1.81 KCAL/MOL
REMARK 927      BINDING AFFINITY PREDICTED BY RF-SCORE:    0.00 PKD
ROOT
HETATM    1  O   UNL     1     -10.401   4.632  66.194  1.00  0.00    -0.269 OA 
HETATM    2  C   UNL     1      -9.409   5.634  65.970  1.00  0.00    -0.134 C  
HETATM    3  H   UNL     1     -10.246   3.870  65.650  1.00  0.00     0.000 HD 
ENDROOT
BRANCH   2   4
HETATM    4  C   UNL     1      -9.656   6.843  66.834  1.00  0.00    -0.205 A  
HETATM    5  C   UNL     1      -9.555   8.158  66.365  1.00  0.00    -0.216 A  
HETATM    6  O   UNL     1      -9.292   8.438  65.053  1.00  0.00    -0.361 OA 
HETATM    7  C   UNL     1      -9.721   9.247  67.215  1.00  0.00    -0.218 A  
HETATM    8  C   UNL     1     -10.004   9.040  68.563  1.00  0.00    -0.193 A  
HETATM    9  H   UNL     1      -9.223   9.330  64.734  1.00  0.00     0.000 HD 
HETATM   10  C   UNL     1     -10.115   7.739  69.073  1.00  0.00    -0.198 A  
HETATM   11  C   UNL     1      -9.925   6.652  68.200  1.00  0.00    -0.156 A  
BRANCH  10  12
HETATM   12  C   UNL     1     -10.354   7.533  70.554  1.00  0.00    -0.215 C  
HETATM   13  O   UNL     1      -9.191   6.959  71.168  1.00  0.00    -0.154 OA 
HETATM   14  H   UNL     1      -9.341   6.830  72.097  1.00  0.00     0.000 HD 
BRANCH  12  15
HETATM   15  C   UNL     1     -10.690   8.876  71.235  1.00  0.00    -0.287 C  
BRANCH  15  16
HETATM   16  N   UNL     1     -12.050   8.865  71.799  1.00  0.00    -0.337 NA 
HETATM   17  H   UNL     1     -12.072   8.460  72.735  1.00  0.00     0.000 HD 
BRANCH  16  18
HETATM   18  C   UNL     1     -12.615  10.210  71.774  1.00  0.00    -0.403 C  
BRANCH  18  19
HETATM   19  C   UNL     1     -12.746  10.698  70.333  1.00  0.00    -0.340 C  
BRANCH  19  20
HETATM   20  C   UNL     1     -12.323  12.164  70.233  1.00  0.00    -0.269 C  
BRANCH  20  21
HETATM   21  C   UNL     1     -11.184  12.340  69.237  1.00  0.00    -0.275 C  
BRANCH  21  22
HETATM   22  C   UNL     1     -11.696  12.874  67.903  1.00  0.00    -0.405 C  
BRANCH  22  23
HETATM   23  C   UNL     1     -10.605  12.810  66.846  1.00  0.00    -0.244 C  
BRANCH  23  24
HETATM   24  O   UNL     1      -9.348  12.648  67.494  1.00  0.00    -0.177 OA 
BRANCH  24  25
HETATM   25  C   UNL     1      -8.505  13.771  67.246  1.00  0.00    -0.194 C  
BRANCH  25  26
HETATM   26  C   UNL     1      -8.160  14.452  68.560  1.00  0.00    -0.146 C  
BRANCH  26  27
HETATM   27  O   UNL     1      -7.941  15.842  68.315  1.00  0.00    -0.127 OA 
BRANCH  27  28
HETATM   28  C   UNL     1      -8.264  16.189  66.976  1.00  0.00    -0.216 C  
BRANCH  28  29
HETATM   29  C   UNL     1      -8.842  17.578  66.964  1.00  0.00    -0.252 A  
HETATM   30  C   UNL     1     -10.097  17.852  67.534  1.00  0.00    -0.342 A  
HETATM   31 CL   UNL     1     -11.088  16.612  68.225  1.00  0.00    -0.346 Cl 
HETATM   32  C   UNL     1     -10.608  19.157  67.566  1.00  0.00    -0.567 A  
HETATM   33  C   UNL     1      -9.885  20.206  67.008  1.00  0.00    -0.595 A  
HETATM   34  C   UNL     1      -8.666  19.948  66.391  1.00  0.00    -0.397 A  
HETATM   35  C   UNL     1      -8.153  18.645  66.358  1.00  0.00    -0.281 A  
HETATM   36 CL   UNL     1      -6.645  18.422  65.539  1.00  0.00    -0.316 Cl 
ENDBRANCH  28  29
ENDBRANCH  27  28
ENDBRANCH  26  27
ENDBRANCH  25  26
ENDBRANCH  24  25
ENDBRANCH  23  24
ENDBRANCH  22  23
ENDBRANCH  21  22
ENDBRANCH  20  21
ENDBRANCH  19  20
ENDBRANCH  18  19
ENDBRANCH  16  18
ENDBRANCH  15  16
ENDBRANCH  12  15
ENDBRANCH  10  12
ENDBRANCH   2   4
TORSDOF 16
ENDMDL
MODEL      256
REMARK 921   NORMALIZED FREE ENERGY PREDICTED BY IDOCK:   -4.41 KCAL/MOL
REMARK 922        TOTAL FREE ENERGY PREDICTED BY IDOCK:  -10.61 KCAL/MOL
REMARK 923 INTER-LIGAND FREE ENERGY PREDICTED BY IDOCK:   -9.09 KCAL/MOL
REMARK 924 INTRA-LIGAND FREE ENERGY PREDICTED BY IDOCK:   -1.52 KCAL/MOL
REMARK 927      BINDING AFFINITY PREDICTED BY RF-SCORE:    0.00 PKD
ROOT
HETATM    1  O   UNL     1     -10.809  15.350  66.691  1.00  0.00    -0.310 OA 
HETATM    2  C   UNL     1     -10.956  15.165  65.283  1.00  0.00    -0.395 C  
HETATM    3  H   UNL     1     -10.953  16.257  66.933  1.00  0.00     0.000 HD 
ENDROOT
BRANCH   2   4
HETATM    4  C   UNL     1     -10.728  13.726  64.900  1.00  0.00    -0.410 A  
HETATM    5  C   UNL     1     -11.413  13.089  63.859  1.00  0.00    -0.435 A  
HETATM    6  O   UNL     1     -12.296  13.760  63.059  1.00  0.00    -1.089 OA 
HETATM    7  C   UNL     1     -11.224  11.738  63.585  1.00  0.00    -0.519 A  
HETATM    8  C   UNL     1     -10.331  10.992  64.350  1.00  0.00    -0.424 A  
HETATM    9  H   UNL     1     -12.761  13.328  62.353  1.00  0.00     0.000 HD 
HETATM   10  C   UNL     1      -9.623  11.592  65.401  1.00  0.00    -0.228 A  
HETATM   11  C   UNL     1      -9.842  12.954  65.673  1.00  0.00    -0.185 A  
BRANCH  10  12
HETATM   12  C   UNL     1      -8.709  10.750  66.265  1.00  0.00    -0.169 C  
HETATM   13  O   UNL     1      -8.971  10.998  67.653  1.00  0.00    -0.139 OA 
HETATM   14  H   UNL     1      -8.398  10.469  68.195  1.00  0.00     0.000 HD 
BRANCH  12  15
HETATM   15  C   UNL     1      -8.913   9.251  65.960  1.00  0.00    -0.176 C  
BRANCH  15  16
HETATM   16  N   UNL     1      -9.331   8.511  67.163  1.00  0.00    -0.147 NA 
HETATM   17  H   UNL     1      -8.997   8.954  68.019  1.00  0.00     0.000 HD 
BRANCH  16  18
HETATM   18  C   UNL     1     -10.780   8.340  67.169  1.00  0.00    -0.170 C  
BRANCH  18  19
HETATM   19  C   UNL     1     -11.136   6.890  67.486  1.00  0.00    -0.283 C  
BRANCH  19  20
HETATM   20  C   UNL     1     -10.170   6.326  68.526  1.00  0.00    -0.205 C  
BRANCH  20  21
HETATM   21  C   UNL     1     -10.006   4.819  68.365  1.00  0.00    -0.156 C  
BRANCH  21  22
HETATM   22  C   UNL     1      -9.572   4.168  69.675  1.00  0.00    -0.277 C  
BRANCH  22  23
HETATM   23  C   UNL     1      -8.845   5.171  70.556  1.00  0.00    -0.119 C  
BRANCH  23  24
HETATM   24  O   UNL     1      -8.854   4.693  71.898  1.00  0.00    -0.120 OA 
BRANCH  24  25
HETATM   25  C   UNL     1     -10.101   4.072  72.203  1.00  0.00    -0.163 C  
BRANCH  25  26
HETATM   26  C   UNL     1     -10.826   4.877  73.270  1.00  0.00    -0.289 C  
BRANCH  26  27
HETATM   27  O   UNL     1      -9.898   5.772  73.882  1.00  0.00    -0.159 OA 
BRANCH  27  28
HETATM   28  C   UNL     1     -10.464   7.062  74.062  1.00  0.00    -0.185 C  
BRANCH  28  29
HETATM   29  C   UNL     1     -10.099   7.918  72.880  1.00  0.00    -0.376 A  
HETATM   30  C   UNL     1      -8.763   8.062  72.467  1.00  0.00    -0.173 A  
HETATM   31 CL   UNL     1      -7.448   7.326  73.319  1.00  0.00    -0.080 Cl 
HETATM   32  C   UNL     1      -8.434   8.819  71.334  1.00  0.00    -0.245 A  
HETATM   33  C   UNL     1      -9.429   9.465  70.609  1.00  0.00    -0.325 A  
HETATM   34  C   UNL     1     -10.751   9.380  71.032  1.00  0.00    -0.407 A  
HETATM   35  C   UNL     1     -11.083   8.623  72.164  1.00  0.00    -0.364 A  
HETATM   36 CL   UNL     1     -12.750   8.606  72.628  1.00  0.00    -0.363 Cl 
ENDBRANCH  28  29
ENDBRANCH  27  28
ENDBRANCH  26  27
ENDBRANCH  25  26
ENDBRANCH  24  25
ENDBRANCH  23  24
ENDBRANCH  22  23
ENDBRANCH  21  22
ENDBRANCH  20  21
ENDBRANCH  19  20
ENDBRANCH  18  19
ENDBRANCH  16  18
ENDBRANCH  15  16
ENDBRANCH  12  15
ENDBRANCH  10  12
ENDBRANCH   2   4
TORSDOF 16
ENDMDL
MODEL      257
REMARK 921   NORMALIZED FREE ENERGY PREDICTED BY IDOCK:   -4.38 KCAL/MOL
REMARK 922        TOTAL FREE ENERGY PREDICTED BY IDOCK:  -10.55 KCAL/MOL
REMARK 923 INTER-LIGAND FREE ENERGY PREDICTED BY IDOCK:   -8.36 KCAL/MOL
REMARK 924 INTRA-LIGAND FREE ENERGY PREDICTED BY IDOCK:   -2.18 KCAL/MOL
REMARK 927      BINDING AFFINITY PREDICTED BY RF-SCORE:    0.00 PKD
ROOT
HETATM    1  O   UNL     1     -11.245  15.853  69.922  1.00  0.00    -0.294 OA 
HETATM    2  C   UNL     1     -12.108  15.602  68.812  1.00  0.00    -0.109 C  
HETATM    3  H   UNL     1     -11.325  16.751  70.221  1.00  0.00     0.000 HD 
ENDROOT
BRANCH   2   4
HETATM    4  C   UNL     1     -11.980  14.177  68.339  1.00  0.00    -0.366 A  
HETATM    5  C   UNL     1     -11.780  13.095  69.203  1.00  0.00    -0.325 A  
HETATM    6  O   UNL     1     -11.758  13.250  70.561  1.00  0.00    -0.528 OA 
HETATM    7  C   UNL     1     -11.595  11.803  68.718  1.00  0.00    -0.367 A  
HETATM    8  C   UNL     1     -11.616  11.567  67.346  1.00  0.00    -0.307 A  
HETATM    9  H   UNL     1     -11.622  12.515  71.148  1.00  0.00     0.000 HD 
HETATM   10  C   UNL     1     -11.816  12.623  66.446  1.00  0.00    -0.466 A  
HETATM   11  C   UNL     1     -11.983  13.923  66.956  1.00  0.00    -0.459 A  
BRANCH  10  12
HETATM   12  C   UNL     1     -11.768  12.357  64.956  1.00  0.00    -0.371 C  
HETATM   13  O   UNL     1     -13.097  12.243  64.430  1.00  0.00    -0.780 OA 
HETATM   14  H   UNL     1     -13.067  12.077  63.495  1.00  0.00     0.000 HD 
BRANCH  12  15
HETATM   15  C   UNL     1     -11.020  13.496  64.232  1.00  0.00    -0.336 C  
BRANCH  15  16
HETATM   16  N   UNL     1      -9.714  13.042  63.725  1.00  0.00    -0.542 NA 
HETATM   17  H   UNL     1      -8.990  13.085  64.441  1.00  0.00     0.000 HD 
BRANCH  16  18
HETATM   18  C   UNL     1      -9.835  11.705  63.152  1.00  0.00    -0.382 C  
BRANCH  18  19
HETATM   19  C   UNL     1      -8.728  10.802  63.689  1.00  0.00    -0.096 C  
BRANCH  19  20
HETATM   20  C   UNL     1      -8.373   9.734  62.654  1.00  0.00    -0.162 C  
BRANCH  20  21
HETATM   21  C   UNL     1      -8.413   8.339  63.268  1.00  0.00     0.040 C  
BRANCH  21  22
HETATM   22  C   UNL     1      -7.044   7.669  63.204  1.00  0.00    -0.071 C  
BRANCH  22  23
HETATM   23  C   UNL     1      -7.185   6.157  63.270  1.00  0.00    -0.056 C  
BRANCH  23  24
HETATM   24  O   UNL     1      -8.265   5.834  64.139  1.00  0.00    -0.131 OA 
BRANCH  24  25
HETATM   25  C   UNL     1      -7.799   5.111  65.276  1.00  0.00    -0.090 C  
BRANCH  25  26
HETATM   26  C   UNL     1      -8.312   5.768  66.547  1.00  0.00    -0.111 C  
BRANCH  26  27
HETATM   27  O   UNL     1      -8.411   7.176  66.331  1.00  0.00    -0.114 OA 
BRANCH  27  28
HETATM   28  C   UNL     1      -9.649   7.687  66.803  1.00  0.00    -0.209 C  
BRANCH  28  29
HETATM   29  C   UNL     1      -9.465   8.167  68.217  1.00  0.00    -0.148 A  
HETATM   30  C   UNL     1      -8.631   9.258  68.516  1.00  0.00    -0.128 A  
HETATM   31 CL   UNL     1      -7.712  10.078  67.301  1.00  0.00    -0.095 Cl 
HETATM   32  C   UNL     1      -8.504   9.732  69.829  1.00  0.00    -0.206 A  
HETATM   33  C   UNL     1      -9.188   9.111  70.868  1.00  0.00    -0.326 A  
HETATM   34  C   UNL     1      -9.976   7.996  70.602  1.00  0.00    -0.198 A  
HETATM   35  C   UNL     1     -10.105   7.520  69.291  1.00  0.00    -0.188 A  
HETATM   36 CL   UNL     1     -11.082   6.109  69.067  1.00  0.00    -0.446 Cl 
ENDBRANCH  28  29
ENDBRANCH  27  28
ENDBRANCH  26  27
ENDBRANCH  25  26
ENDBRANCH  24  25
ENDBRANCH  23  24
ENDBRANCH  22  23
ENDBRANCH  21  22
ENDBRANCH  20  21
ENDBRANCH  19  20
ENDBRANCH  18  19
ENDBRANCH  16  18
ENDBRANCH  15  16
ENDBRANCH  12  15
ENDBRANCH  10  12
ENDBRANCH   2   4
TORSDOF 16
ENDMDL
MODEL      258
REMARK 921   NORMALIZED FREE ENERGY PREDICTED BY IDOCK:   -4.38 KCAL/MOL
REMARK 922        TOTAL FREE ENERGY PREDICTED BY IDOCK:  -10.54 KCAL/MOL
REMARK 923 INTER-LIGAND FREE ENERGY PREDICTED BY IDOCK:   -9.02 KCAL/MOL
REMARK 924 INTRA-LIGAND FREE ENERGY PREDICTED BY IDOCK:   -1.52 KCAL/MOL
REMARK 927      BINDING AFFINITY PREDICTED BY RF-SCORE:    0.00 PKD
ROOT
HETATM    1  O   UNL     1      -6.157  13.999  67.221  1.00  0.00    -0.350 OA 
HETATM    2  C   UNL     1      -7.075  15.082  67.377  1.00  0.00    -0.175 C  
HETATM    3  H   UNL     1      -5.258  14.302  67.278  1.00  0.00     0.000 HD 
ENDROOT
BRANCH   2   4
HETATM    4  C   UNL     1      -8.499  14.601  67.286  1.00  0.00    -0.234 A  
HETATM    5  C   UNL     1      -8.990  13.508  68.009  1.00  0.00    -0.189 A  
HETATM    6  O   UNL     1      -8.217  12.838  68.916  1.00  0.00    -0.341 OA 
HETATM    7  C   UNL     1     -10.294  13.052  67.841  1.00  0.00    -0.233 A  
HETATM    8  C   UNL     1     -11.144  13.693  66.942  1.00  0.00    -0.314 A  
HETATM    9  H   UNL     1      -8.550  12.096  69.407  1.00  0.00     0.000 HD 
HETATM   10  C   UNL     1     -10.692  14.793  66.199  1.00  0.00    -0.314 A  
HETATM   11  C   UNL     1      -9.365  15.226  66.371  1.00  0.00    -0.328 A  
BRANCH  10  12
HETATM   12  C   UNL     1     -11.608  15.433  65.178  1.00  0.00    -0.127 C  
HETATM   13  O   UNL     1     -10.841  15.967  64.090  1.00  0.00    -0.884 OA 
HETATM   14  H   UNL     1     -11.415  16.369  63.449  1.00  0.00     0.000 HD 
BRANCH  12  15
HETATM   15  C   UNL     1     -12.619  14.398  64.640  1.00  0.00    -0.235 C  
BRANCH  15  16
HETATM   16  N   UNL     1     -12.129  13.764  63.404  1.00  0.00    -0.983 NA 
HETATM   17  H   UNL     1     -11.330  14.262  63.010  1.00  0.00     0.000 HD 
BRANCH  16  18
HETATM   18  C   UNL     1     -11.828  12.357  63.647  1.00  0.00    -0.526 C  
BRANCH  18  19
HETATM   19  C   UNL     1     -10.432  12.021  63.129  1.00  0.00    -0.277 C  
BRANCH  19  20
HETATM   20  C   UNL     1      -9.897  10.772  63.829  1.00  0.00    -0.396 C  
BRANCH  20  21
HETATM   21  C   UNL     1      -9.500  11.076  65.269  1.00  0.00    -0.259 C  
BRANCH  21  22
HETATM   22  C   UNL     1      -9.028   9.816  65.988  1.00  0.00    -0.186 C  
BRANCH  22  23
HETATM   23  C   UNL     1     -10.214   9.036  66.534  1.00  0.00    -0.248 C  
BRANCH  23  24
HETATM   24  O   UNL     1      -9.750   8.146  67.544  1.00  0.00    -0.147 OA 
BRANCH  24  25
HETATM   25  C   UNL     1      -9.903   6.790  67.129  1.00  0.00    -0.161 C  
BRANCH  25  26
HETATM   26  C   UNL     1     -10.946   6.104  67.996  1.00  0.00    -0.305 C  
BRANCH  26  27
HETATM   27  O   UNL     1     -10.932   6.701  69.293  1.00  0.00    -0.261 OA 
BRANCH  27  28
HETATM   28  C   UNL     1     -10.479   5.786  70.280  1.00  0.00    -0.280 C  
BRANCH  28  29
HETATM   29  C   UNL     1      -9.402   6.449  71.094  1.00  0.00    -0.166 A  
HETATM   30  C   UNL     1      -9.605   7.706  71.691  1.00  0.00    -0.153 A  
HETATM   31 CL   UNL     1     -11.070   8.602  71.478  1.00  0.00    -0.334 Cl 
HETATM   32  C   UNL     1      -8.617   8.295  72.491  1.00  0.00    -0.273 A  
HETATM   33  C   UNL     1      -7.400   7.652  72.689  1.00  0.00    -0.091 A  
HETATM   34  C   UNL     1      -7.158   6.434  72.065  1.00  0.00    -0.082 A  
HETATM   35  C   UNL     1      -8.144   5.842  71.265  1.00  0.00    -0.118 A  
HETATM   36 CL   UNL     1      -7.734   4.341  70.506  1.00  0.00    -0.052 Cl 
ENDBRANCH  28  29
ENDBRANCH  27  28
ENDBRANCH  26  27
ENDBRANCH  25  26
ENDBRANCH  24  25
ENDBRANCH  23  24
ENDBRANCH  22  23
ENDBRANCH  21  22
ENDBRANCH  20  21
ENDBRANCH  19  20
ENDBRANCH  18  19
ENDBRANCH  16  18
ENDBRANCH  15  16
ENDBRANCH  12  15
ENDBRANCH  10  12
ENDBRANCH   2   4
TORSDOF 16
ENDMDL
MODEL      259
REMARK 921   NORMALIZED FREE ENERGY PREDICTED BY IDOCK:   -4.37 KCAL/MOL
REMARK 922        TOTAL FREE ENERGY PREDICTED BY IDOCK:  -10.53 KCAL/MOL
REMARK 923 INTER-LIGAND FREE ENERGY PREDICTED BY IDOCK:   -8.42 KCAL/MOL
REMARK 924 INTRA-LIGAND FREE ENERGY PREDICTED BY IDOCK:   -2.11 KCAL/MOL
REMARK 927      BINDING AFFINITY PREDICTED BY RF-SCORE:    0.00 PKD
ROOT
HETATM    1  O   UNL     1      -7.094   5.296  66.758  1.00  0.00    -0.066 OA 
HETATM    2  C   UNL     1      -7.915   5.745  65.679  1.00  0.00    -0.116 C  
HETATM    3  H   UNL     1      -6.538   4.575  66.487  1.00  0.00     0.000 HD 
ENDROOT
BRANCH   2   4
HETATM    4  C   UNL     1      -8.797   6.888  66.109  1.00  0.00    -0.163 A  
HETATM    5  C   UNL     1      -9.809   6.760  67.067  1.00  0.00    -0.167 A  
HETATM    6  O   UNL     1     -10.021   5.589  67.741  1.00  0.00    -0.137 OA 
HETATM    7  C   UNL     1     -10.648   7.824  67.383  1.00  0.00    -0.345 A  
HETATM    8  C   UNL     1     -10.484   9.052  66.746  1.00  0.00    -0.270 A  
HETATM    9  H   UNL     1     -10.708   5.502  68.391  1.00  0.00     0.000 HD 
HETATM   10  C   UNL     1      -9.481   9.222  65.782  1.00  0.00    -0.329 A  
HETATM   11  C   UNL     1      -8.655   8.129  65.464  1.00  0.00    -0.173 A  
BRANCH  10  12
HETATM   12  C   UNL     1      -9.362  10.543  65.051  1.00  0.00    -0.222 C  
HETATM   13  O   UNL     1     -10.460  10.707  64.143  1.00  0.00    -0.426 OA 
HETATM   14  H   UNL     1     -10.385  11.536  63.684  1.00  0.00     0.000 HD 
BRANCH  12  15
HETATM   15  C   UNL     1      -9.343  11.713  66.057  1.00  0.00    -0.227 C  
BRANCH  15  16
HETATM   16  N   UNL     1     -10.118  12.862  65.558  1.00  0.00    -0.327 NA 
HETATM   17  H   UNL     1     -10.421  12.728  64.593  1.00  0.00     0.000 HD 
BRANCH  16  18
HETATM   18  C   UNL     1     -11.241  13.135  66.448  1.00  0.00    -0.300 C  
BRANCH  18  19
HETATM   19  C   UNL     1     -11.076  14.506  67.097  1.00  0.00    -0.325 C  
BRANCH  19  20
HETATM   20  C   UNL     1     -10.319  14.376  68.418  1.00  0.00    -0.244 C  
BRANCH  20  21
HETATM   21  C   UNL     1     -11.047  15.101  69.544  1.00  0.00    -0.287 C  
BRANCH  21  22
HETATM   22  C   UNL     1     -12.335  14.377  69.924  1.00  0.00    -0.365 C  
BRANCH  22  23
HETATM   23  C   UNL     1     -12.538  14.401  71.430  1.00  0.00    -0.354 C  
BRANCH  23  24
HETATM   24  O   UNL     1     -13.073  13.147  71.840  1.00  0.00    -0.392 OA 
BRANCH  24  25
HETATM   25  C   UNL     1     -12.637  12.104  70.971  1.00  0.00    -0.263 C  
BRANCH  25  26
HETATM   26  C   UNL     1     -12.952  10.753  71.593  1.00  0.00    -0.476 C  
BRANCH  26  27
HETATM   27  O   UNL     1     -11.729  10.049  71.808  1.00  0.00    -0.293 OA 
BRANCH  27  28
HETATM   28  C   UNL     1     -11.185   9.570  70.586  1.00  0.00    -0.302 C  
BRANCH  28  29
HETATM   29  C   UNL     1     -10.674   8.172  70.800  1.00  0.00    -0.242 A  
HETATM   30  C   UNL     1     -11.554   7.095  71.007  1.00  0.00    -0.309 A  
HETATM   31 CL   UNL     1     -13.269   7.309  71.097  1.00  0.00    -0.346 Cl 
HETATM   32  C   UNL     1     -11.074   5.787  71.155  1.00  0.00    -0.257 A  
HETATM   33  C   UNL     1      -9.707   5.533  71.122  1.00  0.00    -0.226 A  
HETATM   34  C   UNL     1      -8.817   6.591  70.973  1.00  0.00    -0.139 A  
HETATM   35  C   UNL     1      -9.294   7.900  70.825  1.00  0.00    -0.157 A  
HETATM   36 CL   UNL     1      -8.105   9.149  70.677  1.00  0.00    -0.176 Cl 
ENDBRANCH  28  29
ENDBRANCH  27  28
ENDBRANCH  26  27
ENDBRANCH  25  26
ENDBRANCH  24  25
ENDBRANCH  23  24
ENDBRANCH  22  23
ENDBRANCH  21  22
ENDBRANCH  20  21
ENDBRANCH  19  20
ENDBRANCH  18  19
ENDBRANCH  16  18
ENDBRANCH  15  16
ENDBRANCH  12  15
ENDBRANCH  10  12
ENDBRANCH   2   4
TORSDOF 16
ENDMDL
MODEL      260
REMARK 921   NORMALIZED FREE ENERGY PREDICTED BY IDOCK:   -4.37 KCAL/MOL
REMARK 922        TOTAL FREE ENERGY PREDICTED BY IDOCK:  -10.52 KCAL/MOL
REMARK 923 INTER-LIGAND FREE ENERGY PREDICTED BY IDOCK:   -9.74 KCAL/MOL
REMARK 924 INTRA-LIGAND FREE ENERGY PREDICTED BY IDOCK:   -0.79 KCAL/MOL
REMARK 927      BINDING AFFINITY PREDICTED BY RF-SCORE:    0.00 PKD
ROOT
HETATM    1  O   UNL     1      -8.132   4.023  69.967  1.00  0.00    -0.057 OA 
HETATM    2  C   UNL     1      -9.442   3.511  70.213  1.00  0.00    -0.183 C  
HETATM    3  H   UNL     1      -7.856   3.841  69.077  1.00  0.00     0.000 HD 
ENDROOT
BRANCH   2   4
HETATM    4  C   UNL     1      -9.879   3.801  71.626  1.00  0.00    -0.240 A  
HETATM    5  C   UNL     1     -10.407   2.828  72.482  1.00  0.00    -0.121 A  
HETATM    6  O   UNL     1     -10.496   1.514  72.114  1.00  0.00    -0.161 OA 
HETATM    7  C   UNL     1     -10.866   3.152  73.756  1.00  0.00    -0.305 A  
HETATM    8  C   UNL     1     -10.795   4.469  74.204  1.00  0.00    -0.269 A  
HETATM    9  H   UNL     1     -10.855   0.854  72.695  1.00  0.00     0.000 HD 
HETATM   10  C   UNL     1     -10.272   5.474  73.379  1.00  0.00    -0.222 A  
HETATM   11  C   UNL     1      -9.831   5.127  72.089  1.00  0.00    -0.222 A  
BRANCH  10  12
HETATM   12  C   UNL     1     -10.268   6.910  73.858  1.00  0.00    -0.367 C  
HETATM   13  O   UNL     1      -9.045   7.197  74.551  1.00  0.00    -0.317 OA 
HETATM   14  H   UNL     1      -9.042   8.099  74.852  1.00  0.00     0.000 HD 
BRANCH  12  15
HETATM   15  C   UNL     1     -10.423   7.875  72.663  1.00  0.00    -0.320 C  
BRANCH  15  16
HETATM   16  N   UNL     1     -11.841   8.162  72.388  1.00  0.00    -0.375 NA 
HETATM   17  H   UNL     1     -12.367   8.342  73.243  1.00  0.00     0.000 HD 
BRANCH  16  18
HETATM   18  C   UNL     1     -11.955   9.262  71.437  1.00  0.00    -0.351 C  
BRANCH  18  19
HETATM   19  C   UNL     1     -13.302   9.962  71.601  1.00  0.00    -0.481 C  
BRANCH  19  20
HETATM   20  C   UNL     1     -13.091  11.438  71.936  1.00  0.00    -0.505 C  
BRANCH  20  21
HETATM   21  C   UNL     1     -12.403  12.169  70.788  1.00  0.00    -0.391 C  
BRANCH  21  22
HETATM   22  C   UNL     1     -12.388  13.676  71.025  1.00  0.00    -0.436 C  
BRANCH  22  23
HETATM   23  C   UNL     1     -11.836  14.403  69.809  1.00  0.00    -0.320 C  
BRANCH  23  24
HETATM   24  O   UNL     1     -12.049  13.596  68.656  1.00  0.00    -0.360 OA 
BRANCH  24  25
HETATM   25  C   UNL     1     -10.976  13.747  67.730  1.00  0.00    -0.256 C  
BRANCH  25  26
HETATM   26  C   UNL     1     -11.334  14.803  66.698  1.00  0.00    -0.347 C  
BRANCH  26  27
HETATM   27  O   UNL     1     -10.324  15.813  66.702  1.00  0.00    -0.277 OA 
BRANCH  27  28
HETATM   28  C   UNL     1     -10.721  16.938  67.472  1.00  0.00    -0.270 C  
BRANCH  28  29
HETATM   29  C   UNL     1      -9.503  17.768  67.775  1.00  0.00    -0.262 A  
HETATM   30  C   UNL     1      -8.489  17.296  68.627  1.00  0.00    -0.260 A  
HETATM   31 CL   UNL     1      -8.599  15.768  69.434  1.00  0.00    -0.256 Cl 
HETATM   32  C   UNL     1      -7.333  18.052  68.864  1.00  0.00    -0.249 A  
HETATM   33  C   UNL     1      -7.180  19.302  68.276  1.00  0.00    -0.317 A  
HETATM   34  C   UNL     1      -8.195  19.812  67.473  1.00  0.00    -0.347 A  
HETATM   35  C   UNL     1      -9.351  19.058  67.233  1.00  0.00    -0.304 A  
HETATM   36 CL   UNL     1     -10.569  19.793  66.247  1.00  0.00    -0.588 Cl 
ENDBRANCH  28  29
ENDBRANCH  27  28
ENDBRANCH  26  27
ENDBRANCH  25  26
ENDBRANCH  24  25
ENDBRANCH  23  24
ENDBRANCH  22  23
ENDBRANCH  21  22
ENDBRANCH  20  21
ENDBRANCH  19  20
ENDBRANCH  18  19
ENDBRANCH  16  18
ENDBRANCH  15  16
ENDBRANCH  12  15
ENDBRANCH  10  12
ENDBRANCH   2   4
TORSDOF 16
ENDMDL
MODEL      261
REMARK 921   NORMALIZED FREE ENERGY PREDICTED BY IDOCK:   -4.35 KCAL/MOL
REMARK 922        TOTAL FREE ENERGY PREDICTED BY IDOCK:  -10.48 KCAL/MOL
REMARK 923 INTER-LIGAND FREE ENERGY PREDICTED BY IDOCK:   -9.12 KCAL/MOL
REMARK 924 INTRA-LIGAND FREE ENERGY PREDICTED BY IDOCK:   -1.36 KCAL/MOL
REMARK 927      BINDING AFFINITY PREDICTED BY RF-SCORE:    0.00 PKD
ROOT
HETATM    1  O   UNL     1     -11.631   6.458  66.676  1.00  0.00    -0.671 OA 
HETATM    2  C   UNL     1     -10.803   6.827  67.780  1.00  0.00    -0.264 C  
HETATM    3  H   UNL     1     -11.957   5.572  66.776  1.00  0.00     0.000 HD 
ENDROOT
BRANCH   2   4
HETATM    4  C   UNL     1     -10.286   8.234  67.622  1.00  0.00    -0.313 A  
HETATM    5  C   UNL     1     -10.660   9.290  68.461  1.00  0.00    -0.183 A  
HETATM    6  O   UNL     1     -11.474   9.099  69.542  1.00  0.00    -0.438 OA 
HETATM    7  C   UNL     1     -10.214  10.589  68.236  1.00  0.00    -0.185 A  
HETATM    8  C   UNL     1      -9.371  10.857  67.160  1.00  0.00    -0.174 A  
HETATM    9  H   UNL     1     -11.728   9.815  70.112  1.00  0.00     0.000 HD 
HETATM   10  C   UNL     1      -8.972   9.828  66.296  1.00  0.00    -0.180 A  
HETATM   11  C   UNL     1      -9.448   8.526  66.531  1.00  0.00    -0.282 A  
BRANCH  10  12
HETATM   12  C   UNL     1      -8.111  10.151  65.093  1.00  0.00    -0.148 C  
HETATM   13  O   UNL     1      -6.729  10.203  65.473  1.00  0.00    -0.108 OA 
HETATM   14  H   UNL     1      -6.189  10.406  64.718  1.00  0.00     0.000 HD 
BRANCH  12  15
HETATM   15  C   UNL     1      -8.306   9.087  63.993  1.00  0.00    -0.176 C  
BRANCH  15  16
HETATM   16  N   UNL     1      -9.353   9.490  63.038  1.00  0.00    -0.527 NA 
HETATM   17  H   UNL     1     -10.232   9.000  63.206  1.00  0.00     0.000 HD 
BRANCH  16  18
HETATM   18  C   UNL     1      -9.523  10.939  63.060  1.00  0.00    -0.352 C  
BRANCH  18  19
HETATM   19  C   UNL     1     -10.964  11.294  63.415  1.00  0.00    -0.257 C  
BRANCH  19  20
HETATM   20  C   UNL     1     -10.990  12.380  64.489  1.00  0.00    -0.355 C  
BRANCH  20  21
HETATM   21  C   UNL     1     -12.343  12.431  65.188  1.00  0.00    -0.403 C  
BRANCH  21  22
HETATM   22  C   UNL     1     -12.779  13.870  65.443  1.00  0.00    -0.525 C  
BRANCH  22  23
HETATM   23  C   UNL     1     -12.227  14.795  64.370  1.00  0.00    -0.428 C  
BRANCH  23  24
HETATM   24  O   UNL     1     -10.962  15.290  64.798  1.00  0.00    -0.410 OA 
BRANCH  24  25
HETATM   25  C   UNL     1     -11.019  16.698  65.012  1.00  0.00    -0.162 C  
BRANCH  25  26
HETATM   26  C   UNL     1     -10.098  17.079  66.159  1.00  0.00    -0.319 C  
BRANCH  26  27
HETATM   27  O   UNL     1      -9.936  15.948  67.015  1.00  0.00    -0.239 OA 
BRANCH  27  28
HETATM   28  C   UNL     1      -9.838  16.339  68.377  1.00  0.00    -0.229 C  
BRANCH  28  29
HETATM   29  C   UNL     1      -8.398  16.647  68.688  1.00  0.00    -0.246 A  
HETATM   30  C   UNL     1      -7.938  17.972  68.780  1.00  0.00    -0.245 A  
HETATM   31 CL   UNL     1      -8.967  19.331  68.480  1.00  0.00    -0.402 Cl 
HETATM   32  C   UNL     1      -6.608  18.253  69.120  1.00  0.00    -0.265 A  
HETATM   33  C   UNL     1      -5.709  17.218  69.351  1.00  0.00    -0.204 A  
HETATM   34  C   UNL     1      -6.130  15.899  69.212  1.00  0.00    -0.133 A  
HETATM   35  C   UNL     1      -7.459  15.616  68.872  1.00  0.00    -0.162 A  
HETATM   36 CL   UNL     1      -7.877  13.946  68.692  1.00  0.00    -0.136 Cl 
ENDBRANCH  28  29
ENDBRANCH  27  28
ENDBRANCH  26  27
ENDBRANCH  25  26
ENDBRANCH  24  25
ENDBRANCH  23  24
ENDBRANCH  22  23
ENDBRANCH  21  22
ENDBRANCH  20  21
ENDBRANCH  19  20
ENDBRANCH  18  19
ENDBRANCH  16  18
ENDBRANCH  15  16
ENDBRANCH  12  15
ENDBRANCH  10  12
ENDBRANCH   2   4
TORSDOF 16
ENDMDL
MODEL      262
REMARK 921   NORMALIZED FREE ENERGY PREDICTED BY IDOCK:   -4.34 KCAL/MOL
REMARK 922        TOTAL FREE ENERGY PREDICTED BY IDOCK:  -10.48 KCAL/MOL
REMARK 923 INTER-LIGAND FREE ENERGY PREDICTED BY IDOCK:   -9.08 KCAL/MOL
REMARK 924 INTRA-LIGAND FREE ENERGY PREDICTED BY IDOCK:   -1.39 KCAL/MOL
REMARK 927      BINDING AFFINITY PREDICTED BY RF-SCORE:    0.00 PKD
ROOT
HETATM    1  O   UNL     1     -12.135  16.397  63.587  1.00  0.00    -1.154 OA 
HETATM    2  C   UNL     1     -11.414  16.035  64.765  1.00  0.00    -0.201 C  
HETATM    3  H   UNL     1     -12.117  17.338  63.452  1.00  0.00     0.000 HD 
ENDROOT
BRANCH   2   4
HETATM    4  C   UNL     1     -11.442  14.544  64.979  1.00  0.00    -0.382 A  
HETATM    5  C   UNL     1     -11.971  13.643  64.047  1.00  0.00    -0.431 A  
HETATM    6  O   UNL     1     -12.438  14.055  62.830  1.00  0.00    -1.028 OA 
HETATM    7  C   UNL     1     -12.042  12.279  64.315  1.00  0.00    -0.499 A  
HETATM    8  C   UNL     1     -11.573  11.785  65.530  1.00  0.00    -0.192 A  
HETATM    9  H   UNL     1     -12.797  13.444  62.198  1.00  0.00     0.000 HD 
HETATM   10  C   UNL     1     -11.034  12.653  66.490  1.00  0.00    -0.302 A  
HETATM   11  C   UNL     1     -10.988  14.030  66.206  1.00  0.00    -0.300 A  
BRANCH  10  12
HETATM   12  C   UNL     1     -10.593  12.106  67.831  1.00  0.00    -0.207 C  
HETATM   13  O   UNL     1     -10.754  10.681  67.862  1.00  0.00    -0.209 OA 
HETATM   14  H   UNL     1     -10.477  10.337  68.703  1.00  0.00     0.000 HD 
BRANCH  12  15
HETATM   15  C   UNL     1      -9.117  12.466  68.099  1.00  0.00    -0.200 C  
BRANCH  15  16
HETATM   16  N   UNL     1      -8.324  12.432  66.858  1.00  0.00    -0.318 NA 
HETATM   17  H   UNL     1      -8.030  13.364  66.567  1.00  0.00     0.000 HD 
BRANCH  16  18
HETATM   18  C   UNL     1      -7.192  11.525  67.010  1.00  0.00    -0.146 C  
BRANCH  18  19
HETATM   19  C   UNL     1      -6.065  12.215  67.775  1.00  0.00    -0.090 C  
BRANCH  19  20
HETATM   20  C   UNL     1      -5.488  11.270  68.828  1.00  0.00    -0.043 C  
BRANCH  20  21
HETATM   21  C   UNL     1      -6.472  11.056  69.972  1.00  0.00    -0.144 C  
BRANCH  21  22
HETATM   22  C   UNL     1      -6.838   9.582  70.117  1.00  0.00    -0.085 C  
BRANCH  22  23
HETATM   23  C   UNL     1      -8.326   9.423  70.381  1.00  0.00    -0.205 C  
BRANCH  23  24
HETATM   24  O   UNL     1      -8.981   9.125  69.152  1.00  0.00    -0.139 OA 
BRANCH  24  25
HETATM   25  C   UNL     1      -8.226   8.181  68.395  1.00  0.00    -0.129 C  
BRANCH  25  26
HETATM   26  C   UNL     1      -8.978   7.828  67.122  1.00  0.00    -0.126 C  
BRANCH  26  27
HETATM   27  O   UNL     1     -10.372   8.047  67.334  1.00  0.00    -0.234 OA 
BRANCH  27  28
HETATM   28  C   UNL     1     -11.120   6.857  67.132  1.00  0.00    -0.292 C  
BRANCH  28  29
HETATM   29  C   UNL     1     -10.545   5.772  68.003  1.00  0.00    -0.295 A  
HETATM   30  C   UNL     1      -9.840   4.689  67.450  1.00  0.00    -0.165 A  
HETATM   31 CL   UNL     1      -9.642   4.490  65.742  1.00  0.00    -0.173 Cl 
HETATM   32  C   UNL     1      -9.263   3.709  68.269  1.00  0.00    -0.218 A  
HETATM   33  C   UNL     1      -9.399   3.781  69.651  1.00  0.00    -0.245 A  
HETATM   34  C   UNL     1     -10.139   4.815  70.215  1.00  0.00    -0.304 A  
HETATM   35  C   UNL     1     -10.717   5.796  69.399  1.00  0.00    -0.326 A  
HETATM   36 CL   UNL     1     -11.644   7.022  70.193  1.00  0.00    -0.303 Cl 
ENDBRANCH  28  29
ENDBRANCH  27  28
ENDBRANCH  26  27
ENDBRANCH  25  26
ENDBRANCH  24  25
ENDBRANCH  23  24
ENDBRANCH  22  23
ENDBRANCH  21  22
ENDBRANCH  20  21
ENDBRANCH  19  20
ENDBRANCH  18  19
ENDBRANCH  16  18
ENDBRANCH  15  16
ENDBRANCH  12  15
ENDBRANCH  10  12
ENDBRANCH   2   4
TORSDOF 16
ENDMDL
MODEL      263
REMARK 921   NORMALIZED FREE ENERGY PREDICTED BY IDOCK:   -4.34 KCAL/MOL
REMARK 922        TOTAL FREE ENERGY PREDICTED BY IDOCK:  -10.46 KCAL/MOL
REMARK 923 INTER-LIGAND FREE ENERGY PREDICTED BY IDOCK:   -8.48 KCAL/MOL
REMARK 924 INTRA-LIGAND FREE ENERGY PREDICTED BY IDOCK:   -1.98 KCAL/MOL
REMARK 927      BINDING AFFINITY PREDICTED BY RF-SCORE:    0.00 PKD
ROOT
HETATM    1  O   UNL     1     -12.132  11.394  67.833  1.00  0.00    -0.646 OA 
HETATM    2  C   UNL     1     -10.965  12.148  67.504  1.00  0.00    -0.257 C  
HETATM    3  H   UNL     1     -11.938  10.734  68.488  1.00  0.00     0.000 HD 
ENDROOT
BRANCH   2   4
HETATM    4  C   UNL     1     -11.273  13.196  66.466  1.00  0.00    -0.339 A  
HETATM    5  C   UNL     1     -11.961  12.923  65.278  1.00  0.00    -0.419 A  
HETATM    6  O   UNL     1     -12.471  11.684  65.008  1.00  0.00    -0.024 OA 
HETATM    7  C   UNL     1     -12.162  13.906  64.313  1.00  0.00    -0.447 A  
HETATM    8  C   UNL     1     -11.680  15.196  64.525  1.00  0.00    -0.331 A  
HETATM    9  H   UNL     1     -12.938  11.499  64.202  1.00  0.00     0.000 HD 
HETATM   10  C   UNL     1     -10.988  15.511  65.702  1.00  0.00    -0.307 A  
HETATM   11  C   UNL     1     -10.780  14.499  66.656  1.00  0.00    -0.305 A  
BRANCH  10  12
HETATM   12  C   UNL     1     -10.412  16.900  65.883  1.00  0.00    -0.285 C  
HETATM   13  O   UNL     1     -10.967  17.797  64.910  1.00  0.00    -0.866 OA 
HETATM   14  H   UNL     1     -10.607  18.668  65.024  1.00  0.00     0.000 HD 
BRANCH  12  15
HETATM   15  C   UNL     1     -10.714  17.425  67.302  1.00  0.00    -0.219 C  
BRANCH  15  16
HETATM   16  N   UNL     1      -9.598  18.232  67.824  1.00  0.00    -0.277 NA 
HETATM   17  H   UNL     1      -9.812  18.636  68.736  1.00  0.00     0.000 HD 
BRANCH  16  18
HETATM   18  C   UNL     1      -8.375  17.438  67.853  1.00  0.00    -0.230 C  
BRANCH  18  19
HETATM   19  C   UNL     1      -8.504  16.310  68.873  1.00  0.00    -0.253 C  
BRANCH  19  20
HETATM   20  C   UNL     1      -7.290  15.385  68.792  1.00  0.00    -0.135 C  
BRANCH  20  21
HETATM   21  C   UNL     1      -7.178  14.744  67.413  1.00  0.00    -0.202 C  
BRANCH  21  22
HETATM   22  C   UNL     1      -7.423  13.240  67.483  1.00  0.00    -0.163 C  
BRANCH  22  23
HETATM   23  C   UNL     1      -6.383  12.569  68.366  1.00  0.00    -0.064 C  
BRANCH  23  24
HETATM   24  O   UNL     1      -6.339  11.182  68.049  1.00  0.00    -0.053 OA 
BRANCH  24  25
HETATM   25  C   UNL     1      -7.570  10.547  68.388  1.00  0.00    -0.097 C  
BRANCH  25  26
HETATM   26  C   UNL     1      -7.306   9.115  68.822  1.00  0.00    -0.075 C  
BRANCH  26  27
HETATM   27  O   UNL     1      -8.485   8.342  68.600  1.00  0.00    -0.124 OA 
BRANCH  27  28
HETATM   28  C   UNL     1      -8.493   7.167  69.399  1.00  0.00    -0.134 C  
BRANCH  28  29
HETATM   29  C   UNL     1      -9.645   7.247  70.363  1.00  0.00    -0.165 A  
HETATM   30  C   UNL     1      -9.468   7.719  71.676  1.00  0.00    -0.144 A  
HETATM   31 CL   UNL     1      -7.916   8.174  72.292  1.00  0.00    -0.161 Cl 
HETATM   32  C   UNL     1     -10.555   7.840  72.553  1.00  0.00    -0.352 A  
HETATM   33  C   UNL     1     -11.831   7.469  72.144  1.00  0.00    -0.338 A  
HETATM   34  C   UNL     1     -12.018   6.949  70.867  1.00  0.00    -0.430 A  
HETATM   35  C   UNL     1     -10.934   6.828  69.989  1.00  0.00    -0.295 A  
HETATM   36 CL   UNL     1     -11.265   6.140  68.435  1.00  0.00    -0.347 Cl 
ENDBRANCH  28  29
ENDBRANCH  27  28
ENDBRANCH  26  27
ENDBRANCH  25  26
ENDBRANCH  24  25
ENDBRANCH  23  24
ENDBRANCH  22  23
ENDBRANCH  21  22
ENDBRANCH  20  21
ENDBRANCH  19  20
ENDBRANCH  18  19
ENDBRANCH  16  18
ENDBRANCH  15  16
ENDBRANCH  12  15
ENDBRANCH  10  12
ENDBRANCH   2   4
TORSDOF 16
ENDMDL
MODEL      264
REMARK 921   NORMALIZED FREE ENERGY PREDICTED BY IDOCK:   -4.33 KCAL/MOL
REMARK 922        TOTAL FREE ENERGY PREDICTED BY IDOCK:  -10.45 KCAL/MOL
REMARK 923 INTER-LIGAND FREE ENERGY PREDICTED BY IDOCK:   -7.64 KCAL/MOL
REMARK 924 INTRA-LIGAND FREE ENERGY PREDICTED BY IDOCK:   -2.82 KCAL/MOL
REMARK 927      BINDING AFFINITY PREDICTED BY RF-SCORE:    0.00 PKD
ROOT
HETATM    1  O   UNL     1      -8.547   7.823  69.569  1.00  0.00    -0.133 OA 
HETATM    2  C   UNL     1      -7.190   8.064  69.192  1.00  0.00    -0.077 C  
HETATM    3  H   UNL     1      -8.609   7.088  70.167  1.00  0.00     0.000 HD 
ENDROOT
BRANCH   2   4
HETATM    4  C   UNL     1      -7.092   9.230  68.243  1.00  0.00    -0.076 A  
HETATM    5  C   UNL     1      -6.575   9.126  66.947  1.00  0.00    -0.068 A  
HETATM    6  O   UNL     1      -6.186   7.926  66.420  1.00  0.00    -0.044 OA 
HETATM    7  C   UNL     1      -6.435  10.243  66.129  1.00  0.00    -0.103 A  
HETATM    8  C   UNL     1      -6.822  11.498  66.594  1.00  0.00    -0.075 A  
HETATM    9  H   UNL     1      -5.836   7.855  65.540  1.00  0.00     0.000 HD 
HETATM   10  C   UNL     1      -7.346  11.646  67.886  1.00  0.00    -0.096 A  
HETATM   11  C   UNL     1      -7.462  10.507  68.703  1.00  0.00    -0.095 A  
BRANCH  10  12
HETATM   12  C   UNL     1      -7.697  13.027  68.399  1.00  0.00    -0.137 C  
HETATM   13  O   UNL     1      -7.059  13.262  69.662  1.00  0.00    -0.328 OA 
HETATM   14  H   UNL     1      -7.279  14.129  69.983  1.00  0.00     0.000 HD 
BRANCH  12  15
HETATM   15  C   UNL     1      -7.253  14.103  67.386  1.00  0.00    -0.101 C  
BRANCH  15  16
HETATM   16  N   UNL     1      -5.897  14.594  67.686  1.00  0.00    -0.335 NA 
HETATM   17  H   UNL     1      -5.200  14.201  67.054  1.00  0.00     0.000 HD 
BRANCH  16  18
HETATM   18  C   UNL     1      -5.878  16.053  67.679  1.00  0.00    -0.150 C  
BRANCH  18  19
HETATM   19  C   UNL     1      -7.114  16.591  66.965  1.00  0.00    -0.247 C  
BRANCH  19  20
HETATM   20  C   UNL     1      -7.081  18.119  66.935  1.00  0.00    -0.217 C  
BRANCH  20  21
HETATM   21  C   UNL     1      -8.367  18.685  66.344  1.00  0.00    -0.292 C  
BRANCH  21  22
HETATM   22  C   UNL     1      -9.292  19.212  67.437  1.00  0.00    -0.356 C  
BRANCH  22  23
HETATM   23  C   UNL     1     -10.503  18.306  67.595  1.00  0.00    -0.411 C  
BRANCH  23  24
HETATM   24  O   UNL     1     -10.248  17.380  68.646  1.00  0.00    -0.321 OA 
BRANCH  24  25
HETATM   25  C   UNL     1     -11.245  16.361  68.673  1.00  0.00    -0.332 C  
BRANCH  25  26
HETATM   26  C   UNL     1     -11.130  15.499  67.426  1.00  0.00    -0.285 C  
BRANCH  26  27
HETATM   27  O   UNL     1     -10.810  14.164  67.817  1.00  0.00    -0.248 OA 
BRANCH  27  28
HETATM   28  C   UNL     1     -11.824  13.251  67.422  1.00  0.00    -0.366 C  
BRANCH  28  29
HETATM   29  C   UNL     1     -11.173  11.973  66.970  1.00  0.00    -0.377 A  
HETATM   30  C   UNL     1     -11.105  10.849  67.812  1.00  0.00    -0.309 A  
HETATM   31 CL   UNL     1     -11.700  10.876  69.437  1.00  0.00    -0.366 Cl 
HETATM   32  C   UNL     1     -10.543   9.645  67.368  1.00  0.00    -0.333 A  
HETATM   33  C   UNL     1     -10.017   9.548  66.084  1.00  0.00    -0.342 A  
HETATM   34  C   UNL     1     -10.025  10.664  65.253  1.00  0.00    -0.356 A  
HETATM   35  C   UNL     1     -10.587  11.869  65.695  1.00  0.00    -0.268 A  
HETATM   36 CL   UNL     1     -10.519  13.207  64.599  1.00  0.00    -0.392 Cl 
ENDBRANCH  28  29
ENDBRANCH  27  28
ENDBRANCH  26  27
ENDBRANCH  25  26
ENDBRANCH  24  25
ENDBRANCH  23  24
ENDBRANCH  22  23
ENDBRANCH  21  22
ENDBRANCH  20  21
ENDBRANCH  19  20
ENDBRANCH  18  19
ENDBRANCH  16  18
ENDBRANCH  15  16
ENDBRANCH  12  15
ENDBRANCH  10  12
ENDBRANCH   2   4
TORSDOF 16
ENDMDL
MODEL      265
REMARK 921   NORMALIZED FREE ENERGY PREDICTED BY IDOCK:   -4.31 KCAL/MOL
REMARK 922        TOTAL FREE ENERGY PREDICTED BY IDOCK:  -10.41 KCAL/MOL
REMARK 923 INTER-LIGAND FREE ENERGY PREDICTED BY IDOCK:   -8.30 KCAL/MOL
REMARK 924 INTRA-LIGAND FREE ENERGY PREDICTED BY IDOCK:   -2.11 KCAL/MOL
REMARK 927      BINDING AFFINITY PREDICTED BY RF-SCORE:    0.00 PKD
ROOT
HETATM    1  O   UNL     1     -11.636  15.239  65.359  1.00  0.00    -0.243 OA 
HETATM    2  C   UNL     1     -12.395  14.189  65.960  1.00  0.00    -0.445 C  
HETATM    3  H   UNL     1     -12.104  16.065  65.399  1.00  0.00     0.000 HD 
ENDROOT
BRANCH   2   4
HETATM    4  C   UNL     1     -11.652  12.880  65.896  1.00  0.00    -0.423 A  
HETATM    5  C   UNL     1     -11.022  12.409  64.738  1.00  0.00    -0.301 A  
HETATM    6  O   UNL     1     -10.976  13.149  63.590  1.00  0.00    -0.551 OA 
HETATM    7  C   UNL     1     -10.409  11.160  64.703  1.00  0.00    -0.393 A  
HETATM    8  C   UNL     1     -10.406  10.355  65.839  1.00  0.00    -0.261 A  
HETATM    9  H   UNL     1     -10.548  12.829  62.804  1.00  0.00     0.000 HD 
HETATM   10  C   UNL     1     -11.024  10.790  67.020  1.00  0.00    -0.292 A  
HETATM   11  C   UNL     1     -11.654  12.047  67.029  1.00  0.00    -0.387 A  
BRANCH  10  12
HETATM   12  C   UNL     1     -11.070   9.873  68.224  1.00  0.00    -0.150 C  
HETATM   13  O   UNL     1     -11.034   8.502  67.803  1.00  0.00    -0.495 OA 
HETATM   14  H   UNL     1     -11.063   7.926  68.558  1.00  0.00     0.000 HD 
BRANCH  12  15
HETATM   15  C   UNL     1      -9.879  10.158  69.162  1.00  0.00    -0.214 C  
BRANCH  15  16
HETATM   16  N   UNL     1      -8.643  10.404  68.399  1.00  0.00    -0.123 NA 
HETATM   17  H   UNL     1      -8.813  10.976  67.572  1.00  0.00     0.000 HD 
BRANCH  16  18
HETATM   18  C   UNL     1      -7.625  10.987  69.266  1.00  0.00    -0.089 C  
BRANCH  18  19
HETATM   19  C   UNL     1      -7.081  12.272  68.647  1.00  0.00    -0.103 C  
BRANCH  19  20
HETATM   20  C   UNL     1      -7.974  12.718  67.491  1.00  0.00    -0.177 C  
BRANCH  20  21
HETATM   21  C   UNL     1      -8.701  14.016  67.826  1.00  0.00    -0.185 C  
BRANCH  21  22
HETATM   22  C   UNL     1      -8.503  15.058  66.730  1.00  0.00    -0.239 C  
BRANCH  22  23
HETATM   23  C   UNL     1      -7.731  16.255  67.261  1.00  0.00    -0.178 C  
BRANCH  23  24
HETATM   24  O   UNL     1      -6.500  15.798  67.812  1.00  0.00    -0.127 OA 
BRANCH  24  25
HETATM   25  C   UNL     1      -6.150  16.561  68.965  1.00  0.00    -0.155 C  
BRANCH  25  26
HETATM   26  C   UNL     1      -6.001  18.024  68.585  1.00  0.00    -0.189 C  
BRANCH  26  27
HETATM   27  O   UNL     1      -6.861  18.805  69.415  1.00  0.00    -0.270 OA 
BRANCH  27  28
HETATM   28  C   UNL     1      -7.152  20.063  68.822  1.00  0.00    -0.244 C  
BRANCH  28  29
HETATM   29  C   UNL     1      -8.300  19.891  67.865  1.00  0.00    -0.326 A  
HETATM   30  C   UNL     1      -9.615  19.703  68.328  1.00  0.00    -0.385 A  
HETATM   31 CL   UNL     1      -9.994  19.590  70.013  1.00  0.00     0.210 Cl 
HETATM   32  C   UNL     1     -10.688  19.595  67.432  1.00  0.00    -0.563 A  
HETATM   33  C   UNL     1     -10.465  19.649  66.061  1.00  0.00    -0.622 A  
HETATM   34  C   UNL     1      -9.165  19.780  65.581  1.00  0.00     0.176 A  
HETATM   35  C   UNL     1      -8.091  19.888  66.474  1.00  0.00    -0.328 A  
HETATM   36 CL   UNL     1      -6.511  20.016  65.779  1.00  0.00    -0.231 Cl 
ENDBRANCH  28  29
ENDBRANCH  27  28
ENDBRANCH  26  27
ENDBRANCH  25  26
ENDBRANCH  24  25
ENDBRANCH  23  24
ENDBRANCH  22  23
ENDBRANCH  21  22
ENDBRANCH  20  21
ENDBRANCH  19  20
ENDBRANCH  18  19
ENDBRANCH  16  18
ENDBRANCH  15  16
ENDBRANCH  12  15
ENDBRANCH  10  12
ENDBRANCH   2   4
TORSDOF 16
ENDMDL
MODEL      266
REMARK 921   NORMALIZED FREE ENERGY PREDICTED BY IDOCK:   -4.31 KCAL/MOL
REMARK 922        TOTAL FREE ENERGY PREDICTED BY IDOCK:  -10.41 KCAL/MOL
REMARK 923 INTER-LIGAND FREE ENERGY PREDICTED BY IDOCK:   -9.05 KCAL/MOL
REMARK 924 INTRA-LIGAND FREE ENERGY PREDICTED BY IDOCK:   -1.35 KCAL/MOL
REMARK 927      BINDING AFFINITY PREDICTED BY RF-SCORE:    0.00 PKD
ROOT
HETATM    1  O   UNL     1      -7.162   5.395  70.324  1.00  0.00    -0.062 OA 
HETATM    2  C   UNL     1      -7.071   5.116  71.722  1.00  0.00    -0.074 C  
HETATM    3  H   UNL     1      -6.309   5.345  69.910  1.00  0.00     0.000 HD 
ENDROOT
BRANCH   2   4
HETATM    4  C   UNL     1      -8.424   5.196  72.379  1.00  0.00    -0.121 A  
HETATM    5  C   UNL     1      -8.716   4.607  73.615  1.00  0.00    -0.106 A  
HETATM    6  O   UNL     1      -7.758   3.973  74.356  1.00  0.00    -0.076 OA 
HETATM    7  C   UNL     1      -9.999   4.643  74.152  1.00  0.00    -0.209 A  
HETATM    8  C   UNL     1     -11.024   5.283  73.459  1.00  0.00    -0.353 A  
HETATM    9  H   UNL     1      -7.955   3.574  75.194  1.00  0.00     0.000 HD 
HETATM   10  C   UNL     1     -10.774   5.886  72.218  1.00  0.00    -0.279 A  
HETATM   11  C   UNL     1      -9.475   5.823  71.685  1.00  0.00    -0.172 A  
BRANCH  10  12
HETATM   12  C   UNL     1     -11.916   6.516  71.449  1.00  0.00    -0.316 C  
HETATM   13  O   UNL     1     -12.577   7.499  72.258  1.00  0.00    -0.479 OA 
HETATM   14  H   UNL     1     -13.293   7.894  71.775  1.00  0.00     0.000 HD 
BRANCH  12  15
HETATM   15  C   UNL     1     -11.392   7.177  70.157  1.00  0.00    -0.241 C  
BRANCH  15  16
HETATM   16  N   UNL     1     -11.592   6.303  68.988  1.00  0.00    -0.450 NA 
HETATM   17  H   UNL     1     -12.566   6.017  68.888  1.00  0.00     0.000 HD 
BRANCH  16  18
HETATM   18  C   UNL     1     -11.087   6.952  67.783  1.00  0.00    -0.146 C  
BRANCH  18  19
HETATM   19  C   UNL     1      -9.597   7.248  67.930  1.00  0.00    -0.153 C  
BRANCH  19  20
HETATM   20  C   UNL     1      -8.946   7.374  66.553  1.00  0.00    -0.184 C  
BRANCH  20  21
HETATM   21  C   UNL     1      -8.178   8.685  66.426  1.00  0.00    -0.111 C  
BRANCH  21  22
HETATM   22  C   UNL     1      -9.043   9.872  66.837  1.00  0.00    -0.162 C  
BRANCH  22  23
HETATM   23  C   UNL     1      -9.218  10.836  65.674  1.00  0.00    -0.199 C  
BRANCH  23  24
HETATM   24  O   UNL     1     -10.540  11.362  65.709  1.00  0.00    -0.255 OA 
BRANCH  24  25
HETATM   25  C   UNL     1     -10.534  12.710  66.173  1.00  0.00    -0.258 C  
BRANCH  25  26
HETATM   26  C   UNL     1     -11.927  13.097  66.643  1.00  0.00    -0.389 C  
BRANCH  26  27
HETATM   27  O   UNL     1     -12.205  12.416  67.867  1.00  0.00    -0.379 OA 
BRANCH  27  28
HETATM   28  C   UNL     1     -11.319  12.822  68.899  1.00  0.00    -0.296 C  
BRANCH  28  29
HETATM   29  C   UNL     1     -12.130  13.316  70.065  1.00  0.00    -0.385 A  
HETATM   30  C   UNL     1     -12.434  14.680  70.219  1.00  0.00    -0.346 A  
HETATM   31 CL   UNL     1     -11.845  15.886  69.126  1.00  0.00    -0.384 Cl 
HETATM   32  C   UNL     1     -13.234  15.128  71.279  1.00  0.00    -0.536 A  
HETATM   33  C   UNL     1     -13.724  14.226  72.218  1.00  0.00    -0.592 A  
HETATM   34  C   UNL     1     -13.391  12.879  72.114  1.00  0.00    -0.615 A  
HETATM   35  C   UNL     1     -12.592  12.429  71.055  1.00  0.00    -0.254 A  
HETATM   36 CL   UNL     1     -12.207  10.742  71.033  1.00  0.00    -0.472 Cl 
ENDBRANCH  28  29
ENDBRANCH  27  28
ENDBRANCH  26  27
ENDBRANCH  25  26
ENDBRANCH  24  25
ENDBRANCH  23  24
ENDBRANCH  22  23
ENDBRANCH  21  22
ENDBRANCH  20  21
ENDBRANCH  19  20
ENDBRANCH  18  19
ENDBRANCH  16  18
ENDBRANCH  15  16
ENDBRANCH  12  15
ENDBRANCH  10  12
ENDBRANCH   2   4
TORSDOF 16
ENDMDL
MODEL      267
REMARK 921   NORMALIZED FREE ENERGY PREDICTED BY IDOCK:   -4.30 KCAL/MOL
REMARK 922        TOTAL FREE ENERGY PREDICTED BY IDOCK:  -10.40 KCAL/MOL
REMARK 923 INTER-LIGAND FREE ENERGY PREDICTED BY IDOCK:   -8.32 KCAL/MOL
REMARK 924 INTRA-LIGAND FREE ENERGY PREDICTED BY IDOCK:   -2.08 KCAL/MOL
REMARK 927      BINDING AFFINITY PREDICTED BY RF-SCORE:    0.00 PKD
ROOT
HETATM    1  O   UNL     1      -9.746   9.715  63.927  1.00  0.00    -0.449 OA 
HETATM    2  C   UNL     1      -8.530  10.108  64.565  1.00  0.00    -0.177 C  
HETATM    3  H   UNL     1      -9.878  10.197  63.119  1.00  0.00     0.000 HD 
ENDROOT
BRANCH   2   4
HETATM    4  C   UNL     1      -8.321   9.342  65.846  1.00  0.00    -0.125 A  
HETATM    5  C   UNL     1      -8.536   7.964  65.963  1.00  0.00    -0.138 A  
HETATM    6  O   UNL     1      -8.886   7.195  64.888  1.00  0.00    -0.349 OA 
HETATM    7  C   UNL     1      -8.400   7.309  67.183  1.00  0.00    -0.118 A  
HETATM    8  C   UNL     1      -8.033   8.026  68.320  1.00  0.00    -0.128 A  
HETATM    9  H   UNL     1      -9.032   6.260  64.967  1.00  0.00     0.000 HD 
HETATM   10  C   UNL     1      -7.807   9.407  68.246  1.00  0.00    -0.090 A  
HETATM   11  C   UNL     1      -7.968  10.053  67.007  1.00  0.00    -0.106 A  
BRANCH  10  12
HETATM   12  C   UNL     1      -7.477  10.180  69.505  1.00  0.00    -0.133 C  
HETATM   13  O   UNL     1      -8.053  11.493  69.445  1.00  0.00    -0.357 OA 
HETATM   14  H   UNL     1      -7.846  11.978  70.236  1.00  0.00     0.000 HD 
BRANCH  12  15
HETATM   15  C   UNL     1      -8.011   9.436  70.747  1.00  0.00    -0.116 C  
BRANCH  15  16
HETATM   16  N   UNL     1      -6.910   8.979  71.612  1.00  0.00    -0.247 NA 
HETATM   17  H   UNL     1      -6.326   9.753  71.927  1.00  0.00     0.000 HD 
BRANCH  16  18
HETATM   18  C   UNL     1      -7.439   8.205  72.730  1.00  0.00    -0.125 C  
BRANCH  18  19
HETATM   19  C   UNL     1      -8.448   7.177  72.227  1.00  0.00    -0.126 C  
BRANCH  19  20
HETATM   20  C   UNL     1      -9.693   7.183  73.114  1.00  0.00    -0.232 C  
BRANCH  20  21
HETATM   21  C   UNL     1     -10.128   5.765  73.462  1.00  0.00    -0.202 C  
BRANCH  21  22
HETATM   22  C   UNL     1     -11.472   5.428  72.823  1.00  0.00    -0.333 C  
BRANCH  22  23
HETATM   23  C   UNL     1     -11.715   6.294  71.598  1.00  0.00    -0.284 C  
BRANCH  23  24
HETATM   24  O   UNL     1     -13.056   6.773  71.633  1.00  0.00    -0.328 OA 
BRANCH  24  25
HETATM   25  C   UNL     1     -13.083   8.179  71.868  1.00  0.00    -0.327 C  
BRANCH  25  26
HETATM   26  C   UNL     1     -11.958   8.849  71.096  1.00  0.00    -0.293 C  
BRANCH  26  27
HETATM   27  O   UNL     1     -11.876  10.217  71.495  1.00  0.00    -0.362 OA 
BRANCH  27  28
HETATM   28  C   UNL     1     -12.929  10.986  70.932  1.00  0.00    -0.224 C  
BRANCH  28  29
HETATM   29  C   UNL     1     -12.352  12.258  70.374  1.00  0.00    -0.309 A  
HETATM   30  C   UNL     1     -11.612  12.262  69.178  1.00  0.00    -0.318 A  
HETATM   31 CL   UNL     1     -11.257  10.809  68.307  1.00  0.00    -0.333 Cl 
HETATM   32  C   UNL     1     -11.121  13.457  68.636  1.00  0.00    -0.295 A  
HETATM   33  C   UNL     1     -11.339  14.666  69.289  1.00  0.00    -0.313 A  
HETATM   34  C   UNL     1     -12.022  14.677  70.501  1.00  0.00    -0.376 A  
HETATM   35  C   UNL     1     -12.514  13.483  71.045  1.00  0.00    -0.369 A  
HETATM   36 CL   UNL     1     -13.322  13.599  72.571  1.00  0.00    -0.634 Cl 
ENDBRANCH  28  29
ENDBRANCH  27  28
ENDBRANCH  26  27
ENDBRANCH  25  26
ENDBRANCH  24  25
ENDBRANCH  23  24
ENDBRANCH  22  23
ENDBRANCH  21  22
ENDBRANCH  20  21
ENDBRANCH  19  20
ENDBRANCH  18  19
ENDBRANCH  16  18
ENDBRANCH  15  16
ENDBRANCH  12  15
ENDBRANCH  10  12
ENDBRANCH   2   4
TORSDOF 16
ENDMDL
MODEL      268
REMARK 921   NORMALIZED FREE ENERGY PREDICTED BY IDOCK:   -4.30 KCAL/MOL
REMARK 922        TOTAL FREE ENERGY PREDICTED BY IDOCK:  -10.39 KCAL/MOL
REMARK 923 INTER-LIGAND FREE ENERGY PREDICTED BY IDOCK:   -8.14 KCAL/MOL
REMARK 924 INTRA-LIGAND FREE ENERGY PREDICTED BY IDOCK:   -2.25 KCAL/MOL
REMARK 927      BINDING AFFINITY PREDICTED BY RF-SCORE:    0.00 PKD
ROOT
HETATM    1  O   UNL     1     -11.601   9.305  70.004  1.00  0.00    -0.443 OA 
HETATM    2  C   UNL     1     -10.707   8.199  70.138  1.00  0.00    -0.243 C  
HETATM    3  H   UNL     1     -12.448   9.107  70.387  1.00  0.00     0.000 HD 
ENDROOT
BRANCH   2   4
HETATM    4  C   UNL     1      -9.364   8.514  69.530  1.00  0.00    -0.161 A  
HETATM    5  C   UNL     1      -8.520   7.540  68.985  1.00  0.00    -0.133 A  
HETATM    6  O   UNL     1      -8.893   6.228  68.899  1.00  0.00    -0.124 OA 
HETATM    7  C   UNL     1      -7.257   7.864  68.499  1.00  0.00    -0.085 A  
HETATM    8  C   UNL     1      -6.813   9.184  68.542  1.00  0.00    -0.063 A  
HETATM    9  H   UNL     1      -8.320   5.567  68.528  1.00  0.00     0.000 HD 
HETATM   10  C   UNL     1      -7.629  10.190  69.079  1.00  0.00    -0.096 A  
HETATM   11  C   UNL     1      -8.894   9.838  69.581  1.00  0.00    -0.224 A  
BRANCH  10  12
HETATM   12  C   UNL     1      -7.102  11.606  69.181  1.00  0.00    -0.090 C  
HETATM   13  O   UNL     1      -6.425  11.794  70.431  1.00  0.00    -0.492 OA 
HETATM   14  H   UNL     1      -6.095  12.682  70.495  1.00  0.00     0.000 HD 
BRANCH  12  15
HETATM   15  C   UNL     1      -6.133  11.903  68.017  1.00  0.00    -0.055 C  
BRANCH  15  16
HETATM   16  N   UNL     1      -6.622  13.014  67.183  1.00  0.00    -0.461 NA 
HETATM   17  H   UNL     1      -7.250  12.692  66.447  1.00  0.00     0.000 HD 
BRANCH  16  18
HETATM   18  C   UNL     1      -7.242  14.035  68.021  1.00  0.00    -0.144 C  
BRANCH  18  19
HETATM   19  C   UNL     1      -7.260  15.375  67.290  1.00  0.00    -0.229 C  
BRANCH  19  20
HETATM   20  C   UNL     1      -8.679  15.945  67.271  1.00  0.00    -0.206 C  
BRANCH  20  21
HETATM   21  C   UNL     1      -8.947  16.792  68.509  1.00  0.00    -0.244 C  
BRANCH  21  22
HETATM   22  C   UNL     1     -10.310  16.468  69.114  1.00  0.00    -0.316 C  
BRANCH  22  23
HETATM   23  C   UNL     1     -10.262  15.149  69.868  1.00  0.00    -0.160 C  
BRANCH  23  24
HETATM   24  O   UNL     1     -11.486  14.981  70.576  1.00  0.00    -0.264 OA 
BRANCH  24  25
HETATM   25  C   UNL     1     -12.343  14.072  69.890  1.00  0.00    -0.310 C  
BRANCH  25  26
HETATM   26  C   UNL     1     -11.622  12.752  69.672  1.00  0.00    -0.252 C  
BRANCH  26  27
HETATM   27  O   UNL     1     -11.853  12.317  68.332  1.00  0.00    -0.317 OA 
BRANCH  27  28
HETATM   28  C   UNL     1     -10.640  12.239  67.597  1.00  0.00    -0.215 C  
BRANCH  28  29
HETATM   29  C   UNL     1     -10.963  12.289  66.128  1.00  0.00    -0.328 A  
HETATM   30  C   UNL     1     -10.540  11.275  65.252  1.00  0.00    -0.261 A  
HETATM   31 CL   UNL     1      -9.570   9.942  65.780  1.00  0.00    -0.287 Cl 
HETATM   32  C   UNL     1     -10.887  11.301  63.894  1.00  0.00    -0.427 A  
HETATM   33  C   UNL     1     -11.641  12.352  63.383  1.00  0.00    -0.541 A  
HETATM   34  C   UNL     1     -12.024  13.393  64.222  1.00  0.00    -0.481 A  
HETATM   35  C   UNL     1     -11.679  13.369  65.580  1.00  0.00    -0.340 A  
HETATM   36 CL   UNL     1     -12.174  14.726  66.533  1.00  0.00    -0.151 Cl 
ENDBRANCH  28  29
ENDBRANCH  27  28
ENDBRANCH  26  27
ENDBRANCH  25  26
ENDBRANCH  24  25
ENDBRANCH  23  24
ENDBRANCH  22  23
ENDBRANCH  21  22
ENDBRANCH  20  21
ENDBRANCH  19  20
ENDBRANCH  18  19
ENDBRANCH  16  18
ENDBRANCH  15  16
ENDBRANCH  12  15
ENDBRANCH  10  12
ENDBRANCH   2   4
TORSDOF 16
ENDMDL
MODEL      269
REMARK 921   NORMALIZED FREE ENERGY PREDICTED BY IDOCK:   -4.30 KCAL/MOL
REMARK 922        TOTAL FREE ENERGY PREDICTED BY IDOCK:  -10.39 KCAL/MOL
REMARK 923 INTER-LIGAND FREE ENERGY PREDICTED BY IDOCK:   -8.24 KCAL/MOL
REMARK 924 INTRA-LIGAND FREE ENERGY PREDICTED BY IDOCK:   -2.14 KCAL/MOL
REMARK 927      BINDING AFFINITY PREDICTED BY RF-SCORE:    0.00 PKD
ROOT
HETATM    1  O   UNL     1     -11.043  12.862  64.096  1.00  0.00    -0.355 OA 
HETATM    2  C   UNL     1     -11.468  11.620  64.658  1.00  0.00    -0.178 C  
HETATM    3  H   UNL     1     -11.744  13.503  64.114  1.00  0.00     0.000 HD 
ENDROOT
BRANCH   2   4
HETATM    4  C   UNL     1     -10.355  10.605  64.629  1.00  0.00    -0.353 A  
HETATM    5  C   UNL     1      -9.567  10.359  63.499  1.00  0.00    -0.310 A  
HETATM    6  O   UNL     1      -9.708  11.086  62.349  1.00  0.00    -0.566 OA 
HETATM    7  C   UNL     1      -8.597   9.361  63.492  1.00  0.00    -0.215 A  
HETATM    8  C   UNL     1      -8.389   8.587  64.632  1.00  0.00    -0.156 A  
HETATM    9  H   UNL     1      -9.173  10.920  61.583  1.00  0.00     0.000 HD 
HETATM   10  C   UNL     1      -9.156   8.802  65.786  1.00  0.00    -0.267 A  
HETATM   11  C   UNL     1     -10.143   9.803  65.765  1.00  0.00    -0.308 A  
BRANCH  10  12
HETATM   12  C   UNL     1      -8.963   7.906  66.991  1.00  0.00    -0.128 C  
HETATM   13  O   UNL     1      -8.220   6.735  66.623  1.00  0.00    -0.111 OA 
HETATM   14  H   UNL     1      -8.098   6.173  67.379  1.00  0.00     0.000 HD 
BRANCH  12  15
HETATM   15  C   UNL     1      -8.216   8.663  68.109  1.00  0.00    -0.115 C  
BRANCH  15  16
HETATM   16  N   UNL     1      -6.783   8.801  67.798  1.00  0.00    -0.065 NA 
HETATM   17  H   UNL     1      -6.615   8.870  66.794  1.00  0.00     0.000 HD 
BRANCH  16  18
HETATM   18  C   UNL     1      -6.218   9.932  68.524  1.00  0.00    -0.049 C  
BRANCH  18  19
HETATM   19  C   UNL     1      -6.341  11.206  67.692  1.00  0.00    -0.054 C  
BRANCH  19  20
HETATM   20  C   UNL     1      -5.502  12.323  68.312  1.00  0.00    -0.055 C  
BRANCH  20  21
HETATM   21  C   UNL     1      -6.136  13.687  68.068  1.00  0.00    -0.138 C  
BRANCH  21  22
HETATM   22  C   UNL     1      -7.492  13.550  67.383  1.00  0.00    -0.136 C  
BRANCH  22  23
HETATM   23  C   UNL     1      -8.297  14.831  67.530  1.00  0.00    -0.183 C  
BRANCH  23  24
HETATM   24  O   UNL     1      -8.409  15.147  68.913  1.00  0.00    -0.165 OA 
BRANCH  24  25
HETATM   25  C   UNL     1      -9.192  16.325  69.100  1.00  0.00    -0.235 C  
BRANCH  25  26
HETATM   26  C   UNL     1     -10.669  15.973  69.039  1.00  0.00    -0.274 C  
BRANCH  26  27
HETATM   27  O   UNL     1     -10.917  14.874  69.915  1.00  0.00    -0.253 OA 
BRANCH  27  28
HETATM   28  C   UNL     1     -12.252  14.404  69.792  1.00  0.00    -0.321 C  
BRANCH  28  29
HETATM   29  C   UNL     1     -12.315  12.989  70.299  1.00  0.00    -0.311 A  
HETATM   30  C   UNL     1     -12.960  12.674  71.508  1.00  0.00    -0.282 A  
HETATM   31 CL   UNL     1     -13.664  13.887  72.523  1.00  0.00    -0.657 Cl 
HETATM   32  C   UNL     1     -13.060  11.348  71.950  1.00  0.00    -0.505 A  
HETATM   33  C   UNL     1     -12.497  10.317  71.206  1.00  0.00    -0.514 A  
HETATM   34  C   UNL     1     -11.807  10.612  70.035  1.00  0.00    -0.403 A  
HETATM   35  C   UNL     1     -11.706  11.937  69.591  1.00  0.00    -0.343 A  
HETATM   36 CL   UNL     1     -10.801  12.205  68.140  1.00  0.00    -0.238 Cl 
ENDBRANCH  28  29
ENDBRANCH  27  28
ENDBRANCH  26  27
ENDBRANCH  25  26
ENDBRANCH  24  25
ENDBRANCH  23  24
ENDBRANCH  22  23
ENDBRANCH  21  22
ENDBRANCH  20  21
ENDBRANCH  19  20
ENDBRANCH  18  19
ENDBRANCH  16  18
ENDBRANCH  15  16
ENDBRANCH  12  15
ENDBRANCH  10  12
ENDBRANCH   2   4
TORSDOF 16
ENDMDL
MODEL      270
REMARK 921   NORMALIZED FREE ENERGY PREDICTED BY IDOCK:   -4.30 KCAL/MOL
REMARK 922        TOTAL FREE ENERGY PREDICTED BY IDOCK:  -10.39 KCAL/MOL
REMARK 923 INTER-LIGAND FREE ENERGY PREDICTED BY IDOCK:   -9.30 KCAL/MOL
REMARK 924 INTRA-LIGAND FREE ENERGY PREDICTED BY IDOCK:   -1.08 KCAL/MOL
REMARK 927      BINDING AFFINITY PREDICTED BY RF-SCORE:    0.00 PKD
ROOT
HETATM    1  O   UNL     1     -10.919  17.727  64.823  1.00  0.00    -0.855 OA 
HETATM    2  C   UNL     1     -10.703  18.909  65.596  1.00  0.00    -0.151 C  
HETATM    3  H   UNL     1     -11.598  17.865  64.172  1.00  0.00     0.000 HD 
ENDROOT
BRANCH   2   4
HETATM    4  C   UNL     1      -9.627  18.690  66.627  1.00  0.00    -0.347 A  
HETATM    5  C   UNL     1      -8.988  19.734  67.305  1.00  0.00    -0.326 A  
HETATM    6  O   UNL     1      -9.353  21.040  67.129  1.00  0.00    -0.663 OA 
HETATM    7  C   UNL     1      -7.948  19.492  68.198  1.00  0.00    -0.353 A  
HETATM    8  C   UNL     1      -7.529  18.185  68.438  1.00  0.00    -0.287 A  
HETATM    9  H   UNL     1      -8.920  21.749  67.589  1.00  0.00     0.000 HD 
HETATM   10  C   UNL     1      -8.144  17.110  67.781  1.00  0.00    -0.197 A  
HETATM   11  C   UNL     1      -9.180  17.379  66.869  1.00  0.00    -0.266 A  
BRANCH  10  12
HETATM   12  C   UNL     1      -7.629  15.704  68.003  1.00  0.00    -0.124 C  
HETATM   13  O   UNL     1      -6.221  15.644  67.737  1.00  0.00    -0.134 OA 
HETATM   14  H   UNL     1      -5.898  14.762  67.876  1.00  0.00     0.000 HD 
BRANCH  12  15
HETATM   15  C   UNL     1      -7.902  15.255  69.454  1.00  0.00    -0.227 C  
BRANCH  15  16
HETATM   16  N   UNL     1      -9.341  15.051  69.690  1.00  0.00    -0.450 NA 
HETATM   17  H   UNL     1      -9.849  15.934  69.739  1.00  0.00     0.000 HD 
BRANCH  16  18
HETATM   18  C   UNL     1      -9.894  14.159  68.676  1.00  0.00    -0.206 C  
BRANCH  18  19
HETATM   19  C   UNL     1     -11.417  14.130  68.777  1.00  0.00    -0.333 C  
BRANCH  19  20
HETATM   20  C   UNL     1     -11.867  14.710  70.117  1.00  0.00    -0.365 C  
BRANCH  20  21
HETATM   21  C   UNL     1     -12.499  13.637  70.996  1.00  0.00    -0.456 C  
BRANCH  21  22
HETATM   22  C   UNL     1     -12.262  12.244  70.422  1.00  0.00    -0.371 C  
BRANCH  22  23
HETATM   23  C   UNL     1     -12.700  11.176  71.411  1.00  0.00    -0.418 C  
BRANCH  23  24
HETATM   24  O   UNL     1     -12.415   9.895  70.859  1.00  0.00    -0.308 OA 
BRANCH  24  25
HETATM   25  C   UNL     1     -11.539   9.161  71.711  1.00  0.00    -0.387 C  
BRANCH  25  26
HETATM   26  C   UNL     1     -12.073   7.752  71.905  1.00  0.00    -0.304 C  
BRANCH  26  27
HETATM   27  O   UNL     1     -11.040   6.820  71.587  1.00  0.00    -0.234 OA 
BRANCH  27  28
HETATM   28  C   UNL     1     -11.317   6.132  70.376  1.00  0.00    -0.328 C  
BRANCH  28  29
HETATM   29  C   UNL     1     -10.016   5.850  69.673  1.00  0.00    -0.234 A  
HETATM   30  C   UNL     1      -9.302   4.662  69.908  1.00  0.00    -0.144 A  
HETATM   31 CL   UNL     1      -9.826   3.481  71.060  1.00  0.00    -0.217 Cl 
HETATM   32  C   UNL     1      -8.118   4.381  69.213  1.00  0.00    -0.069 A  
HETATM   33  C   UNL     1      -7.614   5.290  68.290  1.00  0.00    -0.080 A  
HETATM   34  C   UNL     1      -8.276   6.496  68.082  1.00  0.00    -0.117 A  
HETATM   35  C   UNL     1      -9.460   6.779  68.775  1.00  0.00    -0.130 A  
HETATM   36 CL   UNL     1     -10.192   8.318  68.471  1.00  0.00    -0.224 Cl 
ENDBRANCH  28  29
ENDBRANCH  27  28
ENDBRANCH  26  27
ENDBRANCH  25  26
ENDBRANCH  24  25
ENDBRANCH  23  24
ENDBRANCH  22  23
ENDBRANCH  21  22
ENDBRANCH  20  21
ENDBRANCH  19  20
ENDBRANCH  18  19
ENDBRANCH  16  18
ENDBRANCH  15  16
ENDBRANCH  12  15
ENDBRANCH  10  12
ENDBRANCH   2   4
TORSDOF 16
ENDMDL
MODEL      271
REMARK 921   NORMALIZED FREE ENERGY PREDICTED BY IDOCK:   -4.29 KCAL/MOL
REMARK 922        TOTAL FREE ENERGY PREDICTED BY IDOCK:  -10.37 KCAL/MOL
REMARK 923 INTER-LIGAND FREE ENERGY PREDICTED BY IDOCK:   -7.95 KCAL/MOL
REMARK 924 INTRA-LIGAND FREE ENERGY PREDICTED BY IDOCK:   -2.42 KCAL/MOL
REMARK 927      BINDING AFFINITY PREDICTED BY RF-SCORE:    0.00 PKD
ROOT
HETATM    1  O   UNL     1     -12.493  14.216  63.100  1.00  0.00    -1.126 OA 
HETATM    2  C   UNL     1     -12.285  14.129  64.511  1.00  0.00    -0.445 C  
HETATM    3  H   UNL     1     -13.120  14.898  62.890  1.00  0.00     0.000 HD 
ENDROOT
BRANCH   2   4
HETATM    4  C   UNL     1     -11.291  13.048  64.844  1.00  0.00    -0.332 A  
HETATM    5  C   UNL     1     -11.217  11.831  64.156  1.00  0.00    -0.364 A  
HETATM    6  O   UNL     1     -12.006  11.568  63.071  1.00  0.00    -0.917 OA 
HETATM    7  C   UNL     1     -10.332  10.830  64.543  1.00  0.00    -0.401 A  
HETATM    8  C   UNL     1      -9.488  11.032  65.633  1.00  0.00    -0.250 A  
HETATM    9  H   UNL     1     -11.956  10.743  62.603  1.00  0.00     0.000 HD 
HETATM   10  C   UNL     1      -9.529  12.237  66.349  1.00  0.00    -0.240 A  
HETATM   11  C   UNL     1     -10.444  13.228  65.952  1.00  0.00    -0.289 A  
BRANCH  10  12
HETATM   12  C   UNL     1      -8.653  12.411  67.572  1.00  0.00    -0.177 C  
HETATM   13  O   UNL     1      -9.465  12.620  68.736  1.00  0.00    -0.401 OA 
HETATM   14  H   UNL     1      -8.915  12.729  69.503  1.00  0.00     0.000 HD 
BRANCH  12  15
HETATM   15  C   UNL     1      -7.764  11.166  67.777  1.00  0.00    -0.112 C  
BRANCH  15  16
HETATM   16  N   UNL     1      -6.352  11.462  67.484  1.00  0.00    -0.063 NA 
HETATM   17  H   UNL     1      -6.028  12.299  67.970  1.00  0.00     0.000 HD 
BRANCH  16  18
HETATM   18  C   UNL     1      -5.522  10.301  67.785  1.00  0.00    -0.041 C  
BRANCH  18  19
HETATM   19  C   UNL     1      -5.240   9.511  66.510  1.00  0.00    -0.044 C  
BRANCH  19  20
HETATM   20  C   UNL     1      -6.152   8.287  66.437  1.00  0.00    -0.049 C  
BRANCH  20  21
HETATM   21  C   UNL     1      -7.144   8.408  65.286  1.00  0.00    -0.075 C  
BRANCH  21  22
HETATM   22  C   UNL     1      -7.974   7.137  65.137  1.00  0.00    -0.128 C  
BRANCH  22  23
HETATM   23  C   UNL     1      -7.104   5.904  65.322  1.00  0.00    -0.065 C  
BRANCH  23  24
HETATM   24  O   UNL     1      -7.946   4.776  65.538  1.00  0.00    -0.093 OA 
BRANCH  24  25
HETATM   25  C   UNL     1      -9.265   5.192  65.883  1.00  0.00    -0.158 C  
BRANCH  25  26
HETATM   26  C   UNL     1      -9.750   4.408  67.091  1.00  0.00    -0.197 C  
BRANCH  26  27
HETATM   27  O   UNL     1     -10.429   5.298  67.976  1.00  0.00    -0.153 OA 
BRANCH  27  28
HETATM   28  C   UNL     1      -9.959   5.163  69.310  1.00  0.00    -0.210 C  
BRANCH  28  29
HETATM   29  C   UNL     1      -9.544   6.518  69.814  1.00  0.00    -0.161 A  
HETATM   30  C   UNL     1      -8.213   6.960  69.711  1.00  0.00    -0.131 A  
HETATM   31 CL   UNL     1      -6.956   5.962  69.064  1.00  0.00    -0.066 Cl 
HETATM   32  C   UNL     1      -7.843   8.243  70.136  1.00  0.00    -0.097 A  
HETATM   33  C   UNL     1      -8.788   9.098  70.694  1.00  0.00    -0.278 A  
HETATM   34  C   UNL     1     -10.098   8.660  70.854  1.00  0.00    -0.262 A  
HETATM   35  C   UNL     1     -10.472   7.378  70.430  1.00  0.00    -0.221 A  
HETATM   36 CL   UNL     1     -12.117   6.916  70.703  1.00  0.00    -0.407 Cl 
ENDBRANCH  28  29
ENDBRANCH  27  28
ENDBRANCH  26  27
ENDBRANCH  25  26
ENDBRANCH  24  25
ENDBRANCH  23  24
ENDBRANCH  22  23
ENDBRANCH  21  22
ENDBRANCH  20  21
ENDBRANCH  19  20
ENDBRANCH  18  19
ENDBRANCH  16  18
ENDBRANCH  15  16
ENDBRANCH  12  15
ENDBRANCH  10  12
ENDBRANCH   2   4
TORSDOF 16
ENDMDL
MODEL      272
REMARK 921   NORMALIZED FREE ENERGY PREDICTED BY IDOCK:   -4.28 KCAL/MOL
REMARK 922        TOTAL FREE ENERGY PREDICTED BY IDOCK:  -10.36 KCAL/MOL
REMARK 923 INTER-LIGAND FREE ENERGY PREDICTED BY IDOCK:   -8.81 KCAL/MOL
REMARK 924 INTRA-LIGAND FREE ENERGY PREDICTED BY IDOCK:   -1.55 KCAL/MOL
REMARK 927      BINDING AFFINITY PREDICTED BY RF-SCORE:    0.00 PKD
ROOT
HETATM    1  O   UNL     1     -11.478  16.213  63.788  1.00  0.00    -1.323 OA 
HETATM    2  C   UNL     1     -10.996  15.779  65.060  1.00  0.00    -0.417 C  
HETATM    3  H   UNL     1     -11.383  17.153  63.689  1.00  0.00     0.000 HD 
ENDROOT
BRANCH   2   4
HETATM    4  C   UNL     1     -11.147  14.288  65.215  1.00  0.00    -0.335 A  
HETATM    5  C   UNL     1     -11.809  13.691  66.294  1.00  0.00    -0.392 A  
HETATM    6  O   UNL     1     -12.436  14.432  67.257  1.00  0.00    -0.601 OA 
HETATM    7  C   UNL     1     -11.864  12.307  66.436  1.00  0.00    -0.382 A  
HETATM    8  C   UNL     1     -11.258  11.487  65.488  1.00  0.00    -0.204 A  
HETATM    9  H   UNL     1     -12.885  14.027  67.988  1.00  0.00     0.000 HD 
HETATM   10  C   UNL     1     -10.586  12.045  64.391  1.00  0.00    -0.361 A  
HETATM   11  C   UNL     1     -10.527  13.446  64.276  1.00  0.00    -0.325 A  
BRANCH  10  12
HETATM   12  C   UNL     1      -9.875  11.139  63.408  1.00  0.00    -0.361 C  
HETATM   13  O   UNL     1      -8.675  11.767  62.934  1.00  0.00    -0.636 OA 
HETATM   14  H   UNL     1      -8.229  11.199  62.318  1.00  0.00     0.000 HD 
BRANCH  12  15
HETATM   15  C   UNL     1      -9.526   9.792  64.075  1.00  0.00    -0.065 C  
BRANCH  15  16
HETATM   16  N   UNL     1      -8.906   8.864  63.115  1.00  0.00    -0.432 NA 
HETATM   17  H   UNL     1      -8.709   9.314  62.221  1.00  0.00     0.000 HD 
BRANCH  16  18
HETATM   18  C   UNL     1      -7.711   8.262  63.697  1.00  0.00    -0.146 C  
BRANCH  18  19
HETATM   19  C   UNL     1      -8.023   7.712  65.086  1.00  0.00    -0.130 C  
BRANCH  19  20
HETATM   20  C   UNL     1      -7.265   6.405  65.317  1.00  0.00    -0.070 C  
BRANCH  20  21
HETATM   21  C   UNL     1      -6.580   6.400  66.679  1.00  0.00    -0.048 C  
BRANCH  21  22
HETATM   22  C   UNL     1      -7.161   5.318  67.584  1.00  0.00    -0.067 C  
BRANCH  22  23
HETATM   23  C   UNL     1      -8.166   5.915  68.556  1.00  0.00    -0.109 C  
BRANCH  23  24
HETATM   24  O   UNL     1      -9.373   5.163  68.485  1.00  0.00    -0.115 OA 
BRANCH  24  25
HETATM   25  C   UNL     1     -10.276   5.747  67.548  1.00  0.00    -0.196 C  
BRANCH  25  26
HETATM   26  C   UNL     1     -10.495   7.211  67.892  1.00  0.00    -0.212 C  
BRANCH  26  27
HETATM   27  O   UNL     1     -11.337   7.293  69.042  1.00  0.00     0.065 OA 
BRANCH  27  28
HETATM   28  C   UNL     1     -11.179   8.535  69.712  1.00  0.00     0.031 C  
BRANCH  28  29
HETATM   29  C   UNL     1     -10.417   8.301  70.988  1.00  0.00    -0.241 A  
HETATM   30  C   UNL     1      -9.044   8.588  71.082  1.00  0.00    -0.190 A  
HETATM   31 CL   UNL     1      -8.126   9.162  69.732  1.00  0.00    -0.101 Cl 
HETATM   32  C   UNL     1      -8.350   8.416  72.288  1.00  0.00    -0.218 A  
HETATM   33  C   UNL     1      -9.009   7.933  73.413  1.00  0.00    -0.339 A  
HETATM   34  C   UNL     1     -10.354   7.591  73.327  1.00  0.00    -0.412 A  
HETATM   35  C   UNL     1     -11.050   7.762  72.123  1.00  0.00    -0.279 A  
HETATM   36 CL   UNL     1     -12.712   7.278  72.109  1.00  0.00    -0.197 Cl 
ENDBRANCH  28  29
ENDBRANCH  27  28
ENDBRANCH  26  27
ENDBRANCH  25  26
ENDBRANCH  24  25
ENDBRANCH  23  24
ENDBRANCH  22  23
ENDBRANCH  21  22
ENDBRANCH  20  21
ENDBRANCH  19  20
ENDBRANCH  18  19
ENDBRANCH  16  18
ENDBRANCH  15  16
ENDBRANCH  12  15
ENDBRANCH  10  12
ENDBRANCH   2   4
TORSDOF 16
ENDMDL
MODEL      273
REMARK 921   NORMALIZED FREE ENERGY PREDICTED BY IDOCK:   -4.27 KCAL/MOL
REMARK 922        TOTAL FREE ENERGY PREDICTED BY IDOCK:  -10.34 KCAL/MOL
REMARK 923 INTER-LIGAND FREE ENERGY PREDICTED BY IDOCK:   -9.49 KCAL/MOL
REMARK 924 INTRA-LIGAND FREE ENERGY PREDICTED BY IDOCK:   -0.85 KCAL/MOL
REMARK 927      BINDING AFFINITY PREDICTED BY RF-SCORE:    0.00 PKD
ROOT
HETATM    1  O   UNL     1      -6.274   4.690  70.587  1.00  0.00    -0.020 OA 
HETATM    2  C   UNL     1      -7.465   3.903  70.612  1.00  0.00    -0.041 C  
HETATM    3  H   UNL     1      -5.528   4.191  70.899  1.00  0.00     0.000 HD 
ENDROOT
BRANCH   2   4
HETATM    4  C   UNL     1      -8.647   4.695  70.118  1.00  0.00    -0.101 A  
HETATM    5  C   UNL     1      -9.696   5.109  70.946  1.00  0.00    -0.188 A  
HETATM    6  O   UNL     1      -9.684   4.882  72.294  1.00  0.00    -0.151 OA 
HETATM    7  C   UNL     1     -10.805   5.777  70.435  1.00  0.00    -0.360 A  
HETATM    8  C   UNL     1     -10.882   6.053  69.072  1.00  0.00    -0.412 A  
HETATM    9  H   UNL     1     -10.396   5.163  72.857  1.00  0.00     0.000 HD 
HETATM   10  C   UNL     1      -9.852   5.657  68.208  1.00  0.00    -0.177 A  
HETATM   11  C   UNL     1      -8.749   4.967  68.742  1.00  0.00    -0.101 A  
BRANCH  10  12
HETATM   12  C   UNL     1      -9.985   5.905  66.720  1.00  0.00    -0.175 C  
HETATM   13  O   UNL     1     -11.360   6.129  66.377  1.00  0.00    -0.715 OA 
HETATM   14  H   UNL     1     -11.443   6.285  65.443  1.00  0.00     0.000 HD 
BRANCH  12  15
HETATM   15  C   UNL     1      -9.141   7.128  66.302  1.00  0.00    -0.147 C  
BRANCH  15  16
HETATM   16  N   UNL     1      -9.992   8.302  66.043  1.00  0.00    -0.444 NA 
HETATM   17  H   UNL     1     -10.482   8.612  66.883  1.00  0.00     0.000 HD 
BRANCH  16  18
HETATM   18  C   UNL     1      -9.200   9.374  65.449  1.00  0.00    -0.244 C  
BRANCH  18  19
HETATM   19  C   UNL     1      -9.884  10.720  65.675  1.00  0.00    -0.299 C  
BRANCH  19  20
HETATM   20  C   UNL     1     -10.805  11.047  64.500  1.00  0.00    -0.257 C  
BRANCH  20  21
HETATM   21  C   UNL     1     -10.348  12.309  63.778  1.00  0.00    -0.464 C  
BRANCH  21  22
HETATM   22  C   UNL     1     -10.836  13.563  64.497  1.00  0.00    -0.422 C  
BRANCH  22  23
HETATM   23  C   UNL     1     -12.260  13.375  64.994  1.00  0.00    -0.424 C  
BRANCH  23  24
HETATM   24  O   UNL     1     -12.347  13.863  66.329  1.00  0.00    -0.453 OA 
BRANCH  24  25
HETATM   25  C   UNL     1     -11.060  14.242  66.812  1.00  0.00    -0.314 C  
BRANCH  25  26
HETATM   26  C   UNL     1     -11.205  15.361  67.830  1.00  0.00    -0.329 C  
BRANCH  26  27
HETATM   27  O   UNL     1     -10.205  16.348  67.575  1.00  0.00    -0.260 OA 
BRANCH  27  28
HETATM   28  C   UNL     1     -10.073  17.245  68.668  1.00  0.00    -0.341 C  
BRANCH  28  29
HETATM   29  C   UNL     1      -9.047  18.288  68.314  1.00  0.00    -0.318 A  
HETATM   30  C   UNL     1      -9.401  19.452  67.609  1.00  0.00    -0.309 A  
HETATM   31 CL   UNL     1     -11.013  19.735  67.044  1.00  0.00    -0.474 Cl 
HETATM   32  C   UNL     1      -8.452  20.444  67.328  1.00  0.00    -0.405 A  
HETATM   33  C   UNL     1      -7.129  20.280  67.723  1.00  0.00    -0.339 A  
HETATM   34  C   UNL     1      -6.746  19.112  68.374  1.00  0.00    -0.289 A  
HETATM   35  C   UNL     1      -7.693  18.119  68.657  1.00  0.00    -0.297 A  
HETATM   36 CL   UNL     1      -7.112  16.690  69.441  1.00  0.00    -0.214 Cl 
ENDBRANCH  28  29
ENDBRANCH  27  28
ENDBRANCH  26  27
ENDBRANCH  25  26
ENDBRANCH  24  25
ENDBRANCH  23  24
ENDBRANCH  22  23
ENDBRANCH  21  22
ENDBRANCH  20  21
ENDBRANCH  19  20
ENDBRANCH  18  19
ENDBRANCH  16  18
ENDBRANCH  15  16
ENDBRANCH  12  15
ENDBRANCH  10  12
ENDBRANCH   2   4
TORSDOF 16
ENDMDL
MODEL      274
REMARK 921   NORMALIZED FREE ENERGY PREDICTED BY IDOCK:   -4.27 KCAL/MOL
REMARK 922        TOTAL FREE ENERGY PREDICTED BY IDOCK:  -10.33 KCAL/MOL
REMARK 923 INTER-LIGAND FREE ENERGY PREDICTED BY IDOCK:   -7.90 KCAL/MOL
REMARK 924 INTRA-LIGAND FREE ENERGY PREDICTED BY IDOCK:   -2.43 KCAL/MOL
REMARK 927      BINDING AFFINITY PREDICTED BY RF-SCORE:    0.00 PKD
ROOT
HETATM    1  O   UNL     1     -11.773   7.314  73.056  1.00  0.00    -0.564 OA 
HETATM    2  C   UNL     1     -11.205   8.241  72.130  1.00  0.00    -0.345 C  
HETATM    3  H   UNL     1     -12.563   7.665  73.448  1.00  0.00     0.000 HD 
ENDROOT
BRANCH   2   4
HETATM    4  C   UNL     1      -9.951   7.683  71.507  1.00  0.00    -0.200 A  
HETATM    5  C   UNL     1      -8.944   8.483  70.957  1.00  0.00    -0.179 A  
HETATM    6  O   UNL     1      -8.995   9.848  71.013  1.00  0.00    -0.281 OA 
HETATM    7  C   UNL     1      -7.835   7.925  70.327  1.00  0.00    -0.089 A  
HETATM    8  C   UNL     1      -7.709   6.540  70.242  1.00  0.00    -0.098 A  
HETATM    9  H   UNL     1      -8.311  10.392  70.640  1.00  0.00     0.000 HD 
HETATM   10  C   UNL     1      -8.695   5.703  70.782  1.00  0.00    -0.135 A  
HETATM   11  C   UNL     1      -9.816   6.288  71.398  1.00  0.00    -0.195 A  
BRANCH  10  12
HETATM   12  C   UNL     1      -8.574   4.202  70.619  1.00  0.00    -0.075 C  
HETATM   13  O   UNL     1      -9.724   3.550  71.174  1.00  0.00    -0.173 OA 
HETATM   14  H   UNL     1      -9.649   2.608  71.072  1.00  0.00     0.000 HD 
BRANCH  12  15
HETATM   15  C   UNL     1      -8.439   3.834  69.127  1.00  0.00    -0.073 C  
BRANCH  15  16
HETATM   16  N   UNL     1      -9.739   3.902  68.439  1.00  0.00    -0.099 NA 
HETATM   17  H   UNL     1     -10.382   4.545  68.900  1.00  0.00     0.000 HD 
BRANCH  16  18
HETATM   18  C   UNL     1      -9.546   4.239  67.032  1.00  0.00    -0.203 C  
BRANCH  18  19
HETATM   19  C   UNL     1      -9.522   5.754  66.854  1.00  0.00    -0.142 C  
BRANCH  19  20
HETATM   20  C   UNL     1     -10.844   6.361  67.324  1.00  0.00    -0.463 C  
BRANCH  20  21
HETATM   21  C   UNL     1     -10.647   7.789  67.819  1.00  0.00    -0.254 C  
BRANCH  21  22
HETATM   22  C   UNL     1      -9.968   8.652  66.760  1.00  0.00    -0.343 C  
BRANCH  22  23
HETATM   23  C   UNL     1     -10.313  10.119  66.963  1.00  0.00    -0.244 C  
BRANCH  23  24
HETATM   24  O   UNL     1     -10.312  10.402  68.358  1.00  0.00    -0.160 OA 
BRANCH  24  25
HETATM   25  C   UNL     1     -11.412  11.240  68.703  1.00  0.00    -0.297 C  
BRANCH  25  26
HETATM   26  C   UNL     1     -11.945  11.926  67.456  1.00  0.00    -0.031 C  
BRANCH  26  27
HETATM   27  O   UNL     1     -12.020  13.331  67.699  1.00  0.00    -0.355 OA 
BRANCH  27  28
HETATM   28  C   UNL     1     -10.742  13.873  68.001  1.00  0.00    -0.247 C  
BRANCH  28  29
HETATM   29  C   UNL     1     -10.686  15.287  67.489  1.00  0.00    -0.285 A  
HETATM   30  C   UNL     1     -10.858  16.384  68.352  1.00  0.00    -0.342 A  
HETATM   31 CL   UNL     1     -11.211  16.189  70.035  1.00  0.00    -0.354 Cl 
HETATM   32  C   UNL     1     -10.753  17.699  67.879  1.00  0.00    -0.341 A  
HETATM   33  C   UNL     1     -10.498  17.942  66.533  1.00  0.00    -0.315 A  
HETATM   34  C   UNL     1     -10.378  16.872  65.653  1.00  0.00    -0.254 A  
HETATM   35  C   UNL     1     -10.483  15.556  66.123  1.00  0.00    -0.313 A  
HETATM   36 CL   UNL     1     -10.351  14.296  64.945  1.00  0.00    -0.454 Cl 
ENDBRANCH  28  29
ENDBRANCH  27  28
ENDBRANCH  26  27
ENDBRANCH  25  26
ENDBRANCH  24  25
ENDBRANCH  23  24
ENDBRANCH  22  23
ENDBRANCH  21  22
ENDBRANCH  20  21
ENDBRANCH  19  20
ENDBRANCH  18  19
ENDBRANCH  16  18
ENDBRANCH  15  16
ENDBRANCH  12  15
ENDBRANCH  10  12
ENDBRANCH   2   4
TORSDOF 16
ENDMDL
MODEL      275
REMARK 921   NORMALIZED FREE ENERGY PREDICTED BY IDOCK:   -4.26 KCAL/MOL
REMARK 922        TOTAL FREE ENERGY PREDICTED BY IDOCK:  -10.33 KCAL/MOL
REMARK 923 INTER-LIGAND FREE ENERGY PREDICTED BY IDOCK:   -8.48 KCAL/MOL
REMARK 924 INTRA-LIGAND FREE ENERGY PREDICTED BY IDOCK:   -1.85 KCAL/MOL
REMARK 927      BINDING AFFINITY PREDICTED BY RF-SCORE:    0.00 PKD
ROOT
HETATM    1  O   UNL     1     -12.596  13.949  62.932  1.00  0.00    -0.966 OA 
HETATM    2  C   UNL     1     -12.375  13.964  64.343  1.00  0.00    -0.361 C  
HETATM    3  H   UNL     1     -13.221  14.617  62.677  1.00  0.00     0.000 HD 
ENDROOT
BRANCH   2   4
HETATM    4  C   UNL     1     -11.382  12.904  64.746  1.00  0.00    -0.349 A  
HETATM    5  C   UNL     1     -11.341  11.630  64.169  1.00  0.00    -0.317 A  
HETATM    6  O   UNL     1     -12.162  11.280  63.134  1.00  0.00    -0.814 OA 
HETATM    7  C   UNL     1     -10.455  10.657  64.621  1.00  0.00    -0.275 A  
HETATM    8  C   UNL     1      -9.578  10.946  65.664  1.00  0.00    -0.268 A  
HETATM    9  H   UNL     1     -12.134  10.415  62.742  1.00  0.00     0.000 HD 
HETATM   10  C   UNL     1      -9.587  12.210  66.269  1.00  0.00    -0.246 A  
HETATM   11  C   UNL     1     -10.502  13.174  65.809  1.00  0.00    -0.291 A  
BRANCH  10  12
HETATM   12  C   UNL     1      -8.675  12.483  67.447  1.00  0.00    -0.189 C  
HETATM   13  O   UNL     1      -9.411  13.106  68.509  1.00  0.00    -0.327 OA 
HETATM   14  H   UNL     1      -8.839  13.277  69.248  1.00  0.00     0.000 HD 
BRANCH  12  15
HETATM   15  C   UNL     1      -8.046  11.169  67.954  1.00  0.00    -0.119 C  
BRANCH  15  16
HETATM   16  N   UNL     1      -6.657  11.024  67.486  1.00  0.00    -0.065 NA 
HETATM   17  H   UNL     1      -6.121  11.882  67.609  1.00  0.00     0.000 HD 
BRANCH  16  18
HETATM   18  C   UNL     1      -6.022   9.885  68.141  1.00  0.00    -0.043 C  
BRANCH  18  19
HETATM   19  C   UNL     1      -6.247   8.616  67.325  1.00  0.00    -0.056 C  
BRANCH  19  20
HETATM   20  C   UNL     1      -7.326   7.753  67.979  1.00  0.00    -0.102 C  
BRANCH  20  21
HETATM   21  C   UNL     1      -8.532   7.591  67.061  1.00  0.00    -0.122 C  
BRANCH  21  22
HETATM   22  C   UNL     1      -9.725   7.013  67.815  1.00  0.00    -0.156 C  
BRANCH  22  23
HETATM   23  C   UNL     1      -9.266   5.990  68.842  1.00  0.00    -0.124 C  
BRANCH  23  24
HETATM   24  O   UNL     1     -10.375   5.631  69.659  1.00  0.00    -0.223 OA 
BRANCH  24  25
HETATM   25  C   UNL     1     -11.477   6.506  69.427  1.00  0.00    -0.281 C  
BRANCH  25  26
HETATM   26  C   UNL     1     -12.230   6.736  70.726  1.00  0.00    -0.297 C  
BRANCH  26  27
HETATM   27  O   UNL     1     -11.960   8.060  71.187  1.00  0.00    -0.293 OA 
BRANCH  27  28
HETATM   28  C   UNL     1     -11.459   8.054  72.516  1.00  0.00    -0.409 C  
BRANCH  28  29
HETATM   29  C   UNL     1      -9.956   8.028  72.465  1.00  0.00    -0.338 A  
HETATM   30  C   UNL     1      -9.245   8.757  71.496  1.00  0.00    -0.262 A  
HETATM   31 CL   UNL     1     -10.040   9.675  70.263  1.00  0.00    -0.310 Cl 
HETATM   32  C   UNL     1      -7.843   8.770  71.486  1.00  0.00    -0.147 A  
HETATM   33  C   UNL     1      -7.128   8.036  72.426  1.00  0.00    -0.101 A  
HETATM   34  C   UNL     1      -7.812   7.264  73.359  1.00  0.00    -0.117 A  
HETATM   35  C   UNL     1      -9.213   7.250  73.372  1.00  0.00    -0.184 A  
HETATM   36 CL   UNL     1      -9.970   6.234  74.551  1.00  0.00    -0.329 Cl 
ENDBRANCH  28  29
ENDBRANCH  27  28
ENDBRANCH  26  27
ENDBRANCH  25  26
ENDBRANCH  24  25
ENDBRANCH  23  24
ENDBRANCH  22  23
ENDBRANCH  21  22
ENDBRANCH  20  21
ENDBRANCH  19  20
ENDBRANCH  18  19
ENDBRANCH  16  18
ENDBRANCH  15  16
ENDBRANCH  12  15
ENDBRANCH  10  12
ENDBRANCH   2   4
TORSDOF 16
ENDMDL
MODEL      276
REMARK 921   NORMALIZED FREE ENERGY PREDICTED BY IDOCK:   -4.26 KCAL/MOL
REMARK 922        TOTAL FREE ENERGY PREDICTED BY IDOCK:  -10.32 KCAL/MOL
REMARK 923 INTER-LIGAND FREE ENERGY PREDICTED BY IDOCK:   -8.74 KCAL/MOL
REMARK 924 INTRA-LIGAND FREE ENERGY PREDICTED BY IDOCK:   -1.57 KCAL/MOL
REMARK 927      BINDING AFFINITY PREDICTED BY RF-SCORE:    0.00 PKD
ROOT
HETATM    1  O   UNL     1     -12.231  11.431  62.826  1.00  0.00    -0.847 OA 
HETATM    2  C   UNL     1     -11.815  12.574  63.575  1.00  0.00    -0.534 C  
HETATM    3  H   UNL     1     -12.364  11.652  61.912  1.00  0.00     0.000 HD 
ENDROOT
BRANCH   2   4
HETATM    4  C   UNL     1     -11.604  12.222  65.025  1.00  0.00    -0.394 A  
HETATM    5  C   UNL     1     -12.020  13.039  66.083  1.00  0.00    -0.427 A  
HETATM    6  O   UNL     1     -12.722  14.193  65.871  1.00  0.00    -0.487 OA 
HETATM    7  C   UNL     1     -11.741  12.711  67.406  1.00  0.00    -0.432 A  
HETATM    8  C   UNL     1     -11.040  11.544  67.700  1.00  0.00    -0.324 A  
HETATM    9  H   UNL     1     -13.004  14.747  66.588  1.00  0.00     0.000 HD 
HETATM   10  C   UNL     1     -10.607  10.697  66.670  1.00  0.00    -0.276 A  
HETATM   11  C   UNL     1     -10.884  11.056  65.338  1.00  0.00    -0.168 A  
BRANCH  10  12
HETATM   12  C   UNL     1      -9.787   9.469  67.005  1.00  0.00    -0.190 C  
HETATM   13  O   UNL     1     -10.398   8.298  66.443  1.00  0.00    -0.440 OA 
HETATM   14  H   UNL     1      -9.884   7.528  66.653  1.00  0.00     0.000 HD 
BRANCH  12  15
HETATM   15  C   UNL     1      -8.352   9.616  66.458  1.00  0.00    -0.120 C  
BRANCH  15  16
HETATM   16  N   UNL     1      -7.353   9.202  67.458  1.00  0.00    -0.083 NA 
HETATM   17  H   UNL     1      -6.404   9.235  67.086  1.00  0.00     0.000 HD 
BRANCH  16  18
HETATM   18  C   UNL     1      -7.493  10.003  68.670  1.00  0.00    -0.083 C  
BRANCH  18  19
HETATM   19  C   UNL     1      -7.271   9.132  69.904  1.00  0.00    -0.062 C  
BRANCH  19  20
HETATM   20  C   UNL     1      -5.989   9.552  70.621  1.00  0.00    -0.066 C  
BRANCH  20  21
HETATM   21  C   UNL     1      -5.367   8.378  71.368  1.00  0.00    -0.033 C  
BRANCH  21  22
HETATM   22  C   UNL     1      -5.281   8.660  72.865  1.00  0.00    -0.054 C  
BRANCH  22  23
HETATM   23  C   UNL     1      -6.316   7.844  73.623  1.00  0.00    -0.090 C  
BRANCH  23  24
HETATM   24  O   UNL     1      -7.442   8.672  73.894  1.00  0.00    -0.371 OA 
BRANCH  24  25
HETATM   25  C   UNL     1      -8.578   8.236  73.151  1.00  0.00    -0.209 C  
BRANCH  25  26
HETATM   26  C   UNL     1      -9.337   7.185  73.944  1.00  0.00    -0.243 C  
BRANCH  26  27
HETATM   27  O   UNL     1     -10.690   7.151  73.488  1.00  0.00    -0.368 OA 
BRANCH  27  28
HETATM   28  C   UNL     1     -11.050   5.856  73.030  1.00  0.00    -0.254 C  
BRANCH  28  29
HETATM   29  C   UNL     1     -10.813   5.787  71.546  1.00  0.00    -0.316 A  
HETATM   30  C   UNL     1     -11.649   6.461  70.639  1.00  0.00    -0.347 A  
HETATM   31 CL   UNL     1     -13.038   7.356  71.155  1.00  0.00    -0.327 Cl 
HETATM   32  C   UNL     1     -11.393   6.435  69.262  1.00  0.00    -0.405 A  
HETATM   33  C   UNL     1     -10.312   5.715  68.763  1.00  0.00    -0.288 A  
HETATM   34  C   UNL     1      -9.504   4.997  69.638  1.00  0.00    -0.207 A  
HETATM   35  C   UNL     1      -9.758   5.022  71.015  1.00  0.00    -0.184 A  
HETATM   36 CL   UNL     1      -8.715   4.070  72.016  1.00  0.00    -0.116 Cl 
ENDBRANCH  28  29
ENDBRANCH  27  28
ENDBRANCH  26  27
ENDBRANCH  25  26
ENDBRANCH  24  25
ENDBRANCH  23  24
ENDBRANCH  22  23
ENDBRANCH  21  22
ENDBRANCH  20  21
ENDBRANCH  19  20
ENDBRANCH  18  19
ENDBRANCH  16  18
ENDBRANCH  15  16
ENDBRANCH  12  15
ENDBRANCH  10  12
ENDBRANCH   2   4
TORSDOF 16
ENDMDL
MODEL      277
REMARK 921   NORMALIZED FREE ENERGY PREDICTED BY IDOCK:   -4.26 KCAL/MOL
REMARK 922        TOTAL FREE ENERGY PREDICTED BY IDOCK:  -10.32 KCAL/MOL
REMARK 923 INTER-LIGAND FREE ENERGY PREDICTED BY IDOCK:   -8.81 KCAL/MOL
REMARK 924 INTRA-LIGAND FREE ENERGY PREDICTED BY IDOCK:   -1.51 KCAL/MOL
REMARK 927      BINDING AFFINITY PREDICTED BY RF-SCORE:    0.00 PKD
ROOT
HETATM    1  O   UNL     1     -12.974   7.140  70.676  1.00  0.00    -0.597 OA 
HETATM    2  C   UNL     1     -12.008   7.100  71.727  1.00  0.00    -0.313 C  
HETATM    3  H   UNL     1     -13.539   7.899  70.761  1.00  0.00     0.000 HD 
ENDROOT
BRANCH   2   4
HETATM    4  C   UNL     1     -11.111   5.896  71.591  1.00  0.00    -0.319 A  
HETATM    5  C   UNL     1     -10.813   5.035  72.653  1.00  0.00    -0.226 A  
HETATM    6  O   UNL     1     -11.382   5.187  73.887  1.00  0.00    -0.429 OA 
HETATM    7  C   UNL     1      -9.923   3.976  72.501  1.00  0.00    -0.222 A  
HETATM    8  C   UNL     1      -9.313   3.752  71.269  1.00  0.00    -0.215 A  
HETATM    9  H   UNL     1     -11.180   4.602  74.607  1.00  0.00     0.000 HD 
HETATM   10  C   UNL     1      -9.586   4.590  70.179  1.00  0.00    -0.264 A  
HETATM   11  C   UNL     1     -10.475   5.665  70.359  1.00  0.00    -0.355 A  
BRANCH  10  12
HETATM   12  C   UNL     1      -8.861   4.372  68.867  1.00  0.00    -0.098 C  
HETATM   13  O   UNL     1      -9.564   3.410  68.068  1.00  0.00    -0.182 OA 
HETATM   14  H   UNL     1      -9.109   3.274  67.245  1.00  0.00     0.000 HD 
BRANCH  12  15
HETATM   15  C   UNL     1      -8.743   5.702  68.092  1.00  0.00    -0.102 C  
BRANCH  15  16
HETATM   16  N   UNL     1      -7.365   6.218  68.122  1.00  0.00    -0.087 NA 
HETATM   17  H   UNL     1      -7.037   6.487  67.194  1.00  0.00     0.000 HD 
BRANCH  16  18
HETATM   18  C   UNL     1      -7.261   7.318  69.076  1.00  0.00    -0.089 C  
BRANCH  18  19
HETATM   19  C   UNL     1      -6.990   8.628  68.340  1.00  0.00    -0.066 C  
BRANCH  19  20
HETATM   20  C   UNL     1      -6.638   8.348  66.880  1.00  0.00    -0.058 C  
BRANCH  20  21
HETATM   21  C   UNL     1      -7.408   9.271  65.942  1.00  0.00    -0.094 C  
BRANCH  21  22
HETATM   22  C   UNL     1      -8.685   8.606  65.439  1.00  0.00    -0.208 C  
BRANCH  22  23
HETATM   23  C   UNL     1      -9.794   9.632  65.274  1.00  0.00    -0.199 C  
BRANCH  23  24
HETATM   24  O   UNL     1      -9.586  10.686  66.209  1.00  0.00    -0.174 OA 
BRANCH  24  25
HETATM   25  C   UNL     1     -10.783  10.962  66.932  1.00  0.00    -0.264 C  
BRANCH  25  26
HETATM   26  C   UNL     1     -11.224  12.392  66.668  1.00  0.00    -0.315 C  
BRANCH  26  27
HETATM   27  O   UNL     1     -11.987  12.853  67.783  1.00  0.00    -0.347 OA 
BRANCH  27  28
HETATM   28  C   UNL     1     -11.167  13.049  68.926  1.00  0.00    -0.278 C  
BRANCH  28  29
HETATM   29  C   UNL     1     -12.052  13.225  70.130  1.00  0.00    -0.403 A  
HETATM   30  C   UNL     1     -12.451  12.126  70.910  1.00  0.00    -0.279 A  
HETATM   31 CL   UNL     1     -12.014  10.500  70.508  1.00  0.00    -0.403 Cl 
HETATM   32  C   UNL     1     -13.233  12.301  72.060  1.00  0.00    -0.508 A  
HETATM   33  C   UNL     1     -13.650  13.573  72.437  1.00  0.00    -0.709 A  
HETATM   34  C   UNL     1     -13.311  14.668  71.650  1.00  0.00    -0.435 A  
HETATM   35  C   UNL     1     -12.530  14.496  70.500  1.00  0.00    -0.344 A  
HETATM   36 CL   UNL     1     -12.189  15.915  69.570  1.00  0.00    -0.225 Cl 
ENDBRANCH  28  29
ENDBRANCH  27  28
ENDBRANCH  26  27
ENDBRANCH  25  26
ENDBRANCH  24  25
ENDBRANCH  23  24
ENDBRANCH  22  23
ENDBRANCH  21  22
ENDBRANCH  20  21
ENDBRANCH  19  20
ENDBRANCH  18  19
ENDBRANCH  16  18
ENDBRANCH  15  16
ENDBRANCH  12  15
ENDBRANCH  10  12
ENDBRANCH   2   4
TORSDOF 16
ENDMDL
MODEL      278
REMARK 921   NORMALIZED FREE ENERGY PREDICTED BY IDOCK:   -4.24 KCAL/MOL
REMARK 922        TOTAL FREE ENERGY PREDICTED BY IDOCK:  -10.28 KCAL/MOL
REMARK 923 INTER-LIGAND FREE ENERGY PREDICTED BY IDOCK:   -8.61 KCAL/MOL
REMARK 924 INTRA-LIGAND FREE ENERGY PREDICTED BY IDOCK:   -1.67 KCAL/MOL
REMARK 927      BINDING AFFINITY PREDICTED BY RF-SCORE:    0.00 PKD
ROOT
HETATM    1  O   UNL     1     -11.045  16.970  69.453  1.00  0.00    -0.308 OA 
HETATM    2  C   UNL     1      -9.956  16.768  68.552  1.00  0.00    -0.271 C  
HETATM    3  H   UNL     1     -10.746  17.352  70.270  1.00  0.00     0.000 HD 
ENDROOT
BRANCH   2   4
HETATM    4  C   UNL     1     -10.432  16.162  67.257  1.00  0.00    -0.309 A  
HETATM    5  C   UNL     1     -10.320  16.806  66.019  1.00  0.00    -0.335 A  
HETATM    6  O   UNL     1      -9.695  18.015  65.889  1.00  0.00    -0.530 OA 
HETATM    7  C   UNL     1     -10.837  16.241  64.857  1.00  0.00    -0.315 A  
HETATM    8  C   UNL     1     -11.476  15.005  64.911  1.00  0.00    -0.399 A  
HETATM    9  H   UNL     1      -9.619  18.452  65.049  1.00  0.00     0.000 HD 
HETATM   10  C   UNL     1     -11.609  14.326  66.130  1.00  0.00    -0.374 A  
HETATM   11  C   UNL     1     -11.095  14.923  67.295  1.00  0.00    -0.336 A  
BRANCH  10  12
HETATM   12  C   UNL     1     -12.367  13.016  66.179  1.00  0.00    -0.265 C  
HETATM   13  O   UNL     1     -13.013  12.770  64.922  1.00  0.00    -0.805 OA 
HETATM   14  H   UNL     1     -13.488  11.948  64.953  1.00  0.00     0.000 HD 
BRANCH  12  15
HETATM   15  C   UNL     1     -11.407  11.853  66.505  1.00  0.00    -0.341 C  
BRANCH  15  16
HETATM   16  N   UNL     1     -10.530  11.546  65.362  1.00  0.00    -0.272 NA 
HETATM   17  H   UNL     1     -10.464  12.328  64.711  1.00  0.00     0.000 HD 
BRANCH  16  18
HETATM   18  C   UNL     1      -9.218  11.118  65.836  1.00  0.00    -0.206 C  
BRANCH  18  19
HETATM   19  C   UNL     1      -8.913  11.759  67.187  1.00  0.00    -0.177 C  
BRANCH  19  20
HETATM   20  C   UNL     1      -7.409  11.989  67.332  1.00  0.00    -0.150 C  
BRANCH  20  21
HETATM   21  C   UNL     1      -6.716  10.755  67.898  1.00  0.00    -0.064 C  
BRANCH  21  22
HETATM   22  C   UNL     1      -7.616  10.024  68.890  1.00  0.00    -0.086 C  
BRANCH  22  23
HETATM   23  C   UNL     1      -7.087   8.625  69.162  1.00  0.00    -0.063 C  
BRANCH  23  24
HETATM   24  O   UNL     1      -7.624   7.734  68.190  1.00  0.00    -0.110 OA 
BRANCH  24  25
HETATM   25  C   UNL     1      -7.939   6.475  68.779  1.00  0.00    -0.111 C  
BRANCH  25  26
HETATM   26  C   UNL     1      -8.271   6.666  70.250  1.00  0.00    -0.126 C  
BRANCH  26  27
HETATM   27  O   UNL     1      -9.371   5.820  70.588  1.00  0.00    -0.155 OA 
BRANCH  27  28
HETATM   28  C   UNL     1     -10.538   6.172  69.860  1.00  0.00    -0.265 C  
BRANCH  28  29
HETATM   29  C   UNL     1     -11.170   7.372  70.513  1.00  0.00    -0.296 A  
HETATM   30  C   UNL     1     -11.285   8.597  69.834  1.00  0.00    -0.041 A  
HETATM   31 CL   UNL     1     -10.654   8.832  68.239  1.00  0.00    -0.232 Cl 
HETATM   32  C   UNL     1     -11.921   9.696  70.427  1.00  0.00    -0.171 A  
HETATM   33  C   UNL     1     -12.431   9.598  71.717  1.00  0.00    -0.487 A  
HETATM   34  C   UNL     1     -12.280   8.412  72.427  1.00  0.00    -0.430 A  
HETATM   35  C   UNL     1     -11.645   7.312  71.836  1.00  0.00    -0.277 A  
HETATM   36 CL   UNL     1     -11.478   5.892  72.811  1.00  0.00    -0.303 Cl 
ENDBRANCH  28  29
ENDBRANCH  27  28
ENDBRANCH  26  27
ENDBRANCH  25  26
ENDBRANCH  24  25
ENDBRANCH  23  24
ENDBRANCH  22  23
ENDBRANCH  21  22
ENDBRANCH  20  21
ENDBRANCH  19  20
ENDBRANCH  18  19
ENDBRANCH  16  18
ENDBRANCH  15  16
ENDBRANCH  12  15
ENDBRANCH  10  12
ENDBRANCH   2   4
TORSDOF 16
ENDMDL
MODEL      279
REMARK 921   NORMALIZED FREE ENERGY PREDICTED BY IDOCK:   -4.24 KCAL/MOL
REMARK 922        TOTAL FREE ENERGY PREDICTED BY IDOCK:  -10.28 KCAL/MOL
REMARK 923 INTER-LIGAND FREE ENERGY PREDICTED BY IDOCK:   -8.76 KCAL/MOL
REMARK 924 INTRA-LIGAND FREE ENERGY PREDICTED BY IDOCK:   -1.52 KCAL/MOL
REMARK 927      BINDING AFFINITY PREDICTED BY RF-SCORE:    0.00 PKD
ROOT
HETATM    1  O   UNL     1     -13.919   8.714  71.572  1.00  0.00    -0.441 OA 
HETATM    2  C   UNL     1     -12.695   9.066  72.218  1.00  0.00    -0.387 C  
HETATM    3  H   UNL     1     -14.580   8.462  72.206  1.00  0.00     0.000 HD 
ENDROOT
BRANCH   2   4
HETATM    4  C   UNL     1     -11.648   9.465  71.211  1.00  0.00    -0.434 A  
HETATM    5  C   UNL     1     -11.945  10.121  70.010  1.00  0.00    -0.136 A  
HETATM    6  O   UNL     1     -13.216  10.515  69.699  1.00  0.00    -0.499 OA 
HETATM    7  C   UNL     1     -10.955  10.407  69.075  1.00  0.00    -0.282 A  
HETATM    8  C   UNL     1      -9.634  10.046  69.329  1.00  0.00    -0.227 A  
HETATM    9  H   UNL     1     -13.418  10.960  68.885  1.00  0.00     0.000 HD 
HETATM   10  C   UNL     1      -9.294   9.389  70.520  1.00  0.00    -0.319 A  
HETATM   11  C   UNL     1     -10.312   9.094  71.444  1.00  0.00    -0.409 A  
BRANCH  10  12
HETATM   12  C   UNL     1      -7.864   8.944  70.748  1.00  0.00    -0.119 C  
HETATM   13  O   UNL     1      -7.716   7.560  70.402  1.00  0.00    -0.088 OA 
HETATM   14  H   UNL     1      -6.819   7.280  70.544  1.00  0.00     0.000 HD 
BRANCH  12  15
HETATM   15  C   UNL     1      -6.896   9.796  69.901  1.00  0.00    -0.085 C  
BRANCH  15  16
HETATM   16  N   UNL     1      -6.600  11.081  70.556  1.00  0.00    -0.490 NA 
HETATM   17  H   UNL     1      -6.046  10.959  71.404  1.00  0.00     0.000 HD 
BRANCH  16  18
HETATM   18  C   UNL     1      -5.957  11.990  69.613  1.00  0.00    -0.120 C  
BRANCH  18  19
HETATM   19  C   UNL     1      -5.944  13.409  70.175  1.00  0.00    -0.139 C  
BRANCH  19  20
HETATM   20  C   UNL     1      -6.953  14.280  69.428  1.00  0.00    -0.106 C  
BRANCH  20  21
HETATM   21  C   UNL     1      -6.632  15.761  69.597  1.00  0.00    -0.182 C  
BRANCH  21  22
HETATM   22  C   UNL     1      -6.293  16.407  68.257  1.00  0.00    -0.129 C  
BRANCH  22  23
HETATM   23  C   UNL     1      -7.013  17.737  68.107  1.00  0.00    -0.212 C  
BRANCH  23  24
HETATM   24  O   UNL     1      -8.207  17.703  68.883  1.00  0.00    -0.250 OA 
BRANCH  24  25
HETATM   25  C   UNL     1      -9.265  18.381  68.211  1.00  0.00    -0.316 C  
BRANCH  25  26
HETATM   26  C   UNL     1      -9.356  17.892  66.775  1.00  0.00    -0.275 C  
BRANCH  26  27
HETATM   27  O   UNL     1     -10.071  16.657  66.753  1.00  0.00    -0.272 OA 
BRANCH  27  28
HETATM   28  C   UNL     1      -9.316  15.632  66.122  1.00  0.00    -0.347 C  
BRANCH  28  29
HETATM   29  C   UNL     1     -10.254  14.537  65.693  1.00  0.00    -0.379 A  
HETATM   30  C   UNL     1     -11.231  14.756  64.707  1.00  0.00    -0.385 A  
HETATM   31 CL   UNL     1     -11.470  16.304  63.971  1.00  0.00     0.029 Cl 
HETATM   32  C   UNL     1     -12.068  13.717  64.275  1.00  0.00    -0.481 A  
HETATM   33  C   UNL     1     -11.959  12.450  64.836  1.00  0.00    -0.458 A  
HETATM   34  C   UNL     1     -11.035  12.225  65.851  1.00  0.00    -0.338 A  
HETATM   35  C   UNL     1     -10.197  13.261  66.285  1.00  0.00    -0.296 A  
HETATM   36 CL   UNL     1      -9.104  12.891  67.574  1.00  0.00    -0.181 Cl 
ENDBRANCH  28  29
ENDBRANCH  27  28
ENDBRANCH  26  27
ENDBRANCH  25  26
ENDBRANCH  24  25
ENDBRANCH  23  24
ENDBRANCH  22  23
ENDBRANCH  21  22
ENDBRANCH  20  21
ENDBRANCH  19  20
ENDBRANCH  18  19
ENDBRANCH  16  18
ENDBRANCH  15  16
ENDBRANCH  12  15
ENDBRANCH  10  12
ENDBRANCH   2   4
TORSDOF 16
ENDMDL
MODEL      280
REMARK 921   NORMALIZED FREE ENERGY PREDICTED BY IDOCK:   -4.24 KCAL/MOL
REMARK 922        TOTAL FREE ENERGY PREDICTED BY IDOCK:  -10.27 KCAL/MOL
REMARK 923 INTER-LIGAND FREE ENERGY PREDICTED BY IDOCK:   -9.10 KCAL/MOL
REMARK 924 INTRA-LIGAND FREE ENERGY PREDICTED BY IDOCK:   -1.18 KCAL/MOL
REMARK 927      BINDING AFFINITY PREDICTED BY RF-SCORE:    0.00 PKD
ROOT
HETATM    1  O   UNL     1     -10.929  17.648  67.463  1.00  0.00    -0.273 OA 
HETATM    2  C   UNL     1     -10.329  17.329  66.207  1.00  0.00    -0.322 C  
HETATM    3  H   UNL     1     -10.801  18.564  67.679  1.00  0.00     0.000 HD 
ENDROOT
BRANCH   2   4
HETATM    4  C   UNL     1     -10.531  15.876  65.865  1.00  0.00    -0.373 A  
HETATM    5  C   UNL     1     -11.196  15.442  64.712  1.00  0.00    -0.395 A  
HETATM    6  O   UNL     1     -11.650  16.321  63.768  1.00  0.00    -1.539 OA 
HETATM    7  C   UNL     1     -11.425  14.091  64.470  1.00  0.00    -0.380 A  
HETATM    8  C   UNL     1     -10.981  13.137  65.382  1.00  0.00    -0.298 A  
HETATM    9  H   UNL     1     -12.102  16.027  62.985  1.00  0.00     0.000 HD 
HETATM   10  C   UNL     1     -10.309  13.529  66.548  1.00  0.00    -0.282 A  
HETATM   11  C   UNL     1     -10.104  14.900  66.783  1.00  0.00    -0.254 A  
BRANCH  10  12
HETATM   12  C   UNL     1      -9.894  12.482  67.561  1.00  0.00    -0.198 C  
HETATM   13  O   UNL     1      -9.264  13.106  68.688  1.00  0.00    -0.369 OA 
HETATM   14  H   UNL     1      -9.004  12.449  69.324  1.00  0.00     0.000 HD 
BRANCH  12  15
HETATM   15  C   UNL     1     -11.123  11.677  68.034  1.00  0.00    -0.242 C  
BRANCH  15  16
HETATM   16  N   UNL     1     -11.115  11.497  69.496  1.00  0.00    -0.407 NA 
HETATM   17  H   UNL     1     -11.072  12.389  69.990  1.00  0.00     0.000 HD 
BRANCH  16  18
HETATM   18  C   UNL     1     -12.264  10.700  69.910  1.00  0.00    -0.275 C  
BRANCH  18  19
HETATM   19  C   UNL     1     -12.179  10.389  71.402  1.00  0.00    -0.461 C  
BRANCH  19  20
HETATM   20  C   UNL     1     -11.463   9.057  71.622  1.00  0.00    -0.431 C  
BRANCH  20  21
HETATM   21  C   UNL     1     -12.430   7.989  72.119  1.00  0.00    -0.335 C  
BRANCH  21  22
HETATM   22  C   UNL     1     -12.645   6.906  71.066  1.00  0.00    -0.319 C  
BRANCH  22  23
HETATM   23  C   UNL     1     -11.315   6.441  70.497  1.00  0.00    -0.375 C  
BRANCH  23  24
HETATM   24  O   UNL     1     -10.540   5.874  71.548  1.00  0.00    -0.228 OA 
BRANCH  24  25
HETATM   25  C   UNL     1      -9.167   5.789  71.172  1.00  0.00    -0.153 C  
BRANCH  25  26
HETATM   26  C   UNL     1      -8.780   7.017  70.364  1.00  0.00    -0.147 C  
BRANCH  26  27
HETATM   27  O   UNL     1      -7.806   6.640  69.391  1.00  0.00    -0.108 OA 
BRANCH  27  28
HETATM   28  C   UNL     1      -8.301   5.625  68.529  1.00  0.00    -0.106 C  
BRANCH  28  29
HETATM   29  C   UNL     1      -7.854   5.926  67.124  1.00  0.00    -0.102 A  
HETATM   30  C   UNL     1      -8.517   6.882  66.335  1.00  0.00    -0.130 A  
HETATM   31 CL   UNL     1      -9.922   7.726  66.893  1.00  0.00    -0.306 Cl 
HETATM   32  C   UNL     1      -8.065   7.195  65.046  1.00  0.00    -0.119 A  
HETATM   33  C   UNL     1      -6.960   6.541  64.513  1.00  0.00    -0.051 A  
HETATM   34  C   UNL     1      -6.322   5.553  65.256  1.00  0.00    -0.038 A  
HETATM   35  C   UNL     1      -6.772   5.239  66.545  1.00  0.00    -0.057 A  
HETATM   36 CL   UNL     1      -5.932   3.974  67.375  1.00  0.00    -0.023 Cl 
ENDBRANCH  28  29
ENDBRANCH  27  28
ENDBRANCH  26  27
ENDBRANCH  25  26
ENDBRANCH  24  25
ENDBRANCH  23  24
ENDBRANCH  22  23
ENDBRANCH  21  22
ENDBRANCH  20  21
ENDBRANCH  19  20
ENDBRANCH  18  19
ENDBRANCH  16  18
ENDBRANCH  15  16
ENDBRANCH  12  15
ENDBRANCH  10  12
ENDBRANCH   2   4
TORSDOF 16
ENDMDL
MODEL      281
REMARK 921   NORMALIZED FREE ENERGY PREDICTED BY IDOCK:   -4.22 KCAL/MOL
REMARK 922        TOTAL FREE ENERGY PREDICTED BY IDOCK:  -10.24 KCAL/MOL
REMARK 923 INTER-LIGAND FREE ENERGY PREDICTED BY IDOCK:   -7.78 KCAL/MOL
REMARK 924 INTRA-LIGAND FREE ENERGY PREDICTED BY IDOCK:   -2.47 KCAL/MOL
REMARK 927      BINDING AFFINITY PREDICTED BY RF-SCORE:    0.00 PKD
ROOT
HETATM    1  O   UNL     1      -8.824   7.925  69.502  1.00  0.00    -0.140 OA 
HETATM    2  C   UNL     1      -7.720   8.206  68.640  1.00  0.00    -0.112 C  
HETATM    3  H   UNL     1      -8.639   7.180  70.061  1.00  0.00     0.000 HD 
ENDROOT
BRANCH   2   4
HETATM    4  C   UNL     1      -8.014   9.388  67.753  1.00  0.00    -0.096 A  
HETATM    5  C   UNL     1      -8.168   9.290  66.366  1.00  0.00    -0.111 A  
HETATM    6  O   UNL     1      -8.134   8.085  65.720  1.00  0.00    -0.107 OA 
HETATM    7  C   UNL     1      -8.367  10.418  65.575  1.00  0.00    -0.168 A  
HETATM    8  C   UNL     1      -8.425  11.678  66.165  1.00  0.00    -0.008 A  
HETATM    9  H   UNL     1      -8.238   8.018  64.778  1.00  0.00     0.000 HD 
HETATM   10  C   UNL     1      -8.277  11.820  67.552  1.00  0.00    -0.152 A  
HETATM   11  C   UNL     1      -8.059  10.670  68.330  1.00  0.00    -0.123 A  
BRANCH  10  12
HETATM   12  C   UNL     1      -8.274  13.204  68.166  1.00  0.00    -0.160 C  
HETATM   13  O   UNL     1      -7.610  13.180  69.437  1.00  0.00    -0.302 OA 
HETATM   14  H   UNL     1      -7.608  14.049  69.823  1.00  0.00     0.000 HD 
BRANCH  12  15
HETATM   15  C   UNL     1      -7.565  14.206  67.230  1.00  0.00    -0.080 C  
BRANCH  15  16
HETATM   16  N   UNL     1      -6.166  14.421  67.638  1.00  0.00    -0.308 NA 
HETATM   17  H   UNL     1      -5.511  13.922  67.036  1.00  0.00     0.000 HD 
BRANCH  16  18
HETATM   18  C   UNL     1      -5.874  15.849  67.694  1.00  0.00    -0.146 C  
BRANCH  18  19
HETATM   19  C   UNL     1      -6.827  16.617  66.783  1.00  0.00    -0.252 C  
BRANCH  19  20
HETATM   20  C   UNL     1      -6.174  17.917  66.314  1.00  0.00    -0.259 C  
BRANCH  20  21
HETATM   21  C   UNL     1      -7.159  18.776  65.530  1.00  0.00    -0.148 C  
BRANCH  21  22
HETATM   22  C   UNL     1      -7.466  20.076  66.267  1.00  0.00    -0.323 C  
BRANCH  22  23
HETATM   23  C   UNL     1      -8.858  20.030  66.877  1.00  0.00    -0.347 C  
BRANCH  23  24
HETATM   24  O   UNL     1      -8.757  19.547  68.212  1.00  0.00    -0.323 OA 
BRANCH  24  25
HETATM   25  C   UNL     1      -9.967  18.903  68.607  1.00  0.00    -0.412 C  
BRANCH  25  26
HETATM   26  C   UNL     1     -10.211  17.688  67.728  1.00  0.00    -0.354 C  
BRANCH  26  27
HETATM   27  O   UNL     1     -10.417  16.548  68.563  1.00  0.00    -0.266 OA 
BRANCH  27  28
HETATM   28  C   UNL     1     -11.752  16.072  68.470  1.00  0.00    -0.241 C  
BRANCH  28  29
HETATM   29  C   UNL     1     -11.719  14.579  68.290  1.00  0.00    -0.368 A  
HETATM   30  C   UNL     1     -11.725  13.709  69.395  1.00  0.00    -0.324 A  
HETATM   31 CL   UNL     1     -11.701  14.288  71.026  1.00  0.00    -0.285 Cl 
HETATM   32  C   UNL     1     -11.747  12.319  69.221  1.00  0.00    -0.388 A  
HETATM   33  C   UNL     1     -11.739  11.772  67.942  1.00  0.00    -0.347 A  
HETATM   34  C   UNL     1     -11.680  12.614  66.836  1.00  0.00    -0.453 A  
HETATM   35  C   UNL     1     -11.658  14.004  67.008  1.00  0.00    -0.371 A  
HETATM   36 CL   UNL     1     -11.551  14.964  65.571  1.00  0.00    -0.308 Cl 
ENDBRANCH  28  29
ENDBRANCH  27  28
ENDBRANCH  26  27
ENDBRANCH  25  26
ENDBRANCH  24  25
ENDBRANCH  23  24
ENDBRANCH  22  23
ENDBRANCH  21  22
ENDBRANCH  20  21
ENDBRANCH  19  20
ENDBRANCH  18  19
ENDBRANCH  16  18
ENDBRANCH  15  16
ENDBRANCH  12  15
ENDBRANCH  10  12
ENDBRANCH   2   4
TORSDOF 16
ENDMDL
MODEL      282
REMARK 921   NORMALIZED FREE ENERGY PREDICTED BY IDOCK:   -4.20 KCAL/MOL
REMARK 922        TOTAL FREE ENERGY PREDICTED BY IDOCK:  -10.20 KCAL/MOL
REMARK 923 INTER-LIGAND FREE ENERGY PREDICTED BY IDOCK:   -8.22 KCAL/MOL
REMARK 924 INTRA-LIGAND FREE ENERGY PREDICTED BY IDOCK:   -1.98 KCAL/MOL
REMARK 927      BINDING AFFINITY PREDICTED BY RF-SCORE:    0.00 PKD
ROOT
HETATM    1  O   UNL     1     -11.688   7.219  72.856  1.00  0.00    -0.543 OA 
HETATM    2  C   UNL     1     -11.159   8.248  72.018  1.00  0.00    -0.311 C  
HETATM    3  H   UNL     1     -12.437   7.532  73.349  1.00  0.00     0.000 HD 
ENDROOT
BRANCH   2   4
HETATM    4  C   UNL     1      -9.971   7.751  71.236  1.00  0.00    -0.199 A  
HETATM    5  C   UNL     1      -9.021   8.600  70.657  1.00  0.00    -0.171 A  
HETATM    6  O   UNL     1      -9.068   9.956  70.825  1.00  0.00    -0.340 OA 
HETATM    7  C   UNL     1      -7.978   8.102  69.881  1.00  0.00    -0.109 A  
HETATM    8  C   UNL     1      -7.860   6.730  69.676  1.00  0.00    -0.115 A  
HETATM    9  H   UNL     1      -8.424  10.533  70.433  1.00  0.00     0.000 HD 
HETATM   10  C   UNL     1      -8.789   5.844  70.240  1.00  0.00    -0.145 A  
HETATM   11  C   UNL     1      -9.846   6.370  71.004  1.00  0.00    -0.200 A  
BRANCH  10  12
HETATM   12  C   UNL     1      -8.683   4.362  69.948  1.00  0.00    -0.073 C  
HETATM   13  O   UNL     1      -9.936   3.715  70.211  1.00  0.00    -0.102 OA 
HETATM   14  H   UNL     1      -9.870   2.785  70.028  1.00  0.00     0.000 HD 
BRANCH  12  15
HETATM   15  C   UNL     1      -8.280   4.132  68.476  1.00  0.00    -0.083 C  
BRANCH  15  16
HETATM   16  N   UNL     1      -9.397   4.428  67.563  1.00  0.00    -0.144 NA 
HETATM   17  H   UNL     1     -10.103   5.019  68.002  1.00  0.00     0.000 HD 
BRANCH  16  18
HETATM   18  C   UNL     1      -8.892   5.011  66.324  1.00  0.00    -0.118 C  
BRANCH  18  19
HETATM   19  C   UNL     1      -9.441   6.424  66.147  1.00  0.00    -0.079 C  
BRANCH  19  20
HETATM   20  C   UNL     1     -10.413   6.758  67.278  1.00  0.00    -0.352 C  
BRANCH  20  21
HETATM   21  C   UNL     1     -10.598   8.264  67.418  1.00  0.00    -0.324 C  
BRANCH  21  22
HETATM   22  C   UNL     1      -9.961   9.009  66.249  1.00  0.00    -0.352 C  
BRANCH  22  23
HETATM   23  C   UNL     1     -10.259  10.497  66.336  1.00  0.00    -0.237 C  
BRANCH  23  24
HETATM   24  O   UNL     1      -9.080  11.221  65.997  1.00  0.00    -0.200 OA 
BRANCH  24  25
HETATM   25  C   UNL     1      -8.927  12.359  66.842  1.00  0.00    -0.212 C  
BRANCH  25  26
HETATM   26  C   UNL     1      -9.182  11.962  68.287  1.00  0.00    -0.187 C  
BRANCH  26  27
HETATM   27  O   UNL     1      -9.902  13.012  68.933  1.00  0.00    -0.034 OA 
BRANCH  27  28
HETATM   28  C   UNL     1     -11.293  12.933  68.654  1.00  0.00    -0.289 C  
BRANCH  28  29
HETATM   29  C   UNL     1     -12.048  13.572  69.788  1.00  0.00    -0.381 A  
HETATM   30  C   UNL     1     -12.284  14.958  69.820  1.00  0.00    -0.287 A  
HETATM   31 CL   UNL     1     -11.670  16.027  68.605  1.00  0.00    -0.350 Cl 
HETATM   32  C   UNL     1     -13.033  15.541  70.851  1.00  0.00    -0.526 A  
HETATM   33  C   UNL     1     -13.538  14.754  71.881  1.00  0.00    -0.492 A  
HETATM   34  C   UNL     1     -13.271  13.390  71.897  1.00  0.00    -0.522 A  
HETATM   35  C   UNL     1     -12.523  12.805  70.867  1.00  0.00    -0.283 A  
HETATM   36 CL   UNL     1     -12.219  11.106  70.994  1.00  0.00    -0.458 Cl 
ENDBRANCH  28  29
ENDBRANCH  27  28
ENDBRANCH  26  27
ENDBRANCH  25  26
ENDBRANCH  24  25
ENDBRANCH  23  24
ENDBRANCH  22  23
ENDBRANCH  21  22
ENDBRANCH  20  21
ENDBRANCH  19  20
ENDBRANCH  18  19
ENDBRANCH  16  18
ENDBRANCH  15  16
ENDBRANCH  12  15
ENDBRANCH  10  12
ENDBRANCH   2   4
TORSDOF 16
ENDMDL
MODEL      283
REMARK 921   NORMALIZED FREE ENERGY PREDICTED BY IDOCK:   -4.20 KCAL/MOL
REMARK 922        TOTAL FREE ENERGY PREDICTED BY IDOCK:  -10.19 KCAL/MOL
REMARK 923 INTER-LIGAND FREE ENERGY PREDICTED BY IDOCK:   -8.21 KCAL/MOL
REMARK 924 INTRA-LIGAND FREE ENERGY PREDICTED BY IDOCK:   -1.98 KCAL/MOL
REMARK 927      BINDING AFFINITY PREDICTED BY RF-SCORE:    0.00 PKD
ROOT
HETATM    1  O   UNL     1      -9.686   6.316  65.849  1.00  0.00    -0.386 OA 
HETATM    2  C   UNL     1      -9.935   5.473  66.975  1.00  0.00    -0.174 C  
HETATM    3  H   UNL     1      -9.534   5.801  65.065  1.00  0.00     0.000 HD 
ENDROOT
BRANCH   2   4
HETATM    4  C   UNL     1     -10.177   6.290  68.218  1.00  0.00    -0.198 A  
HETATM    5  C   UNL     1     -10.320   5.728  69.492  1.00  0.00    -0.263 A  
HETATM    6  O   UNL     1     -10.174   4.386  69.709  1.00  0.00    -0.151 OA 
HETATM    7  C   UNL     1     -10.614   6.513  70.603  1.00  0.00    -0.280 A  
HETATM    8  C   UNL     1     -10.764   7.890  70.461  1.00  0.00    -0.233 A  
HETATM    9  H   UNL     1     -10.271   4.004  70.573  1.00  0.00     0.000 HD 
HETATM   10  C   UNL     1     -10.627   8.493  69.202  1.00  0.00    -0.188 A  
HETATM   11  C   UNL     1     -10.348   7.679  68.090  1.00  0.00    -0.250 A  
BRANCH  10  12
HETATM   12  C   UNL     1     -10.862   9.982  69.056  1.00  0.00    -0.222 C  
HETATM   13  O   UNL     1     -10.883  10.609  70.346  1.00  0.00    -0.447 OA 
HETATM   14  H   UNL     1     -11.030  11.543  70.254  1.00  0.00     0.000 HD 
BRANCH  12  15
HETATM   15  C   UNL     1      -9.754  10.617  68.189  1.00  0.00    -0.156 C  
BRANCH  15  16
HETATM   16  N   UNL     1      -8.762  11.319  69.019  1.00  0.00    -0.369 NA 
HETATM   17  H   UNL     1      -8.409  10.730  69.774  1.00  0.00     0.000 HD 
BRANCH  16  18
HETATM   18  C   UNL     1      -7.684  11.836  68.183  1.00  0.00    -0.124 C  
BRANCH  18  19
HETATM   19  C   UNL     1      -8.117  13.137  67.512  1.00  0.00    -0.181 C  
BRANCH  19  20
HETATM   20  C   UNL     1      -7.577  14.336  68.291  1.00  0.00    -0.130 C  
BRANCH  20  21
HETATM   21  C   UNL     1      -6.110  14.588  67.965  1.00  0.00    -0.161 C  
BRANCH  21  22
HETATM   22  C   UNL     1      -5.565  15.774  68.756  1.00  0.00    -0.100 C  
BRANCH  22  23
HETATM   23  C   UNL     1      -6.702  16.646  69.264  1.00  0.00    -0.221 C  
BRANCH  23  24
HETATM   24  O   UNL     1      -6.660  17.897  68.585  1.00  0.00    -0.203 OA 
BRANCH  24  25
HETATM   25  C   UNL     1      -7.968  18.298  68.186  1.00  0.00    -0.284 C  
BRANCH  25  26
HETATM   26  C   UNL     1      -8.157  18.031  66.702  1.00  0.00    -0.260 C  
BRANCH  26  27
HETATM   27  O   UNL     1      -8.957  16.859  66.543  1.00  0.00    -0.239 OA 
BRANCH  27  28
HETATM   28  C   UNL     1     -10.182  16.969  67.253  1.00  0.00    -0.310 C  
BRANCH  28  29
HETATM   29  C   UNL     1     -10.891  15.643  67.199  1.00  0.00    -0.297 A  
HETATM   30  C   UNL     1     -11.372  15.120  65.986  1.00  0.00    -0.221 A  
HETATM   31 CL   UNL     1     -11.245  15.985  64.492  1.00  0.00    -0.420 Cl 
HETATM   32  C   UNL     1     -11.985  13.861  65.934  1.00  0.00    -0.429 A  
HETATM   33  C   UNL     1     -12.151  13.113  67.095  1.00  0.00    -0.343 A  
HETATM   34  C   UNL     1     -11.731  13.635  68.313  1.00  0.00    -0.398 A  
HETATM   35  C   UNL     1     -11.118  14.894  68.368  1.00  0.00    -0.273 A  
HETATM   36 CL   UNL     1     -10.660  15.469  69.935  1.00  0.00    -0.300 Cl 
ENDBRANCH  28  29
ENDBRANCH  27  28
ENDBRANCH  26  27
ENDBRANCH  25  26
ENDBRANCH  24  25
ENDBRANCH  23  24
ENDBRANCH  22  23
ENDBRANCH  21  22
ENDBRANCH  20  21
ENDBRANCH  19  20
ENDBRANCH  18  19
ENDBRANCH  16  18
ENDBRANCH  15  16
ENDBRANCH  12  15
ENDBRANCH  10  12
ENDBRANCH   2   4
TORSDOF 16
ENDMDL
MODEL      284
REMARK 921   NORMALIZED FREE ENERGY PREDICTED BY IDOCK:   -4.18 KCAL/MOL
REMARK 922        TOTAL FREE ENERGY PREDICTED BY IDOCK:  -10.16 KCAL/MOL
REMARK 923 INTER-LIGAND FREE ENERGY PREDICTED BY IDOCK:   -9.03 KCAL/MOL
REMARK 924 INTRA-LIGAND FREE ENERGY PREDICTED BY IDOCK:   -1.13 KCAL/MOL
REMARK 927      BINDING AFFINITY PREDICTED BY RF-SCORE:    0.00 PKD
ROOT
HETATM    1  O   UNL     1     -14.109  15.005  73.116  1.00  0.00    -0.440 OA 
HETATM    2  C   UNL     1     -13.479  13.916  72.440  1.00  0.00    -0.560 C  
HETATM    3  H   UNL     1     -14.648  14.696  73.834  1.00  0.00     0.000 HD 
ENDROOT
BRANCH   2   4
HETATM    4  C   UNL     1     -12.625  14.408  71.301  1.00  0.00    -0.421 A  
HETATM    5  C   UNL     1     -12.004  15.662  71.291  1.00  0.00    -0.415 A  
HETATM    6  O   UNL     1     -12.073  16.510  72.361  1.00  0.00    -0.559 OA 
HETATM    7  C   UNL     1     -11.282  16.106  70.187  1.00  0.00    -0.374 A  
HETATM    8  C   UNL     1     -11.159  15.292  69.064  1.00  0.00    -0.263 A  
HETATM    9  H   UNL     1     -11.652  17.361  72.355  1.00  0.00     0.000 HD 
HETATM   10  C   UNL     1     -11.763  14.027  69.034  1.00  0.00    -0.368 A  
HETATM   11  C   UNL     1     -12.504  13.605  70.153  1.00  0.00    -0.305 A  
BRANCH  10  12
HETATM   12  C   UNL     1     -11.676  13.185  67.779  1.00  0.00    -0.358 C  
HETATM   13  O   UNL     1     -12.392  11.955  67.957  1.00  0.00    -0.363 OA 
HETATM   14  H   UNL     1     -12.338  11.427  67.169  1.00  0.00     0.000 HD 
BRANCH  12  15
HETATM   15  C   UNL     1     -12.260  13.954  66.575  1.00  0.00    -0.442 C  
BRANCH  15  16
HETATM   16  N   UNL     1     -11.558  13.608  65.327  1.00  0.00    -0.313 NA 
HETATM   17  H   UNL     1     -10.741  13.023  65.498  1.00  0.00     0.000 HD 
BRANCH  16  18
HETATM   18  C   UNL     1     -12.484  12.989  64.385  1.00  0.00    -0.337 C  
BRANCH  18  19
HETATM   19  C   UNL     1     -11.755  11.950  63.537  1.00  0.00    -0.550 C  
BRANCH  19  20
HETATM   20  C   UNL     1     -10.806  11.130  64.410  1.00  0.00    -0.340 C  
BRANCH  20  21
HETATM   21  C   UNL     1      -9.752  10.425  63.564  1.00  0.00    -0.333 C  
BRANCH  21  22
HETATM   22  C   UNL     1      -8.557  10.001  64.412  1.00  0.00    -0.199 C  
BRANCH  22  23
HETATM   23  C   UNL     1      -8.647  10.605  65.804  1.00  0.00    -0.181 C  
BRANCH  23  24
HETATM   24  O   UNL     1      -7.584  10.089  66.598  1.00  0.00    -0.101 OA 
BRANCH  24  25
HETATM   25  C   UNL     1      -7.277   8.749  66.219  1.00  0.00    -0.086 C  
BRANCH  25  26
HETATM   26  C   UNL     1      -6.746   7.985  67.420  1.00  0.00    -0.069 C  
BRANCH  26  27
HETATM   27  O   UNL     1      -7.303   6.670  67.414  1.00  0.00    -0.089 OA 
BRANCH  27  28
HETATM   28  C   UNL     1      -7.098   6.014  68.656  1.00  0.00    -0.082 C  
BRANCH  28  29
HETATM   29  C   UNL     1      -8.343   6.158  69.489  1.00  0.00    -0.120 A  
HETATM   30  C   UNL     1      -9.554   5.557  69.102  1.00  0.00    -0.143 A  
HETATM   31 CL   UNL     1      -9.716   4.675  67.622  1.00  0.00    -0.205 Cl 
HETATM   32  C   UNL     1     -10.697   5.651  69.907  1.00  0.00    -0.399 A  
HETATM   33  C   UNL     1     -10.658   6.365  71.100  1.00  0.00    -0.282 A  
HETATM   34  C   UNL     1      -9.485   7.012  71.474  1.00  0.00    -0.155 A  
HETATM   35  C   UNL     1      -8.341   6.920  70.671  1.00  0.00    -0.128 A  
HETATM   36 CL   UNL     1      -6.942   7.786  71.208  1.00  0.00    -0.049 Cl 
ENDBRANCH  28  29
ENDBRANCH  27  28
ENDBRANCH  26  27
ENDBRANCH  25  26
ENDBRANCH  24  25
ENDBRANCH  23  24
ENDBRANCH  22  23
ENDBRANCH  21  22
ENDBRANCH  20  21
ENDBRANCH  19  20
ENDBRANCH  18  19
ENDBRANCH  16  18
ENDBRANCH  15  16
ENDBRANCH  12  15
ENDBRANCH  10  12
ENDBRANCH   2   4
TORSDOF 16
ENDMDL
MODEL      285
REMARK 921   NORMALIZED FREE ENERGY PREDICTED BY IDOCK:   -4.18 KCAL/MOL
REMARK 922        TOTAL FREE ENERGY PREDICTED BY IDOCK:  -10.16 KCAL/MOL
REMARK 923 INTER-LIGAND FREE ENERGY PREDICTED BY IDOCK:   -8.87 KCAL/MOL
REMARK 924 INTRA-LIGAND FREE ENERGY PREDICTED BY IDOCK:   -1.29 KCAL/MOL
REMARK 927      BINDING AFFINITY PREDICTED BY RF-SCORE:    0.00 PKD
ROOT
HETATM    1  O   UNL     1      -8.942  10.226  63.535  1.00  0.00    -0.196 OA 
HETATM    2  C   UNL     1     -10.087  10.474  64.352  1.00  0.00    -0.325 C  
HETATM    3  H   UNL     1      -9.150   9.621  62.832  1.00  0.00     0.000 HD 
ENDROOT
BRANCH   2   4
HETATM    4  C   UNL     1      -9.757  11.433  65.466  1.00  0.00    -0.263 A  
HETATM    5  C   UNL     1      -8.734  11.212  66.395  1.00  0.00    -0.177 A  
HETATM    6  O   UNL     1      -7.904  10.129  66.309  1.00  0.00    -0.106 OA 
HETATM    7  C   UNL     1      -8.510  12.089  67.452  1.00  0.00    -0.170 A  
HETATM    8  C   UNL     1      -9.309  13.221  67.596  1.00  0.00    -0.212 A  
HETATM    9  H   UNL     1      -7.210   9.978  66.939  1.00  0.00     0.000 HD 
HETATM   10  C   UNL     1     -10.343  13.481  66.687  1.00  0.00    -0.271 A  
HETATM   11  C   UNL     1     -10.564  12.572  65.636  1.00  0.00    -0.298 A  
BRANCH  10  12
HETATM   12  C   UNL     1     -11.244  14.679  66.899  1.00  0.00    -0.343 C  
HETATM   13  O   UNL     1     -12.611  14.320  66.656  1.00  0.00    -0.555 OA 
HETATM   14  H   UNL     1     -13.177  15.072  66.790  1.00  0.00     0.000 HD 
BRANCH  12  15
HETATM   15  C   UNL     1     -11.097  15.212  68.340  1.00  0.00    -0.282 C  
BRANCH  15  16
HETATM   16  N   UNL     1     -12.306  14.941  69.137  1.00  0.00    -0.578 NA 
HETATM   17  H   UNL     1     -12.538  13.948  69.153  1.00  0.00     0.000 HD 
BRANCH  16  18
HETATM   18  C   UNL     1     -12.153  15.487  70.482  1.00  0.00    -0.386 C  
BRANCH  18  19
HETATM   19  C   UNL     1     -12.315  14.379  71.520  1.00  0.00    -0.427 C  
BRANCH  19  20
HETATM   20  C   UNL     1     -12.443  13.023  70.826  1.00  0.00    -0.384 C  
BRANCH  20  21
HETATM   21  C   UNL     1     -13.182  12.023  71.707  1.00  0.00    -0.421 C  
BRANCH  21  22
HETATM   22  C   UNL     1     -12.909  10.589  71.262  1.00  0.00    -0.532 C  
BRANCH  22  23
HETATM   23  C   UNL     1     -12.966   9.640  72.449  1.00  0.00    -0.276 C  
BRANCH  23  24
HETATM   24  O   UNL     1     -12.954   8.301  71.965  1.00  0.00    -0.326 OA 
BRANCH  24  25
HETATM   25  C   UNL     1     -11.837   8.085  71.106  1.00  0.00    -0.284 C  
BRANCH  25  26
HETATM   26  C   UNL     1     -11.694   6.600  70.816  1.00  0.00    -0.388 C  
BRANCH  26  27
HETATM   27  O   UNL     1     -11.194   6.436  69.488  1.00  0.00    -0.362 OA 
BRANCH  27  28
HETATM   28  C   UNL     1     -10.187   5.437  69.434  1.00  0.00    -0.264 C  
BRANCH  28  29
HETATM   29  C   UNL     1      -9.103   5.790  70.416  1.00  0.00    -0.160 A  
HETATM   30  C   UNL     1      -8.210   6.848  70.169  1.00  0.00    -0.133 A  
HETATM   31 CL   UNL     1      -8.249   7.767  68.703  1.00  0.00    -0.127 Cl 
HETATM   32  C   UNL     1      -7.235   7.205  71.111  1.00  0.00    -0.074 A  
HETATM   33  C   UNL     1      -7.119   6.499  72.303  1.00  0.00    -0.077 A  
HETATM   34  C   UNL     1      -7.958   5.415  72.543  1.00  0.00    -0.103 A  
HETATM   35  C   UNL     1      -8.933   5.056  71.604  1.00  0.00    -0.133 A  
HETATM   36 CL   UNL     1      -9.905   3.674  71.981  1.00  0.00    -0.237 Cl 
ENDBRANCH  28  29
ENDBRANCH  27  28
ENDBRANCH  26  27
ENDBRANCH  25  26
ENDBRANCH  24  25
ENDBRANCH  23  24
ENDBRANCH  22  23
ENDBRANCH  21  22
ENDBRANCH  20  21
ENDBRANCH  19  20
ENDBRANCH  18  19
ENDBRANCH  16  18
ENDBRANCH  15  16
ENDBRANCH  12  15
ENDBRANCH  10  12
ENDBRANCH   2   4
TORSDOF 16
ENDMDL
MODEL      286
REMARK 921   NORMALIZED FREE ENERGY PREDICTED BY IDOCK:   -4.18 KCAL/MOL
REMARK 922        TOTAL FREE ENERGY PREDICTED BY IDOCK:  -10.16 KCAL/MOL
REMARK 923 INTER-LIGAND FREE ENERGY PREDICTED BY IDOCK:   -9.35 KCAL/MOL
REMARK 924 INTRA-LIGAND FREE ENERGY PREDICTED BY IDOCK:   -0.81 KCAL/MOL
REMARK 927      BINDING AFFINITY PREDICTED BY RF-SCORE:    0.00 PKD
ROOT
HETATM    1  O   UNL     1      -8.124   3.485  71.281  1.00  0.00    -0.059 OA 
HETATM    2  C   UNL     1      -9.169   3.841  72.188  1.00  0.00    -0.119 C  
HETATM    3  H   UNL     1      -7.562   2.816  71.653  1.00  0.00     0.000 HD 
ENDROOT
BRANCH   2   4
HETATM    4  C   UNL     1     -10.060   4.901  71.597  1.00  0.00    -0.266 A  
HETATM    5  C   UNL     1     -11.152   5.454  72.276  1.00  0.00    -0.196 A  
HETATM    6  O   UNL     1     -11.445   5.117  73.568  1.00  0.00    -0.473 OA 
HETATM    7  C   UNL     1     -11.993   6.380  71.665  1.00  0.00    -0.347 A  
HETATM    8  C   UNL     1     -11.750   6.781  70.354  1.00  0.00    -0.418 A  
HETATM    9  H   UNL     1     -12.186   5.492  74.028  1.00  0.00     0.000 HD 
HETATM   10  C   UNL     1     -10.666   6.253  69.639  1.00  0.00    -0.367 A  
HETATM   11  C   UNL     1      -9.839   5.305  70.268  1.00  0.00    -0.284 A  
BRANCH  10  12
HETATM   12  C   UNL     1     -10.459   6.648  68.192  1.00  0.00    -0.214 C  
HETATM   13  O   UNL     1     -11.645   6.382  67.431  1.00  0.00    -0.678 OA 
HETATM   14  H   UNL     1     -11.515   6.631  66.523  1.00  0.00     0.000 HD 
BRANCH  12  15
HETATM   15  C   UNL     1     -10.104   8.147  68.091  1.00  0.00    -0.198 C  
BRANCH  15  16
HETATM   16  N   UNL     1      -8.963   8.487  68.959  1.00  0.00    -0.145 NA 
HETATM   17  H   UNL     1      -8.120   8.686  68.420  1.00  0.00     0.000 HD 
BRANCH  16  18
HETATM   18  C   UNL     1      -9.318   9.591  69.845  1.00  0.00    -0.223 C  
BRANCH  18  19
HETATM   19  C   UNL     1      -9.841  10.771  69.030  1.00  0.00    -0.208 C  
BRANCH  19  20
HETATM   20  C   UNL     1     -11.192  11.230  69.579  1.00  0.00    -0.337 C  
BRANCH  20  21
HETATM   21  C   UNL     1     -11.803  12.315  68.699  1.00  0.00    -0.354 C  
BRANCH  21  22
HETATM   22  C   UNL     1     -11.927  13.634  69.455  1.00  0.00    -0.394 C  
BRANCH  22  23
HETATM   23  C   UNL     1     -10.762  14.553  69.124  1.00  0.00    -0.252 C  
BRANCH  23  24
HETATM   24  O   UNL     1     -10.133  14.085  67.935  1.00  0.00    -0.228 OA 
BRANCH  24  25
HETATM   25  C   UNL     1      -8.714  14.137  68.063  1.00  0.00    -0.177 C  
BRANCH  25  26
HETATM   26  C   UNL     1      -8.306  15.439  68.731  1.00  0.00    -0.182 C  
BRANCH  26  27
HETATM   27  O   UNL     1      -7.179  15.978  68.040  1.00  0.00    -0.122 OA 
BRANCH  27  28
HETATM   28  C   UNL     1      -7.576  16.685  66.874  1.00  0.00    -0.227 C  
BRANCH  28  29
HETATM   29  C   UNL     1      -8.508  17.795  67.275  1.00  0.00    -0.239 A  
HETATM   30  C   UNL     1      -8.132  18.754  68.232  1.00  0.00    -0.324 A  
HETATM   31 CL   UNL     1      -6.612  18.689  69.058  1.00  0.00    -0.274 Cl 
HETATM   32  C   UNL     1      -8.984  19.816  68.565  1.00  0.00    -0.291 A  
HETATM   33  C   UNL     1     -10.235  19.925  67.967  1.00  0.00    -0.572 A  
HETATM   34  C   UNL     1     -10.648  18.957  67.058  1.00  0.00    -0.510 A  
HETATM   35  C   UNL     1      -9.798  17.895  66.723  1.00  0.00    -0.333 A  
HETATM   36 CL   UNL     1     -10.416  16.725  65.607  1.00  0.00    -0.338 Cl 
ENDBRANCH  28  29
ENDBRANCH  27  28
ENDBRANCH  26  27
ENDBRANCH  25  26
ENDBRANCH  24  25
ENDBRANCH  23  24
ENDBRANCH  22  23
ENDBRANCH  21  22
ENDBRANCH  20  21
ENDBRANCH  19  20
ENDBRANCH  18  19
ENDBRANCH  16  18
ENDBRANCH  15  16
ENDBRANCH  12  15
ENDBRANCH  10  12
ENDBRANCH   2   4
TORSDOF 16
ENDMDL
MODEL      287
REMARK 921   NORMALIZED FREE ENERGY PREDICTED BY IDOCK:   -4.17 KCAL/MOL
REMARK 922        TOTAL FREE ENERGY PREDICTED BY IDOCK:  -10.14 KCAL/MOL
REMARK 923 INTER-LIGAND FREE ENERGY PREDICTED BY IDOCK:   -8.71 KCAL/MOL
REMARK 924 INTRA-LIGAND FREE ENERGY PREDICTED BY IDOCK:   -1.43 KCAL/MOL
REMARK 927      BINDING AFFINITY PREDICTED BY RF-SCORE:    0.00 PKD
ROOT
HETATM    1  O   UNL     1     -10.766  16.199  69.632  1.00  0.00    -0.277 OA 
HETATM    2  C   UNL     1     -11.721  15.912  68.610  1.00  0.00    -0.322 C  
HETATM    3  H   UNL     1     -10.746  17.128  69.830  1.00  0.00     0.000 HD 
ENDROOT
BRANCH   2   4
HETATM    4  C   UNL     1     -11.752  14.439  68.297  1.00  0.00    -0.376 A  
HETATM    5  C   UNL     1     -11.574  13.443  69.265  1.00  0.00    -0.310 A  
HETATM    6  O   UNL     1     -11.430  13.743  70.591  1.00  0.00    -0.512 OA 
HETATM    7  C   UNL     1     -11.538  12.095  68.921  1.00  0.00    -0.377 A  
HETATM    8  C   UNL     1     -11.690  11.713  67.590  1.00  0.00    -0.300 A  
HETATM    9  H   UNL     1     -11.309  13.067  71.247  1.00  0.00     0.000 HD 
HETATM   10  C   UNL     1     -11.872  12.679  66.590  1.00  0.00    -0.449 A  
HETATM   11  C   UNL     1     -11.887  14.037  66.957  1.00  0.00    -0.458 A  
BRANCH  10  12
HETATM   12  C   UNL     1     -11.966  12.249  65.141  1.00  0.00    -0.337 C  
HETATM   13  O   UNL     1     -13.248  12.602  64.603  1.00  0.00    -0.828 OA 
HETATM   14  H   UNL     1     -13.307  12.332  63.693  1.00  0.00     0.000 HD 
BRANCH  12  15
HETATM   15  C   UNL     1     -10.853  12.919  64.310  1.00  0.00    -0.397 C  
BRANCH  15  16
HETATM   16  N   UNL     1      -9.519  12.455  64.728  1.00  0.00    -0.423 NA 
HETATM   17  H   UNL     1      -9.322  12.686  65.702  1.00  0.00     0.000 HD 
BRANCH  16  18
HETATM   18  C   UNL     1      -9.380  11.026  64.469  1.00  0.00    -0.198 C  
BRANCH  18  19
HETATM   19  C   UNL     1      -8.428  10.398  65.482  1.00  0.00    -0.171 C  
BRANCH  19  20
HETATM   20  C   UNL     1      -7.703   9.207  64.856  1.00  0.00    -0.110 C  
BRANCH  20  21
HETATM   21  C   UNL     1      -7.960   7.929  65.645  1.00  0.00    -0.116 C  
BRANCH  21  22
HETATM   22  C   UNL     1      -6.655   7.211  65.974  1.00  0.00    -0.052 C  
BRANCH  22  23
HETATM   23  C   UNL     1      -6.863   5.705  65.996  1.00  0.00    -0.058 C  
BRANCH  23  24
HETATM   24  O   UNL     1      -7.897   5.399  66.926  1.00  0.00    -0.099 OA 
BRANCH  24  25
HETATM   25  C   UNL     1      -7.369   4.708  68.056  1.00  0.00    -0.066 C  
BRANCH  25  26
HETATM   26  C   UNL     1      -7.804   5.408  69.333  1.00  0.00    -0.089 C  
BRANCH  26  27
HETATM   27  O   UNL     1      -8.993   6.153  69.068  1.00  0.00    -0.125 OA 
BRANCH  27  28
HETATM   28  C   UNL     1     -10.153   5.433  69.461  1.00  0.00    -0.240 C  
BRANCH  28  29
HETATM   29  C   UNL     1     -10.337   5.587  70.946  1.00  0.00    -0.310 A  
HETATM   30  C   UNL     1     -10.074   4.524  71.829  1.00  0.00    -0.184 A  
HETATM   31 CL   UNL     1      -9.589   2.959  71.272  1.00  0.00    -0.224 Cl 
HETATM   32  C   UNL     1     -10.197   4.689  73.215  1.00  0.00    -0.218 A  
HETATM   33  C   UNL     1     -10.608   5.908  73.743  1.00  0.00    -0.275 A  
HETATM   34  C   UNL     1     -10.925   6.956  72.884  1.00  0.00    -0.315 A  
HETATM   35  C   UNL     1     -10.803   6.794  71.498  1.00  0.00    -0.234 A  
HETATM   36 CL   UNL     1     -11.252   8.145  70.514  1.00  0.00    -0.263 Cl 
ENDBRANCH  28  29
ENDBRANCH  27  28
ENDBRANCH  26  27
ENDBRANCH  25  26
ENDBRANCH  24  25
ENDBRANCH  23  24
ENDBRANCH  22  23
ENDBRANCH  21  22
ENDBRANCH  20  21
ENDBRANCH  19  20
ENDBRANCH  18  19
ENDBRANCH  16  18
ENDBRANCH  15  16
ENDBRANCH  12  15
ENDBRANCH  10  12
ENDBRANCH   2   4
TORSDOF 16
ENDMDL
MODEL      288
REMARK 921   NORMALIZED FREE ENERGY PREDICTED BY IDOCK:   -4.16 KCAL/MOL
REMARK 922        TOTAL FREE ENERGY PREDICTED BY IDOCK:  -10.13 KCAL/MOL
REMARK 923 INTER-LIGAND FREE ENERGY PREDICTED BY IDOCK:   -8.99 KCAL/MOL
REMARK 924 INTRA-LIGAND FREE ENERGY PREDICTED BY IDOCK:   -1.14 KCAL/MOL
REMARK 927      BINDING AFFINITY PREDICTED BY RF-SCORE:    0.00 PKD
ROOT
HETATM    1  O   UNL     1      -7.789   9.662  68.844  1.00  0.00    -0.078 OA 
HETATM    2  C   UNL     1      -8.220   8.673  67.908  1.00  0.00    -0.115 C  
HETATM    3  H   UNL     1      -7.105  10.206  68.474  1.00  0.00     0.000 HD 
ENDROOT
BRANCH   2   4
HETATM    4  C   UNL     1      -9.306   7.810  68.495  1.00  0.00    -0.147 A  
HETATM    5  C   UNL     1     -10.051   6.893  67.744  1.00  0.00    -0.161 A  
HETATM    6  O   UNL     1      -9.790   6.662  66.422  1.00  0.00    -0.328 OA 
HETATM    7  C   UNL     1     -11.094   6.167  68.311  1.00  0.00    -0.336 A  
HETATM    8  C   UNL     1     -11.411   6.340  69.657  1.00  0.00    -0.492 A  
HETATM    9  H   UNL     1     -10.294   6.040  65.913  1.00  0.00     0.000 HD 
HETATM   10  C   UNL     1     -10.689   7.248  70.445  1.00  0.00    -0.253 A  
HETATM   11  C   UNL     1      -9.650   7.984  69.848  1.00  0.00    -0.171 A  
BRANCH  10  12
HETATM   12  C   UNL     1     -11.092   7.473  71.887  1.00  0.00    -0.239 C  
HETATM   13  O   UNL     1     -10.219   8.431  72.501  1.00  0.00    -0.306 OA 
HETATM   14  H   UNL     1     -10.472   8.573  73.406  1.00  0.00     0.000 HD 
BRANCH  12  15
HETATM   15  C   UNL     1     -12.549   7.975  71.965  1.00  0.00    -0.312 C  
BRANCH  15  16
HETATM   16  N   UNL     1     -12.812   9.013  70.953  1.00  0.00    -0.508 NA 
HETATM   17  H   UNL     1     -13.684   8.845  70.452  1.00  0.00     0.000 HD 
BRANCH  16  18
HETATM   18  C   UNL     1     -12.784  10.335  71.571  1.00  0.00    -0.452 C  
BRANCH  18  19
HETATM   19  C   UNL     1     -12.308  11.376  70.562  1.00  0.00    -0.439 C  
BRANCH  19  20
HETATM   20  C   UNL     1     -11.416  10.719  69.509  1.00  0.00    -0.365 C  
BRANCH  20  21
HETATM   21  C   UNL     1     -11.876  11.075  68.100  1.00  0.00    -0.195 C  
BRANCH  21  22
HETATM   22  C   UNL     1     -11.184  12.338  67.596  1.00  0.00    -0.346 C  
BRANCH  22  23
HETATM   23  C   UNL     1     -11.992  12.983  66.482  1.00  0.00    -0.391 C  
BRANCH  23  24
HETATM   24  O   UNL     1     -11.661  14.366  66.417  1.00  0.00    -0.368 OA 
BRANCH  24  25
HETATM   25  C   UNL     1     -10.336  14.590  66.893  1.00  0.00    -0.264 C  
BRANCH  25  26
HETATM   26  C   UNL     1     -10.167  16.053  67.267  1.00  0.00    -0.277 C  
BRANCH  26  27
HETATM   27  O   UNL     1      -8.788  16.404  67.143  1.00  0.00    -0.186 OA 
BRANCH  27  28
HETATM   28  C   UNL     1      -8.487  17.586  67.871  1.00  0.00    -0.230 C  
BRANCH  28  29
HETATM   29  C   UNL     1      -7.634  18.478  67.010  1.00  0.00    -0.234 A  
HETATM   30  C   UNL     1      -6.281  18.184  66.767  1.00  0.00    -0.176 A  
HETATM   31 CL   UNL     1      -5.488  16.824  67.487  1.00  0.00    -0.149 Cl 
HETATM   32  C   UNL     1      -5.506  18.991  65.923  1.00  0.00    -0.179 A  
HETATM   33  C   UNL     1      -6.061  20.118  65.327  1.00  0.00    -0.261 A  
HETATM   34  C   UNL     1      -7.382  20.457  65.597  1.00  0.00    -0.157 A  
HETATM   35  C   UNL     1      -8.159  19.652  66.440  1.00  0.00    -0.326 A  
HETATM   36 CL   UNL     1      -9.782  20.177  66.738  1.00  0.00    -0.548 Cl 
ENDBRANCH  28  29
ENDBRANCH  27  28
ENDBRANCH  26  27
ENDBRANCH  25  26
ENDBRANCH  24  25
ENDBRANCH  23  24
ENDBRANCH  22  23
ENDBRANCH  21  22
ENDBRANCH  20  21
ENDBRANCH  19  20
ENDBRANCH  18  19
ENDBRANCH  16  18
ENDBRANCH  15  16
ENDBRANCH  12  15
ENDBRANCH  10  12
ENDBRANCH   2   4
TORSDOF 16
ENDMDL
MODEL      289
REMARK 921   NORMALIZED FREE ENERGY PREDICTED BY IDOCK:   -4.16 KCAL/MOL
REMARK 922        TOTAL FREE ENERGY PREDICTED BY IDOCK:  -10.12 KCAL/MOL
REMARK 923 INTER-LIGAND FREE ENERGY PREDICTED BY IDOCK:   -7.85 KCAL/MOL
REMARK 924 INTRA-LIGAND FREE ENERGY PREDICTED BY IDOCK:   -2.27 KCAL/MOL
REMARK 927      BINDING AFFINITY PREDICTED BY RF-SCORE:    0.00 PKD
ROOT
HETATM    1  O   UNL     1      -8.551   9.680  65.703  1.00  0.00    -0.126 OA 
HETATM    2  C   UNL     1      -8.448  11.058  65.343  1.00  0.00    -0.030 C  
HETATM    3  H   UNL     1      -7.764   9.382  66.143  1.00  0.00     0.000 HD 
ENDROOT
BRANCH   2   4
HETATM    4  C   UNL     1      -9.697  11.530  64.645  1.00  0.00    -0.242 A  
HETATM    5  C   UNL     1     -10.251  10.880  63.536  1.00  0.00    -0.317 A  
HETATM    6  O   UNL     1      -9.730   9.714  63.049  1.00  0.00    -0.504 OA 
HETATM    7  C   UNL     1     -11.366  11.390  62.877  1.00  0.00     0.431 A  
HETATM    8  C   UNL     1     -11.959  12.568  63.325  1.00  0.00    -0.516 A  
HETATM    9  H   UNL     1     -10.106   9.273  62.296  1.00  0.00     0.000 HD 
HETATM   10  C   UNL     1     -11.436  13.250  64.433  1.00  0.00    -0.416 A  
HETATM   11  C   UNL     1     -10.298  12.727  65.074  1.00  0.00    -0.323 A  
BRANCH  10  12
HETATM   12  C   UNL     1     -12.052  14.565  64.863  1.00  0.00    -0.416 C  
HETATM   13  O   UNL     1     -13.266  14.329  65.589  1.00  0.00    -0.630 OA 
HETATM   14  H   UNL     1     -13.652  15.154  65.859  1.00  0.00     0.000 HD 
BRANCH  12  15
HETATM   15  C   UNL     1     -11.065  15.356  65.746  1.00  0.00    -0.260 C  
BRANCH  15  16
HETATM   16  N   UNL     1     -10.526  16.526  65.032  1.00  0.00    -0.655 NA 
HETATM   17  H   UNL     1     -10.785  16.523  64.045  1.00  0.00     0.000 HD 
BRANCH  16  18
HETATM   18  C   UNL     1     -10.939  17.756  65.700  1.00  0.00     0.226 C  
BRANCH  18  19
HETATM   19  C   UNL     1     -10.266  17.864  67.065  1.00  0.00    -0.359 C  
BRANCH  19  20
HETATM   20  C   UNL     1      -9.566  19.217  67.201  1.00  0.00    -0.378 C  
BRANCH  20  21
HETATM   21  C   UNL     1      -8.461  19.371  66.163  1.00  0.00    -0.303 C  
BRANCH  21  22
HETATM   22  C   UNL     1      -7.084  19.186  66.792  1.00  0.00    -0.218 C  
BRANCH  22  23
HETATM   23  C   UNL     1      -6.589  17.763  66.589  1.00  0.00    -0.204 C  
BRANCH  23  24
HETATM   24  O   UNL     1      -6.531  17.113  67.855  1.00  0.00    -0.142 OA 
BRANCH  24  25
HETATM   25  C   UNL     1      -7.133  15.822  67.786  1.00  0.00    -0.151 C  
BRANCH  25  26
HETATM   26  C   UNL     1      -8.056  15.624  68.978  1.00  0.00    -0.222 C  
BRANCH  26  27
HETATM   27  O   UNL     1      -8.234  14.224  69.194  1.00  0.00    -0.046 OA 
BRANCH  27  28
HETATM   28  C   UNL     1      -8.873  13.605  68.087  1.00  0.00    -0.189 C  
BRANCH  28  29
HETATM   29  C   UNL     1      -9.621  12.395  68.575  1.00  0.00    -0.121 A  
HETATM   30  C   UNL     1     -11.010  12.431  68.786  1.00  0.00    -0.246 A  
HETATM   31 CL   UNL     1     -11.941  13.873  68.566  1.00  0.00    -0.400 Cl 
HETATM   32  C   UNL     1     -11.710  11.286  69.192  1.00  0.00    -0.410 A  
HETATM   33  C   UNL     1     -11.031  10.093  69.418  1.00  0.00    -0.285 A  
HETATM   34  C   UNL     1      -9.649  10.050  69.267  1.00  0.00    -0.227 A  
HETATM   35  C   UNL     1      -8.948  11.193  68.861  1.00  0.00    -0.081 A  
HETATM   36 CL   UNL     1      -7.228  11.047  68.734  1.00  0.00    -0.083 Cl 
ENDBRANCH  28  29
ENDBRANCH  27  28
ENDBRANCH  26  27
ENDBRANCH  25  26
ENDBRANCH  24  25
ENDBRANCH  23  24
ENDBRANCH  22  23
ENDBRANCH  21  22
ENDBRANCH  20  21
ENDBRANCH  19  20
ENDBRANCH  18  19
ENDBRANCH  16  18
ENDBRANCH  15  16
ENDBRANCH  12  15
ENDBRANCH  10  12
ENDBRANCH   2   4
TORSDOF 16
ENDMDL
MODEL      290
REMARK 921   NORMALIZED FREE ENERGY PREDICTED BY IDOCK:   -4.16 KCAL/MOL
REMARK 922        TOTAL FREE ENERGY PREDICTED BY IDOCK:  -10.12 KCAL/MOL
REMARK 923 INTER-LIGAND FREE ENERGY PREDICTED BY IDOCK:   -8.23 KCAL/MOL
REMARK 924 INTRA-LIGAND FREE ENERGY PREDICTED BY IDOCK:   -1.89 KCAL/MOL
REMARK 927      BINDING AFFINITY PREDICTED BY RF-SCORE:    0.00 PKD
ROOT
HETATM    1  O   UNL     1     -13.173  16.258  73.424  1.00  0.00    -0.516 OA 
HETATM    2  C   UNL     1     -13.986  15.401  72.622  1.00  0.00    -0.496 C  
HETATM    3  H   UNL     1     -13.707  16.823  73.969  1.00  0.00     0.000 HD 
ENDROOT
BRANCH   2   4
HETATM    4  C   UNL     1     -13.138  14.505  71.757  1.00  0.00    -0.421 A  
HETATM    5  C   UNL     1     -12.086  14.974  70.962  1.00  0.00    -0.324 A  
HETATM    6  O   UNL     1     -11.703  16.286  70.972  1.00  0.00    -0.556 OA 
HETATM    7  C   UNL     1     -11.374  14.122  70.123  1.00  0.00    -0.147 A  
HETATM    8  C   UNL     1     -11.699  12.768  70.069  1.00  0.00    -0.282 A  
HETATM    9  H   UNL     1     -10.990  16.605  70.433  1.00  0.00     0.000 HD 
HETATM   10  C   UNL     1     -12.745  12.258  70.851  1.00  0.00    -0.277 A  
HETATM   11  C   UNL     1     -13.463  13.139  71.678  1.00  0.00    -0.320 A  
BRANCH  10  12
HETATM   12  C   UNL     1     -13.128  10.798  70.727  1.00  0.00    -0.163 C  
HETATM   13  O   UNL     1     -13.095  10.392  69.352  1.00  0.00    -0.365 OA 
HETATM   14  H   UNL     1     -13.335   9.476  69.274  1.00  0.00     0.000 HD 
BRANCH  12  15
HETATM   15  C   UNL     1     -12.163   9.918  71.550  1.00  0.00    -0.416 C  
BRANCH  15  16
HETATM   16  N   UNL     1     -12.385   8.487  71.284  1.00  0.00    -0.379 NA 
HETATM   17  H   UNL     1     -13.163   8.334  70.642  1.00  0.00     0.000 HD 
BRANCH  16  18
HETATM   18  C   UNL     1     -11.153   7.867  70.807  1.00  0.00    -0.256 C  
BRANCH  18  19
HETATM   19  C   UNL     1      -9.943   8.660  71.294  1.00  0.00    -0.315 C  
BRANCH  19  20
HETATM   20  C   UNL     1      -8.863   8.689  70.213  1.00  0.00    -0.158 C  
BRANCH  20  21
HETATM   21  C   UNL     1      -8.234   7.313  70.029  1.00  0.00    -0.132 C  
BRANCH  21  22
HETATM   22  C   UNL     1      -7.670   7.149  68.621  1.00  0.00    -0.120 C  
BRANCH  22  23
HETATM   23  C   UNL     1      -8.241   8.206  67.689  1.00  0.00    -0.127 C  
BRANCH  23  24
HETATM   24  O   UNL     1      -7.182   8.753  66.911  1.00  0.00    -0.077 OA 
BRANCH  24  25
HETATM   25  C   UNL     1      -6.904  10.093  67.309  1.00  0.00    -0.078 C  
BRANCH  25  26
HETATM   26  C   UNL     1      -8.202  10.879  67.403  1.00  0.00    -0.117 C  
BRANCH  26  27
HETATM   27  O   UNL     1      -7.940  12.242  67.070  1.00  0.00    -0.169 OA 
BRANCH  27  28
HETATM   28  C   UNL     1      -8.626  13.129  67.942  1.00  0.00    -0.185 C  
BRANCH  28  29
HETATM   29  C   UNL     1      -8.334  14.543  67.519  1.00  0.00    -0.201 A  
HETATM   30  C   UNL     1      -9.093  15.179  66.521  1.00  0.00    -0.294 A  
HETATM   31 CL   UNL     1     -10.361  14.367  65.667  1.00  0.00    -0.337 Cl 
HETATM   32  C   UNL     1      -8.850  16.513  66.168  1.00  0.00    -0.342 A  
HETATM   33  C   UNL     1      -7.831  17.228  66.787  1.00  0.00    -0.278 A  
HETATM   34  C   UNL     1      -7.033  16.602  67.739  1.00  0.00    -0.153 A  
HETATM   35  C   UNL     1      -7.274  15.268  68.094  1.00  0.00    -0.120 A  
HETATM   36 CL   UNL     1      -6.207  14.569  69.264  1.00  0.00    -0.105 Cl 
ENDBRANCH  28  29
ENDBRANCH  27  28
ENDBRANCH  26  27
ENDBRANCH  25  26
ENDBRANCH  24  25
ENDBRANCH  23  24
ENDBRANCH  22  23
ENDBRANCH  21  22
ENDBRANCH  20  21
ENDBRANCH  19  20
ENDBRANCH  18  19
ENDBRANCH  16  18
ENDBRANCH  15  16
ENDBRANCH  12  15
ENDBRANCH  10  12
ENDBRANCH   2   4
TORSDOF 16
ENDMDL
MODEL      291
REMARK 921   NORMALIZED FREE ENERGY PREDICTED BY IDOCK:   -4.15 KCAL/MOL
REMARK 922        TOTAL FREE ENERGY PREDICTED BY IDOCK:  -10.11 KCAL/MOL
REMARK 923 INTER-LIGAND FREE ENERGY PREDICTED BY IDOCK:   -8.98 KCAL/MOL
REMARK 924 INTRA-LIGAND FREE ENERGY PREDICTED BY IDOCK:   -1.13 KCAL/MOL
REMARK 927      BINDING AFFINITY PREDICTED BY RF-SCORE:    0.00 PKD
ROOT
HETATM    1  O   UNL     1     -11.438   6.673  66.794  1.00  0.00    -0.776 OA 
HETATM    2  C   UNL     1     -10.013   6.635  66.868  1.00  0.00    -0.180 C  
HETATM    3  H   UNL     1     -11.736   6.591  65.895  1.00  0.00     0.000 HD 
ENDROOT
BRANCH   2   4
HETATM    4  C   UNL     1      -9.541   6.764  68.293  1.00  0.00    -0.127 A  
HETATM    5  C   UNL     1      -8.411   7.500  68.666  1.00  0.00    -0.129 A  
HETATM    6  O   UNL     1      -7.687   8.221  67.757  1.00  0.00    -0.100 OA 
HETATM    7  C   UNL     1      -7.969   7.534  69.985  1.00  0.00    -0.112 A  
HETATM    8  C   UNL     1      -8.663   6.833  70.968  1.00  0.00    -0.137 A  
HETATM    9  H   UNL     1      -6.920   8.720  68.010  1.00  0.00     0.000 HD 
HETATM   10  C   UNL     1      -9.801   6.085  70.637  1.00  0.00    -0.222 A  
HETATM   11  C   UNL     1     -10.220   6.049  69.295  1.00  0.00    -0.263 A  
BRANCH  10  12
HETATM   12  C   UNL     1     -10.502   5.274  71.708  1.00  0.00    -0.214 C  
HETATM   13  O   UNL     1      -9.572   4.386  72.344  1.00  0.00    -0.138 OA 
HETATM   14  H   UNL     1     -10.012   3.878  73.015  1.00  0.00     0.000 HD 
BRANCH  12  15
HETATM   15  C   UNL     1     -11.131   6.208  72.763  1.00  0.00    -0.259 C  
BRANCH  15  16
HETATM   16  N   UNL     1     -12.324   6.889  72.232  1.00  0.00    -0.518 NA 
HETATM   17  H   UNL     1     -13.188   6.476  72.583  1.00  0.00     0.000 HD 
BRANCH  16  18
HETATM   18  C   UNL     1     -12.251   8.320  72.511  1.00  0.00    -0.307 C  
BRANCH  18  19
HETATM   19  C   UNL     1     -13.042   9.100  71.465  1.00  0.00    -0.409 C  
BRANCH  19  20
HETATM   20  C   UNL     1     -13.271  10.535  71.941  1.00  0.00    -0.526 C  
BRANCH  20  21
HETATM   21  C   UNL     1     -12.601  11.537  71.008  1.00  0.00    -0.457 C  
BRANCH  21  22
HETATM   22  C   UNL     1     -11.932  10.833  69.831  1.00  0.00    -0.418 C  
BRANCH  22  23
HETATM   23  C   UNL     1     -11.720  11.801  68.678  1.00  0.00    -0.330 C  
BRANCH  23  24
HETATM   24  O   UNL     1     -10.327  11.869  68.388  1.00  0.00    -0.198 OA 
BRANCH  24  25
HETATM   25  C   UNL     1      -9.912  13.224  68.227  1.00  0.00    -0.236 C  
BRANCH  25  26
HETATM   26  C   UNL     1     -10.951  14.153  68.834  1.00  0.00    -0.259 C  
BRANCH  26  27
HETATM   27  O   UNL     1     -10.435  15.485  68.832  1.00  0.00    -0.209 OA 
BRANCH  27  28
HETATM   28  C   UNL     1      -9.249  15.579  68.055  1.00  0.00    -0.187 C  
BRANCH  28  29
HETATM   29  C   UNL     1      -8.546  16.863  68.404  1.00  0.00    -0.240 A  
HETATM   30  C   UNL     1      -9.118  18.113  68.110  1.00  0.00    -0.290 A  
HETATM   31 CL   UNL     1     -10.626  18.265  67.274  1.00  0.00    -0.418 Cl 
HETATM   32  C   UNL     1      -8.482  19.305  68.483  1.00  0.00    -0.401 A  
HETATM   33  C   UNL     1      -7.253  19.270  69.134  1.00  0.00    -0.360 A  
HETATM   34  C   UNL     1      -6.645  18.045  69.386  1.00  0.00    -0.194 A  
HETATM   35  C   UNL     1      -7.278  16.852  69.014  1.00  0.00    -0.232 A  
HETATM   36 CL   UNL     1      -6.425  15.383  69.343  1.00  0.00    -0.137 Cl 
ENDBRANCH  28  29
ENDBRANCH  27  28
ENDBRANCH  26  27
ENDBRANCH  25  26
ENDBRANCH  24  25
ENDBRANCH  23  24
ENDBRANCH  22  23
ENDBRANCH  21  22
ENDBRANCH  20  21
ENDBRANCH  19  20
ENDBRANCH  18  19
ENDBRANCH  16  18
ENDBRANCH  15  16
ENDBRANCH  12  15
ENDBRANCH  10  12
ENDBRANCH   2   4
TORSDOF 16
ENDMDL
MODEL      292
REMARK 921   NORMALIZED FREE ENERGY PREDICTED BY IDOCK:   -4.15 KCAL/MOL
REMARK 922        TOTAL FREE ENERGY PREDICTED BY IDOCK:  -10.10 KCAL/MOL
REMARK 923 INTER-LIGAND FREE ENERGY PREDICTED BY IDOCK:   -8.33 KCAL/MOL
REMARK 924 INTRA-LIGAND FREE ENERGY PREDICTED BY IDOCK:   -1.77 KCAL/MOL
REMARK 927      BINDING AFFINITY PREDICTED BY RF-SCORE:    0.00 PKD
ROOT
HETATM    1  O   UNL     1     -12.021  10.494  68.112  1.00  0.00    -0.788 OA 
HETATM    2  C   UNL     1     -10.755  10.511  67.451  1.00  0.00    -0.281 C  
HETATM    3  H   UNL     1     -11.952  10.098  68.972  1.00  0.00     0.000 HD 
ENDROOT
BRANCH   2   4
HETATM    4  C   UNL     1     -10.866  11.140  66.087  1.00  0.00    -0.247 A  
HETATM    5  C   UNL     1     -10.189  10.659  64.960  1.00  0.00    -0.310 A  
HETATM    6  O   UNL     1      -9.428   9.524  65.006  1.00  0.00    -0.343 OA 
HETATM    7  C   UNL     1     -10.262  11.313  63.734  1.00  0.00    -0.431 A  
HETATM    8  C   UNL     1     -11.029  12.469  63.608  1.00  0.00    -0.507 A  
HETATM    9  H   UNL     1      -8.969   9.197  64.242  1.00  0.00     0.000 HD 
HETATM   10  C   UNL     1     -11.724  12.984  64.712  1.00  0.00    -0.389 A  
HETATM   11  C   UNL     1     -11.621  12.318  65.946  1.00  0.00    -0.450 A  
BRANCH  10  12
HETATM   12  C   UNL     1     -12.495  14.280  64.573  1.00  0.00    -0.333 C  
HETATM   13  O   UNL     1     -13.424  14.421  65.657  1.00  0.00    -0.612 OA 
HETATM   14  H   UNL     1     -13.908  15.234  65.570  1.00  0.00     0.000 HD 
BRANCH  12  15
HETATM   15  C   UNL     1     -11.528  15.482  64.559  1.00  0.00    -0.308 C  
BRANCH  15  16
HETATM   16  N   UNL     1     -10.277  15.171  65.271  1.00  0.00    -0.370 NA 
HETATM   17  H   UNL     1      -9.485  15.087  64.634  1.00  0.00     0.000 HD 
BRANCH  16  18
HETATM   18  C   UNL     1     -10.034  16.160  66.315  1.00  0.00    -0.317 C  
BRANCH  18  19
HETATM   19  C   UNL     1      -8.997  15.637  67.305  1.00  0.00    -0.214 C  
BRANCH  19  20
HETATM   20  C   UNL     1      -8.783  14.137  67.099  1.00  0.00    -0.239 C  
BRANCH  20  21
HETATM   21  C   UNL     1      -7.456  13.684  67.697  1.00  0.00    -0.191 C  
BRANCH  21  22
HETATM   22  C   UNL     1      -7.235  12.191  67.479  1.00  0.00    -0.133 C  
BRANCH  22  23
HETATM   23  C   UNL     1      -7.453  11.422  68.773  1.00  0.00    -0.124 C  
BRANCH  23  24
HETATM   24  O   UNL     1      -6.400  10.476  68.927  1.00  0.00    -0.046 OA 
BRANCH  24  25
HETATM   25  C   UNL     1      -6.775   9.451  69.844  1.00  0.00    -0.058 C  
BRANCH  25  26
HETATM   26  C   UNL     1      -8.290   9.351  69.909  1.00  0.00    -0.167 C  
BRANCH  26  27
HETATM   27  O   UNL     1      -8.677   8.011  69.603  1.00  0.00    -0.131 OA 
BRANCH  27  28
HETATM   28  C   UNL     1      -8.249   7.633  68.302  1.00  0.00    -0.125 C  
BRANCH  28  29
HETATM   29  C   UNL     1      -8.497   6.160  68.122  1.00  0.00    -0.116 A  
HETATM   30  C   UNL     1      -9.646   5.688  67.464  1.00  0.00    -0.118 A  
HETATM   31 CL   UNL     1     -10.879   6.753  66.879  1.00  0.00    -0.429 Cl 
HETATM   32  C   UNL     1      -9.847   4.317  67.254  1.00  0.00    -0.193 A  
HETATM   33  C   UNL     1      -8.917   3.393  67.717  1.00  0.00    -0.177 A  
HETATM   34  C   UNL     1      -7.800   3.836  68.418  1.00  0.00    -0.068 A  
HETATM   35  C   UNL     1      -7.597   5.206  68.630  1.00  0.00    -0.078 A  
HETATM   36 CL   UNL     1      -6.195   5.653  69.540  1.00  0.00    -0.031 Cl 
ENDBRANCH  28  29
ENDBRANCH  27  28
ENDBRANCH  26  27
ENDBRANCH  25  26
ENDBRANCH  24  25
ENDBRANCH  23  24
ENDBRANCH  22  23
ENDBRANCH  21  22
ENDBRANCH  20  21
ENDBRANCH  19  20
ENDBRANCH  18  19
ENDBRANCH  16  18
ENDBRANCH  15  16
ENDBRANCH  12  15
ENDBRANCH  10  12
ENDBRANCH   2   4
TORSDOF 16
ENDMDL
MODEL      293
REMARK 921   NORMALIZED FREE ENERGY PREDICTED BY IDOCK:   -4.15 KCAL/MOL
REMARK 922        TOTAL FREE ENERGY PREDICTED BY IDOCK:  -10.10 KCAL/MOL
REMARK 923 INTER-LIGAND FREE ENERGY PREDICTED BY IDOCK:   -8.05 KCAL/MOL
REMARK 924 INTRA-LIGAND FREE ENERGY PREDICTED BY IDOCK:   -2.04 KCAL/MOL
REMARK 927      BINDING AFFINITY PREDICTED BY RF-SCORE:    0.00 PKD
ROOT
HETATM    1  O   UNL     1     -12.334  14.827  63.132  1.00  0.00    -0.529 OA 
HETATM    2  C   UNL     1     -12.011  14.546  64.495  1.00  0.00    -0.468 C  
HETATM    3  H   UNL     1     -12.956  15.542  63.070  1.00  0.00     0.000 HD 
ENDROOT
BRANCH   2   4
HETATM    4  C   UNL     1     -11.025  13.411  64.594  1.00  0.00    -0.388 A  
HETATM    5  C   UNL     1     -11.080  12.271  63.784  1.00  0.00    -0.442 A  
HETATM    6  O   UNL     1     -12.003  12.140  62.784  1.00  0.00    -0.461 OA 
HETATM    7  C   UNL     1     -10.191  11.214  63.957  1.00  0.00    -0.419 A  
HETATM    8  C   UNL     1      -9.215  11.282  64.949  1.00  0.00    -0.130 A  
HETATM    9  H   UNL     1     -12.040  11.366  62.235  1.00  0.00     0.000 HD 
HETATM   10  C   UNL     1      -9.125  12.407  65.780  1.00  0.00     0.166 A  
HETATM   11  C   UNL     1     -10.044  13.456  65.600  1.00  0.00    -0.285 A  
BRANCH  10  12
HETATM   12  C   UNL     1      -8.102  12.433  66.896  1.00  0.00    -0.063 C  
HETATM   13  O   UNL     1      -8.466  13.413  67.879  1.00  0.00    -0.149 OA 
HETATM   14  H   UNL     1      -7.824  13.429  68.579  1.00  0.00     0.000 HD 
BRANCH  12  15
HETATM   15  C   UNL     1      -7.999  11.045  67.562  1.00  0.00    -0.116 C  
BRANCH  15  16
HETATM   16  N   UNL     1      -6.749  10.362  67.188  1.00  0.00    -0.076 NA 
HETATM   17  H   UNL     1      -5.926  10.918  67.420  1.00  0.00     0.000 HD 
BRANCH  16  18
HETATM   18  C   UNL     1      -6.700   9.036  67.795  1.00  0.00    -0.065 C  
BRANCH  18  19
HETATM   19  C   UNL     1      -7.532   8.053  66.977  1.00  0.00    -0.092 C  
BRANCH  19  20
HETATM   20  C   UNL     1      -8.318   7.128  67.907  1.00  0.00    -0.118 C  
BRANCH  20  21
HETATM   21  C   UNL     1      -9.797   7.106  67.539  1.00  0.00    -0.192 C  
BRANCH  21  22
HETATM   22  C   UNL     1     -10.595   6.248  68.515  1.00  0.00    -0.315 C  
BRANCH  22  23
HETATM   23  C   UNL     1      -9.864   4.947  68.807  1.00  0.00    -0.161 C  
BRANCH  23  24
HETATM   24  O   UNL     1     -10.188   4.524  70.127  1.00  0.00    -0.210 OA 
BRANCH  24  25
HETATM   25  C   UNL     1     -11.025   5.482  70.771  1.00  0.00    -0.123 C  
BRANCH  25  26
HETATM   26  C   UNL     1     -10.610   5.628  72.226  1.00  0.00    -0.221 C  
BRANCH  26  27
HETATM   27  O   UNL     1     -11.491   6.552  72.866  1.00  0.00    -0.189 OA 
BRANCH  27  28
HETATM   28  C   UNL     1     -10.832   7.774  73.164  1.00  0.00    -0.339 C  
BRANCH  28  29
HETATM   29  C   UNL     1     -10.887   8.660  71.949  1.00  0.00    -0.419 A  
HETATM   30  C   UNL     1     -12.086   9.272  71.544  1.00  0.00    -0.361 A  
HETATM   31 CL   UNL     1     -13.585   8.999  72.366  1.00  0.00    -0.509 Cl 
HETATM   32  C   UNL     1     -12.121  10.137  70.442  1.00  0.00    -0.332 A  
HETATM   33  C   UNL     1     -10.965  10.388  69.711  1.00  0.00    -0.345 A  
HETATM   34  C   UNL     1      -9.779   9.751  70.062  1.00  0.00    -0.292 A  
HETATM   35  C   UNL     1      -9.742   8.886  71.164  1.00  0.00    -0.274 A  
HETATM   36 CL   UNL     1      -8.227   8.118  71.499  1.00  0.00    -0.133 Cl 
ENDBRANCH  28  29
ENDBRANCH  27  28
ENDBRANCH  26  27
ENDBRANCH  25  26
ENDBRANCH  24  25
ENDBRANCH  23  24
ENDBRANCH  22  23
ENDBRANCH  21  22
ENDBRANCH  20  21
ENDBRANCH  19  20
ENDBRANCH  18  19
ENDBRANCH  16  18
ENDBRANCH  15  16
ENDBRANCH  12  15
ENDBRANCH  10  12
ENDBRANCH   2   4
TORSDOF 16
ENDMDL
MODEL      294
REMARK 921   NORMALIZED FREE ENERGY PREDICTED BY IDOCK:   -4.13 KCAL/MOL
REMARK 922        TOTAL FREE ENERGY PREDICTED BY IDOCK:  -10.06 KCAL/MOL
REMARK 923 INTER-LIGAND FREE ENERGY PREDICTED BY IDOCK:   -7.01 KCAL/MOL
REMARK 924 INTRA-LIGAND FREE ENERGY PREDICTED BY IDOCK:   -3.06 KCAL/MOL
REMARK 927      BINDING AFFINITY PREDICTED BY RF-SCORE:    0.00 PKD
ROOT
HETATM    1  O   UNL     1     -12.754  10.704  69.115  1.00  0.00    -0.685 OA 
HETATM    2  C   UNL     1     -11.368  11.048  69.149  1.00  0.00    -0.280 C  
HETATM    3  H   UNL     1     -13.234  11.281  68.532  1.00  0.00     0.000 HD 
ENDROOT
BRANCH   2   4
HETATM    4  C   UNL     1     -10.607  10.133  70.073  1.00  0.00    -0.338 A  
HETATM    5  C   UNL     1      -9.235   9.886  69.952  1.00  0.00    -0.212 A  
HETATM    6  O   UNL     1      -8.466  10.525  69.020  1.00  0.00    -0.142 OA 
HETATM    7  C   UNL     1      -8.584   8.977  70.782  1.00  0.00    -0.259 A  
HETATM    8  C   UNL     1      -9.301   8.297  71.765  1.00  0.00    -0.266 A  
HETATM    9  H   UNL     1      -7.535  10.357  68.938  1.00  0.00     0.000 HD 
HETATM   10  C   UNL     1     -10.677   8.517  71.920  1.00  0.00    -0.394 A  
HETATM   11  C   UNL     1     -11.318   9.426  71.059  1.00  0.00    -0.407 A  
BRANCH  10  12
HETATM   12  C   UNL     1     -11.451   7.718  72.947  1.00  0.00    -0.303 C  
HETATM   13  O   UNL     1     -12.561   7.056  72.325  1.00  0.00    -0.512 OA 
HETATM   14  H   UNL     1     -13.047   6.555  72.969  1.00  0.00     0.000 HD 
BRANCH  12  15
HETATM   15  C   UNL     1     -10.534   6.673  73.616  1.00  0.00    -0.330 C  
BRANCH  15  16
HETATM   16  N   UNL     1     -11.203   5.366  73.726  1.00  0.00    -0.422 NA 
HETATM   17  H   UNL     1     -11.793   5.169  72.918  1.00  0.00     0.000 HD 
BRANCH  16  18
HETATM   18  C   UNL     1     -10.217   4.314  73.950  1.00  0.00    -0.174 C  
BRANCH  18  19
HETATM   19  C   UNL     1      -9.878   3.623  72.632  1.00  0.00    -0.213 C  
BRANCH  19  20
HETATM   20  C   UNL     1      -8.364   3.605  72.422  1.00  0.00    -0.085 C  
BRANCH  20  21
HETATM   21  C   UNL     1      -7.853   4.975  71.992  1.00  0.00    -0.110 C  
BRANCH  21  22
HETATM   22  C   UNL     1      -6.579   4.852  71.161  1.00  0.00    -0.031 C  
BRANCH  22  23
HETATM   23  C   UNL     1      -6.586   5.856  70.019  1.00  0.00    -0.047 C  
BRANCH  23  24
HETATM   24  O   UNL     1      -6.463   5.152  68.788  1.00  0.00    -0.034 OA 
BRANCH  24  25
HETATM   25  C   UNL     1      -6.213   3.768  69.022  1.00  0.00    -0.028 C  
BRANCH  25  26
HETATM   26  C   UNL     1      -7.243   2.929  68.284  1.00  0.00    -0.049 C  
BRANCH  26  27
HETATM   27  O   UNL     1      -8.541   3.247  68.786  1.00  0.00    -0.075 OA 
BRANCH  27  28
HETATM   28  C   UNL     1      -9.466   3.465  67.731  1.00  0.00    -0.176 C  
BRANCH  28  29
HETATM   29  C   UNL     1      -9.436   4.921  67.356  1.00  0.00    -0.156 A  
HETATM   30  C   UNL     1      -9.980   5.905  68.200  1.00  0.00    -0.145 A  
HETATM   31 CL   UNL     1     -10.776   5.510  69.685  1.00  0.00    -0.391 Cl 
HETATM   32  C   UNL     1      -9.903   7.265  67.870  1.00  0.00    -0.172 A  
HETATM   33  C   UNL     1      -9.303   7.665  66.680  1.00  0.00    -0.239 A  
HETATM   34  C   UNL     1      -8.806   6.704  65.805  1.00  0.00    -0.093 A  
HETATM   35  C   UNL     1      -8.882   5.344  66.133  1.00  0.00    -0.139 A  
HETATM   36 CL   UNL     1      -8.265   4.226  64.965  1.00  0.00    -0.101 Cl 
ENDBRANCH  28  29
ENDBRANCH  27  28
ENDBRANCH  26  27
ENDBRANCH  25  26
ENDBRANCH  24  25
ENDBRANCH  23  24
ENDBRANCH  22  23
ENDBRANCH  21  22
ENDBRANCH  20  21
ENDBRANCH  19  20
ENDBRANCH  18  19
ENDBRANCH  16  18
ENDBRANCH  15  16
ENDBRANCH  12  15
ENDBRANCH  10  12
ENDBRANCH   2   4
TORSDOF 16
ENDMDL
MODEL      295
REMARK 921   NORMALIZED FREE ENERGY PREDICTED BY IDOCK:   -4.12 KCAL/MOL
REMARK 922        TOTAL FREE ENERGY PREDICTED BY IDOCK:  -10.06 KCAL/MOL
REMARK 923 INTER-LIGAND FREE ENERGY PREDICTED BY IDOCK:   -9.04 KCAL/MOL
REMARK 924 INTRA-LIGAND FREE ENERGY PREDICTED BY IDOCK:   -1.02 KCAL/MOL
REMARK 927      BINDING AFFINITY PREDICTED BY RF-SCORE:    0.00 PKD
ROOT
HETATM    1  O   UNL     1     -11.739  16.439  63.607  1.00  0.00    -1.520 OA 
HETATM    2  C   UNL     1     -11.042  16.044  64.789  1.00  0.00    -0.365 C  
HETATM    3  H   UNL     1     -11.539  17.339  63.378  1.00  0.00     0.000 HD 
ENDROOT
BRANCH   2   4
HETATM    4  C   UNL     1     -11.360  14.617  65.152  1.00  0.00    -0.375 A  
HETATM    5  C   UNL     1     -12.138  13.774  64.351  1.00  0.00    -0.436 A  
HETATM    6  O   UNL     1     -12.610  14.172  63.131  1.00  0.00    -1.058 OA 
HETATM    7  C   UNL     1     -12.468  12.485  64.758  1.00  0.00    -0.532 A  
HETATM    8  C   UNL     1     -12.012  12.006  65.984  1.00  0.00    -0.110 A  
HETATM    9  H   UNL     1     -13.139  13.601  62.587  1.00  0.00     0.000 HD 
HETATM   10  C   UNL     1     -11.228  12.817  66.816  1.00  0.00    -0.338 A  
HETATM   11  C   UNL     1     -10.922  14.123  66.394  1.00  0.00    -0.311 A  
BRANCH  10  12
HETATM   12  C   UNL     1     -10.800  12.304  68.175  1.00  0.00    -0.227 C  
HETATM   13  O   UNL     1     -11.549  11.130  68.519  1.00  0.00    -0.280 OA 
HETATM   14  H   UNL     1     -11.280  10.807  69.371  1.00  0.00     0.000 HD 
BRANCH  12  15
HETATM   15  C   UNL     1      -9.292  11.974  68.173  1.00  0.00    -0.199 C  
BRANCH  15  16
HETATM   16  N   UNL     1      -8.766  11.882  66.801  1.00  0.00    -0.191 NA 
HETATM   17  H   UNL     1      -7.811  12.235  66.734  1.00  0.00     0.000 HD 
BRANCH  16  18
HETATM   18  C   UNL     1      -8.876  10.512  66.312  1.00  0.00    -0.159 C  
BRANCH  18  19
HETATM   19  C   UNL     1      -8.577  10.463  64.816  1.00  0.00    -0.190 C  
BRANCH  19  20
HETATM   20  C   UNL     1      -7.556   9.364  64.519  1.00  0.00    -0.110 C  
BRANCH  20  21
HETATM   21  C   UNL     1      -6.158   9.778  64.964  1.00  0.00    -0.092 C  
BRANCH  21  22
HETATM   22  C   UNL     1      -5.719   8.996  66.198  1.00  0.00    -0.053 C  
BRANCH  22  23
HETATM   23  C   UNL     1      -5.495   9.933  67.374  1.00  0.00    -0.039 C  
BRANCH  23  24
HETATM   24  O   UNL     1      -6.220   9.440  68.497  1.00  0.00    -0.048 OA 
BRANCH  24  25
HETATM   25  C   UNL     1      -6.168  10.369  69.577  1.00  0.00    -0.054 C  
BRANCH  25  26
HETATM   26  C   UNL     1      -6.140   9.618  70.898  1.00  0.00    -0.086 C  
BRANCH  26  27
HETATM   27  O   UNL     1      -7.468   9.206  71.222  1.00  0.00    -0.232 OA 
BRANCH  27  28
HETATM   28  C   UNL     1      -7.588   7.791  71.216  1.00  0.00    -0.080 C  
BRANCH  28  29
HETATM   29  C   UNL     1      -9.016   7.429  70.911  1.00  0.00    -0.149 A  
HETATM   30  C   UNL     1      -9.428   7.119  69.603  1.00  0.00    -0.152 A  
HETATM   31 CL   UNL     1      -8.348   7.196  68.252  1.00  0.00    -0.124 Cl 
HETATM   32  C   UNL     1     -10.748   6.733  69.333  1.00  0.00    -0.291 A  
HETATM   33  C   UNL     1     -11.684   6.672  70.359  1.00  0.00    -0.446 A  
HETATM   34  C   UNL     1     -11.311   7.027  71.651  1.00  0.00    -0.288 A  
HETATM   35  C   UNL     1      -9.992   7.413  71.923  1.00  0.00    -0.170 A  
HETATM   36 CL   UNL     1      -9.635   7.866  73.555  1.00  0.00    -0.333 Cl 
ENDBRANCH  28  29
ENDBRANCH  27  28
ENDBRANCH  26  27
ENDBRANCH  25  26
ENDBRANCH  24  25
ENDBRANCH  23  24
ENDBRANCH  22  23
ENDBRANCH  21  22
ENDBRANCH  20  21
ENDBRANCH  19  20
ENDBRANCH  18  19
ENDBRANCH  16  18
ENDBRANCH  15  16
ENDBRANCH  12  15
ENDBRANCH  10  12
ENDBRANCH   2   4
TORSDOF 16
ENDMDL
MODEL      296
REMARK 921   NORMALIZED FREE ENERGY PREDICTED BY IDOCK:   -4.12 KCAL/MOL
REMARK 922        TOTAL FREE ENERGY PREDICTED BY IDOCK:  -10.04 KCAL/MOL
REMARK 923 INTER-LIGAND FREE ENERGY PREDICTED BY IDOCK:   -8.18 KCAL/MOL
REMARK 924 INTRA-LIGAND FREE ENERGY PREDICTED BY IDOCK:   -1.86 KCAL/MOL
REMARK 927      BINDING AFFINITY PREDICTED BY RF-SCORE:    0.00 PKD
ROOT
HETATM    1  O   UNL     1     -10.840  16.120  70.136  1.00  0.00    -0.332 OA 
HETATM    2  C   UNL     1     -11.695  15.947  69.005  1.00  0.00    -0.370 C  
HETATM    3  H   UNL     1     -10.743  17.039  70.354  1.00  0.00     0.000 HD 
ENDROOT
BRANCH   2   4
HETATM    4  C   UNL     1     -11.847  14.489  68.660  1.00  0.00    -0.355 A  
HETATM    5  C   UNL     1     -11.866  13.469  69.618  1.00  0.00    -0.336 A  
HETATM    6  O   UNL     1     -11.819  13.737  70.958  1.00  0.00    -0.494 OA 
HETATM    7  C   UNL     1     -11.936  12.129  69.251  1.00  0.00    -0.318 A  
HETATM    8  C   UNL     1     -11.998  11.779  67.904  1.00  0.00    -0.168 A  
HETATM    9  H   UNL     1     -11.832  13.046  71.609  1.00  0.00     0.000 HD 
HETATM   10  C   UNL     1     -11.983  12.770  66.913  1.00  0.00    -0.380 A  
HETATM   11  C   UNL     1     -11.894  14.118  67.304  1.00  0.00    -0.452 A  
BRANCH  10  12
HETATM   12  C   UNL     1     -11.982  12.368  65.453  1.00  0.00    -0.398 C  
HETATM   13  O   UNL     1     -13.185  12.819  64.814  1.00  0.00    -0.812 OA 
HETATM   14  H   UNL     1     -13.184  12.567  63.898  1.00  0.00     0.000 HD 
BRANCH  12  15
HETATM   15  C   UNL     1     -10.757  12.969  64.732  1.00  0.00    -0.352 C  
BRANCH  15  16
HETATM   16  N   UNL     1      -9.546  12.873  65.564  1.00  0.00    -0.473 NA 
HETATM   17  H   UNL     1      -9.729  13.123  66.536  1.00  0.00     0.000 HD 
BRANCH  16  18
HETATM   18  C   UNL     1      -8.959  11.542  65.445  1.00  0.00     0.018 C  
BRANCH  18  19
HETATM   19  C   UNL     1      -8.849  10.892  66.822  1.00  0.00    -0.149 C  
BRANCH  19  20
HETATM   20  C   UNL     1      -8.174   9.526  66.705  1.00  0.00    -0.113 C  
BRANCH  20  21
HETATM   21  C   UNL     1      -9.206   8.408  66.613  1.00  0.00    -0.226 C  
BRANCH  21  22
HETATM   22  C   UNL     1      -8.779   7.194  67.433  1.00  0.00    -0.120 C  
BRANCH  22  23
HETATM   23  C   UNL     1      -9.991   6.384  67.862  1.00  0.00    -0.131 C  
BRANCH  23  24
HETATM   24  O   UNL     1     -10.367   6.784  69.176  1.00  0.00    -0.176 OA 
BRANCH  24  25
HETATM   25  C   UNL     1     -10.394   5.662  70.056  1.00  0.00    -0.275 C  
BRANCH  25  26
HETATM   26  C   UNL     1     -10.319   6.138  71.497  1.00  0.00    -0.209 C  
BRANCH  26  27
HETATM   27  O   UNL     1     -10.542   7.548  71.528  1.00  0.00    -0.212 OA 
BRANCH  27  28
HETATM   28  C   UNL     1      -9.799   8.167  72.569  1.00  0.00    -0.293 C  
BRANCH  28  29
HETATM   29  C   UNL     1      -8.418   8.475  72.058  1.00  0.00    -0.231 A  
HETATM   30  C   UNL     1      -7.271   8.018  72.732  1.00  0.00    -0.095 A  
HETATM   31 CL   UNL     1      -7.363   7.135  74.218  1.00  0.00    -0.108 Cl 
HETATM   32  C   UNL     1      -5.988   8.264  72.224  1.00  0.00    -0.053 A  
HETATM   33  C   UNL     1      -5.826   8.990  71.049  1.00  0.00    -0.046 A  
HETATM   34  C   UNL     1      -6.945   9.497  70.396  1.00  0.00    -0.112 A  
HETATM   35  C   UNL     1      -8.228   9.252  70.901  1.00  0.00    -0.132 A  
HETATM   36 CL   UNL     1      -9.552   9.953  70.034  1.00  0.00    -0.275 Cl 
ENDBRANCH  28  29
ENDBRANCH  27  28
ENDBRANCH  26  27
ENDBRANCH  25  26
ENDBRANCH  24  25
ENDBRANCH  23  24
ENDBRANCH  22  23
ENDBRANCH  21  22
ENDBRANCH  20  21
ENDBRANCH  19  20
ENDBRANCH  18  19
ENDBRANCH  16  18
ENDBRANCH  15  16
ENDBRANCH  12  15
ENDBRANCH  10  12
ENDBRANCH   2   4
TORSDOF 16
ENDMDL
MODEL      297
REMARK 921   NORMALIZED FREE ENERGY PREDICTED BY IDOCK:   -4.12 KCAL/MOL
REMARK 922        TOTAL FREE ENERGY PREDICTED BY IDOCK:  -10.04 KCAL/MOL
REMARK 923 INTER-LIGAND FREE ENERGY PREDICTED BY IDOCK:   -6.78 KCAL/MOL
REMARK 924 INTRA-LIGAND FREE ENERGY PREDICTED BY IDOCK:   -3.26 KCAL/MOL
REMARK 927      BINDING AFFINITY PREDICTED BY RF-SCORE:    0.00 PKD
ROOT
HETATM    1  O   UNL     1     -11.944  10.519  68.503  1.00  0.00    -0.754 OA 
HETATM    2  C   UNL     1     -10.533  10.697  68.635  1.00  0.00    -0.191 C  
HETATM    3  H   UNL     1     -12.282  11.010  67.763  1.00  0.00     0.000 HD 
ENDROOT
BRANCH   2   4
HETATM    4  C   UNL     1      -9.998   9.918  69.809  1.00  0.00    -0.275 A  
HETATM    5  C   UNL     1      -8.633   9.712  70.037  1.00  0.00    -0.215 A  
HETATM    6  O   UNL     1      -7.675  10.274  69.240  1.00  0.00    -0.104 OA 
HETATM    7  C   UNL     1      -8.184   8.925  71.094  1.00  0.00    -0.218 A  
HETATM    8  C   UNL     1      -9.102   8.329  71.956  1.00  0.00    -0.267 A  
HETATM    9  H   UNL     1      -6.748  10.135  69.395  1.00  0.00     0.000 HD 
HETATM   10  C   UNL     1     -10.478   8.511  71.762  1.00  0.00    -0.370 A  
HETATM   11  C   UNL     1     -10.911   9.295  70.678  1.00  0.00    -0.336 A  
BRANCH  10  12
HETATM   12  C   UNL     1     -11.462   7.800  72.668  1.00  0.00    -0.375 C  
HETATM   13  O   UNL     1     -12.512   7.208  71.890  1.00  0.00    -0.331 OA 
HETATM   14  H   UNL     1     -13.128   6.761  72.458  1.00  0.00     0.000 HD 
BRANCH  12  15
HETATM   15  C   UNL     1     -10.744   6.707  73.487  1.00  0.00    -0.276 C  
BRANCH  15  16
HETATM   16  N   UNL     1     -11.453   5.419  73.399  1.00  0.00    -0.490 NA 
HETATM   17  H   UNL     1     -11.614   5.137  72.432  1.00  0.00     0.000 HD 
BRANCH  16  18
HETATM   18  C   UNL     1     -10.734   4.398  74.153  1.00  0.00    -0.252 C  
BRANCH  18  19
HETATM   19  C   UNL     1     -10.110   3.383  73.199  1.00  0.00    -0.215 C  
BRANCH  19  20
HETATM   20  C   UNL     1      -8.829   2.809  73.805  1.00  0.00    -0.075 C  
BRANCH  20  21
HETATM   21  C   UNL     1      -7.767   3.889  73.969  1.00  0.00    -0.079 C  
BRANCH  21  22
HETATM   22  C   UNL     1      -6.602   3.667  73.010  1.00  0.00    -0.033 C  
BRANCH  22  23
HETATM   23  C   UNL     1      -5.900   4.981  72.706  1.00  0.00    -0.025 C  
BRANCH  23  24
HETATM   24  O   UNL     1      -5.345   4.913  71.397  1.00  0.00    -0.004 OA 
BRANCH  24  25
HETATM   25  C   UNL     1      -5.975   3.884  70.636  1.00  0.00    -0.018 C  
BRANCH  25  26
HETATM   26  C   UNL     1      -5.816   4.174  69.153  1.00  0.00    -0.022 C  
BRANCH  26  27
HETATM   27  O   UNL     1      -7.074   4.601  68.630  1.00  0.00    -0.051 OA 
BRANCH  27  28
HETATM   28  C   UNL     1      -7.534   5.777  69.281  1.00  0.00    -0.083 C  
BRANCH  28  29
HETATM   29  C   UNL     1      -8.660   6.365  68.475  1.00  0.00    -0.122 A  
HETATM   30  C   UNL     1      -8.412   7.231  67.396  1.00  0.00    -0.119 A  
HETATM   31 CL   UNL     1      -6.813   7.730  66.961  1.00  0.00    -0.067 Cl 
HETATM   32  C   UNL     1      -9.463   7.735  66.617  1.00  0.00    -0.263 A  
HETATM   33  C   UNL     1     -10.780   7.403  66.917  1.00  0.00    -0.324 A  
HETATM   34  C   UNL     1     -11.051   6.592  68.014  1.00  0.00    -0.332 A  
HETATM   35  C   UNL     1     -10.002   6.087  68.794  1.00  0.00    -0.150 A  
HETATM   36 CL   UNL     1     -10.444   5.113  70.155  1.00  0.00    -0.345 Cl 
ENDBRANCH  28  29
ENDBRANCH  27  28
ENDBRANCH  26  27
ENDBRANCH  25  26
ENDBRANCH  24  25
ENDBRANCH  23  24
ENDBRANCH  22  23
ENDBRANCH  21  22
ENDBRANCH  20  21
ENDBRANCH  19  20
ENDBRANCH  18  19
ENDBRANCH  16  18
ENDBRANCH  15  16
ENDBRANCH  12  15
ENDBRANCH  10  12
ENDBRANCH   2   4
TORSDOF 16
ENDMDL
MODEL      298
REMARK 921   NORMALIZED FREE ENERGY PREDICTED BY IDOCK:   -4.11 KCAL/MOL
REMARK 922        TOTAL FREE ENERGY PREDICTED BY IDOCK:  -10.03 KCAL/MOL
REMARK 923 INTER-LIGAND FREE ENERGY PREDICTED BY IDOCK:   -9.12 KCAL/MOL
REMARK 924 INTRA-LIGAND FREE ENERGY PREDICTED BY IDOCK:   -0.92 KCAL/MOL
REMARK 927      BINDING AFFINITY PREDICTED BY RF-SCORE:    0.00 PKD
ROOT
HETATM    1  O   UNL     1      -7.515   3.489  70.294  1.00  0.00    -0.041 OA 
HETATM    2  C   UNL     1      -8.888   3.258  70.612  1.00  0.00    -0.083 C  
HETATM    3  H   UNL     1      -6.965   2.787  70.621  1.00  0.00     0.000 HD 
ENDROOT
BRANCH   2   4
HETATM    4  C   UNL     1      -9.758   4.373  70.093  1.00  0.00    -0.288 A  
HETATM    5  C   UNL     1      -9.767   4.783  68.755  1.00  0.00    -0.167 A  
HETATM    6  O   UNL     1      -9.029   4.142  67.799  1.00  0.00    -0.108 OA 
HETATM    7  C   UNL     1     -10.533   5.865  68.332  1.00  0.00    -0.294 A  
HETATM    8  C   UNL     1     -11.320   6.559  69.248  1.00  0.00    -0.359 A  
HETATM    9  H   UNL     1      -9.035   4.420  66.891  1.00  0.00     0.000 HD 
HETATM   10  C   UNL     1     -11.341   6.180  70.597  1.00  0.00    -0.368 A  
HETATM   11  C   UNL     1     -10.546   5.095  71.007  1.00  0.00    -0.201 A  
BRANCH  10  12
HETATM   12  C   UNL     1     -12.149   6.989  71.590  1.00  0.00    -0.347 C  
HETATM   13  O   UNL     1     -12.673   6.134  72.616  1.00  0.00    -0.470 OA 
HETATM   14  H   UNL     1     -13.179   6.641  73.239  1.00  0.00     0.000 HD 
BRANCH  12  15
HETATM   15  C   UNL     1     -11.271   8.086  72.229  1.00  0.00    -0.341 C  
BRANCH  15  16
HETATM   16  N   UNL     1     -11.798   9.430  71.938  1.00  0.00    -0.368 NA 
HETATM   17  H   UNL     1     -11.865  10.004  72.779  1.00  0.00     0.000 HD 
BRANCH  16  18
HETATM   18  C   UNL     1     -10.994  10.071  70.903  1.00  0.00    -0.267 C  
BRANCH  18  19
HETATM   19  C   UNL     1     -11.897  10.815  69.922  1.00  0.00    -0.413 C  
BRANCH  19  20
HETATM   20  C   UNL     1     -11.370  10.653  68.496  1.00  0.00    -0.348 C  
BRANCH  20  21
HETATM   21  C   UNL     1     -11.003  12.002  67.890  1.00  0.00    -0.266 C  
BRANCH  21  22
HETATM   22  C   UNL     1     -11.146  11.980  66.371  1.00  0.00    -0.365 C  
BRANCH  22  23
HETATM   23  C   UNL     1     -11.846  13.238  65.881  1.00  0.00    -0.393 C  
BRANCH  23  24
HETATM   24  O   UNL     1     -10.956  14.341  66.016  1.00  0.00    -0.303 OA 
BRANCH  24  25
HETATM   25  C   UNL     1     -11.361  15.188  67.089  1.00  0.00    -0.290 C  
BRANCH  25  26
HETATM   26  C   UNL     1     -10.571  16.485  67.044  1.00  0.00    -0.255 C  
BRANCH  26  27
HETATM   27  O   UNL     1      -9.210  16.206  67.373  1.00  0.00    -0.205 OA 
BRANCH  27  28
HETATM   28  C   UNL     1      -8.752  17.037  68.430  1.00  0.00    -0.247 C  
BRANCH  28  29
HETATM   29  C   UNL     1      -8.057  18.233  67.839  1.00  0.00    -0.260 A  
HETATM   30  C   UNL     1      -8.670  19.498  67.817  1.00  0.00    -0.319 A  
HETATM   31 CL   UNL     1     -10.278  19.755  68.401  1.00  0.00    -0.563 Cl 
HETATM   32  C   UNL     1      -7.997  20.618  67.311  1.00  0.00    -0.327 A  
HETATM   33  C   UNL     1      -6.711  20.491  66.796  1.00  0.00    -0.312 A  
HETATM   34  C   UNL     1      -6.107  19.239  66.759  1.00  0.00    -0.170 A  
HETATM   35  C   UNL     1      -6.778  18.117  67.265  1.00  0.00    -0.190 A  
HETATM   36 CL   UNL     1      -5.955  16.599  67.144  1.00  0.00    -0.191 Cl 
ENDBRANCH  28  29
ENDBRANCH  27  28
ENDBRANCH  26  27
ENDBRANCH  25  26
ENDBRANCH  24  25
ENDBRANCH  23  24
ENDBRANCH  22  23
ENDBRANCH  21  22
ENDBRANCH  20  21
ENDBRANCH  19  20
ENDBRANCH  18  19
ENDBRANCH  16  18
ENDBRANCH  15  16
ENDBRANCH  12  15
ENDBRANCH  10  12
ENDBRANCH   2   4
TORSDOF 16
ENDMDL
MODEL      299
REMARK 921   NORMALIZED FREE ENERGY PREDICTED BY IDOCK:   -4.11 KCAL/MOL
REMARK 922        TOTAL FREE ENERGY PREDICTED BY IDOCK:  -10.03 KCAL/MOL
REMARK 923 INTER-LIGAND FREE ENERGY PREDICTED BY IDOCK:   -7.73 KCAL/MOL
REMARK 924 INTRA-LIGAND FREE ENERGY PREDICTED BY IDOCK:   -2.29 KCAL/MOL
REMARK 927      BINDING AFFINITY PREDICTED BY RF-SCORE:    0.00 PKD
ROOT
HETATM    1  O   UNL     1     -10.965  11.715  62.803  1.00  0.00    -0.531 OA 
HETATM    2  C   UNL     1     -10.921  12.742  63.795  1.00  0.00    -0.402 C  
HETATM    3  H   UNL     1     -10.899  12.082  61.930  1.00  0.00     0.000 HD 
ENDROOT
BRANCH   2   4
HETATM    4  C   UNL     1     -11.026  12.159  65.181  1.00  0.00    -0.355 A  
HETATM    5  C   UNL     1     -11.722  12.778  66.225  1.00  0.00    -0.402 A  
HETATM    6  O   UNL     1     -12.427  13.935  66.037  1.00  0.00    -0.463 OA 
HETATM    7  C   UNL     1     -11.733  12.242  67.509  1.00  0.00    -0.402 A  
HETATM    8  C   UNL     1     -11.047  11.059  67.774  1.00  0.00    -0.356 A  
HETATM    9  H   UNL     1     -12.900  14.355  66.745  1.00  0.00     0.000 HD 
HETATM   10  C   UNL     1     -10.338  10.406  66.755  1.00  0.00    -0.294 A  
HETATM   11  C   UNL     1     -10.325  10.975  65.469  1.00  0.00    -0.321 A  
BRANCH  10  12
HETATM   12  C   UNL     1      -9.542   9.159  67.078  1.00  0.00    -0.170 C  
HETATM   13  O   UNL     1      -9.864   8.113  66.150  1.00  0.00    -0.435 OA 
HETATM   14  H   UNL     1      -9.364   7.330  66.352  1.00  0.00     0.000 HD 
BRANCH  12  15
HETATM   15  C   UNL     1      -8.030   9.457  67.018  1.00  0.00    -0.102 C  
BRANCH  15  16
HETATM   16  N   UNL     1      -7.271   8.557  67.902  1.00  0.00    -0.086 NA 
HETATM   17  H   UNL     1      -6.300   8.458  67.605  1.00  0.00     0.000 HD 
BRANCH  16  18
HETATM   18  C   UNL     1      -7.374   9.007  69.286  1.00  0.00    -0.070 C  
BRANCH  18  19
HETATM   19  C   UNL     1      -7.621   7.817  70.209  1.00  0.00    -0.087 C  
BRANCH  19  20
HETATM   20  C   UNL     1      -6.373   6.938  70.280  1.00  0.00    -0.039 C  
BRANCH  20  21
HETATM   21  C   UNL     1      -6.738   5.490  70.587  1.00  0.00    -0.047 C  
BRANCH  21  22
HETATM   22  C   UNL     1      -5.904   4.944  71.741  1.00  0.00    -0.016 C  
BRANCH  22  23
HETATM   23  C   UNL     1      -6.647   5.096  73.058  1.00  0.00    -0.066 C  
BRANCH  23  24
HETATM   24  O   UNL     1      -6.268   6.331  73.658  1.00  0.00    -0.062 OA 
BRANCH  24  25
HETATM   25  C   UNL     1      -7.419   7.107  73.984  1.00  0.00    -0.105 C  
BRANCH  25  26
HETATM   26  C   UNL     1      -8.562   6.186  74.381  1.00  0.00    -0.123 C  
BRANCH  26  27
HETATM   27  O   UNL     1      -9.797   6.873  74.180  1.00  0.00    -0.278 OA 
BRANCH  27  28
HETATM   28  C   UNL     1     -10.783   6.014  73.625  1.00  0.00    -0.219 C  
BRANCH  28  29
HETATM   29  C   UNL     1     -10.752   6.150  72.127  1.00  0.00    -0.277 A  
HETATM   30  C   UNL     1     -10.280   5.109  71.308  1.00  0.00    -0.222 A  
HETATM   31 CL   UNL     1      -9.643   3.638  71.960  1.00  0.00    -0.199 Cl 
HETATM   32  C   UNL     1     -10.302   5.222  69.911  1.00  0.00    -0.374 A  
HETATM   33  C   UNL     1     -10.773   6.383  69.308  1.00  0.00    -0.349 A  
HETATM   34  C   UNL     1     -11.195   7.445  70.101  1.00  0.00    -0.239 A  
HETATM   35  C   UNL     1     -11.174   7.335  71.497  1.00  0.00    -0.245 A  
HETATM   36 CL   UNL     1     -11.688   8.723  72.395  1.00  0.00    -0.396 Cl 
ENDBRANCH  28  29
ENDBRANCH  27  28
ENDBRANCH  26  27
ENDBRANCH  25  26
ENDBRANCH  24  25
ENDBRANCH  23  24
ENDBRANCH  22  23
ENDBRANCH  21  22
ENDBRANCH  20  21
ENDBRANCH  19  20
ENDBRANCH  18  19
ENDBRANCH  16  18
ENDBRANCH  15  16
ENDBRANCH  12  15
ENDBRANCH  10  12
ENDBRANCH   2   4
TORSDOF 16
ENDMDL
MODEL      300
REMARK 921   NORMALIZED FREE ENERGY PREDICTED BY IDOCK:   -4.11 KCAL/MOL
REMARK 922        TOTAL FREE ENERGY PREDICTED BY IDOCK:  -10.02 KCAL/MOL
REMARK 923 INTER-LIGAND FREE ENERGY PREDICTED BY IDOCK:   -7.01 KCAL/MOL
REMARK 924 INTRA-LIGAND FREE ENERGY PREDICTED BY IDOCK:   -3.01 KCAL/MOL
REMARK 927      BINDING AFFINITY PREDICTED BY RF-SCORE:    0.00 PKD
ROOT
HETATM    1  O   UNL     1     -13.710   7.323  70.953  1.00  0.00    -0.592 OA 
HETATM    2  C   UNL     1     -12.529   7.168  71.740  1.00  0.00    -0.350 C  
HETATM    3  H   UNL     1     -14.368   7.825  71.420  1.00  0.00     0.000 HD 
ENDROOT
BRANCH   2   4
HETATM    4  C   UNL     1     -11.486   6.372  70.999  1.00  0.00    -0.394 A  
HETATM    5  C   UNL     1     -10.520   5.587  71.638  1.00  0.00    -0.231 A  
HETATM    6  O   UNL     1     -10.501   5.429  72.996  1.00  0.00    -0.185 OA 
HETATM    7  C   UNL     1      -9.530   4.924  70.918  1.00  0.00    -0.227 A  
HETATM    8  C   UNL     1      -9.493   5.029  69.529  1.00  0.00    -0.207 A  
HETATM    9  H   UNL     1      -9.845   4.896  73.429  1.00  0.00     0.000 HD 
HETATM   10  C   UNL     1     -10.444   5.804  68.850  1.00  0.00    -0.326 A  
HETATM   11  C   UNL     1     -11.424   6.480  69.598  1.00  0.00    -0.417 A  
BRANCH  10  12
HETATM   12  C   UNL     1     -10.346   5.961  67.347  1.00  0.00    -0.220 C  
HETATM   13  O   UNL     1     -11.522   6.607  66.840  1.00  0.00    -0.777 OA 
HETATM   14  H   UNL     1     -11.461   6.706  65.897  1.00  0.00     0.000 HD 
BRANCH  12  15
HETATM   15  C   UNL     1      -9.099   6.790  66.974  1.00  0.00    -0.131 C  
BRANCH  15  16
HETATM   16  N   UNL     1      -8.077   5.955  66.320  1.00  0.00    -0.102 NA 
HETATM   17  H   UNL     1      -7.915   6.237  65.354  1.00  0.00     0.000 HD 
BRANCH  16  18
HETATM   18  C   UNL     1      -6.847   5.960  67.104  1.00  0.00    -0.063 C  
BRANCH  18  19
HETATM   19  C   UNL     1      -5.765   6.756  66.378  1.00  0.00    -0.022 C  
BRANCH  19  20
HETATM   20  C   UNL     1      -5.870   6.532  64.870  1.00  0.00    -0.030 C  
BRANCH  20  21
HETATM   21  C   UNL     1      -5.946   7.857  64.121  1.00  0.00    -0.053 C  
BRANCH  21  22
HETATM   22  C   UNL     1      -7.341   8.089  63.549  1.00  0.00    -0.110 C  
BRANCH  22  23
HETATM   23  C   UNL     1      -7.552   9.560  63.230  1.00  0.00    -0.115 C  
BRANCH  23  24
HETATM   24  O   UNL     1      -7.908  10.242  64.428  1.00  0.00    -0.154 OA 
BRANCH  24  25
HETATM   25  C   UNL     1      -9.055   9.643  65.027  1.00  0.00    -0.233 C  
BRANCH  25  26
HETATM   26  C   UNL     1      -9.836  10.692  65.802  1.00  0.00    -0.241 C  
BRANCH  26  27
HETATM   27  O   UNL     1     -10.181  10.159  67.080  1.00  0.00    -0.201 OA 
BRANCH  27  28
HETATM   28  C   UNL     1      -9.658  10.956  68.133  1.00  0.00    -0.164 C  
BRANCH  28  29
HETATM   29  C   UNL     1      -9.039  10.050  69.162  1.00  0.00    -0.188 A  
HETATM   30  C   UNL     1      -9.736   9.684  70.327  1.00  0.00    -0.259 A  
HETATM   31 CL   UNL     1     -11.313  10.297  70.691  1.00  0.00    -0.409 Cl 
HETATM   32  C   UNL     1      -9.175   8.799  71.258  1.00  0.00    -0.309 A  
HETATM   33  C   UNL     1      -7.900   8.282  71.053  1.00  0.00    -0.097 A  
HETATM   34  C   UNL     1      -7.172   8.673  69.934  1.00  0.00    -0.051 A  
HETATM   35  C   UNL     1      -7.731   9.558  69.003  1.00  0.00    -0.076 A  
HETATM   36 CL   UNL     1      -6.734  10.008  67.662  1.00  0.00    -0.075 Cl 
ENDBRANCH  28  29
ENDBRANCH  27  28
ENDBRANCH  26  27
ENDBRANCH  25  26
ENDBRANCH  24  25
ENDBRANCH  23  24
ENDBRANCH  22  23
ENDBRANCH  21  22
ENDBRANCH  20  21
ENDBRANCH  19  20
ENDBRANCH  18  19
ENDBRANCH  16  18
ENDBRANCH  15  16
ENDBRANCH  12  15
ENDBRANCH  10  12
ENDBRANCH   2   4
TORSDOF 16
ENDMDL
MODEL      301
REMARK 921   NORMALIZED FREE ENERGY PREDICTED BY IDOCK:   -4.10 KCAL/MOL
REMARK 922        TOTAL FREE ENERGY PREDICTED BY IDOCK:  -10.01 KCAL/MOL
REMARK 923 INTER-LIGAND FREE ENERGY PREDICTED BY IDOCK:   -8.77 KCAL/MOL
REMARK 924 INTRA-LIGAND FREE ENERGY PREDICTED BY IDOCK:   -1.24 KCAL/MOL
REMARK 927      BINDING AFFINITY PREDICTED BY RF-SCORE:    0.00 PKD
ROOT
HETATM    1  O   UNL     1      -7.229  15.304  67.693  1.00  0.00    -0.145 OA 
HETATM    2  C   UNL     1      -7.845  14.079  67.295  1.00  0.00    -0.122 C  
HETATM    3  H   UNL     1      -6.289  15.273  67.557  1.00  0.00     0.000 HD 
ENDROOT
BRANCH   2   4
HETATM    4  C   UNL     1      -9.336  14.128  67.510  1.00  0.00    -0.204 A  
HETATM    5  C   UNL     1     -10.268  13.806  66.516  1.00  0.00    -0.284 A  
HETATM    6  O   UNL     1      -9.883  13.348  65.287  1.00  0.00    -0.497 OA 
HETATM    7  C   UNL     1     -11.636  13.935  66.735  1.00  0.00    -0.398 A  
HETATM    8  C   UNL     1     -12.103  14.385  67.968  1.00  0.00    -0.266 A  
HETATM    9  H   UNL     1     -10.515  13.130  64.613  1.00  0.00     0.000 HD 
HETATM   10  C   UNL     1     -11.203  14.716  68.990  1.00  0.00    -0.287 A  
HETATM   11  C   UNL     1      -9.824  14.596  68.743  1.00  0.00    -0.227 A  
BRANCH  10  12
HETATM   12  C   UNL     1     -11.727  15.269  70.299  1.00  0.00    -0.308 C  
HETATM   13  O   UNL     1     -11.304  16.629  70.468  1.00  0.00    -0.512 OA 
HETATM   14  H   UNL     1     -11.633  16.975  71.289  1.00  0.00     0.000 HD 
BRANCH  12  15
HETATM   15  C   UNL     1     -13.269  15.199  70.332  1.00  0.00    -0.133 C  
BRANCH  15  16
HETATM   16  N   UNL     1     -13.762  14.898  71.687  1.00  0.00    -0.400 NA 
HETATM   17  H   UNL     1     -14.752  14.653  71.687  1.00  0.00     0.000 HD 
BRANCH  16  18
HETATM   18  C   UNL     1     -12.943  13.857  72.300  1.00  0.00    -0.358 C  
BRANCH  18  19
HETATM   19  C   UNL     1     -13.586  12.489  72.088  1.00  0.00    -0.458 C  
BRANCH  19  20
HETATM   20  C   UNL     1     -12.582  11.529  71.451  1.00  0.00    -0.419 C  
BRANCH  20  21
HETATM   21  C   UNL     1     -13.063  10.086  71.550  1.00  0.00    -0.531 C  
BRANCH  21  22
HETATM   22  C   UNL     1     -11.943   9.107  71.210  1.00  0.00    -0.394 C  
BRANCH  22  23
HETATM   23  C   UNL     1     -12.397   7.674  71.438  1.00  0.00    -0.333 C  
BRANCH  23  24
HETATM   24  O   UNL     1     -11.640   7.117  72.507  1.00  0.00    -0.275 OA 
BRANCH  24  25
HETATM   25  C   UNL     1     -11.077   5.864  72.127  1.00  0.00    -0.281 C  
BRANCH  25  26
HETATM   26  C   UNL     1      -9.565   5.988  72.038  1.00  0.00    -0.152 C  
BRANCH  26  27
HETATM   27  O   UNL     1      -9.089   5.112  71.017  1.00  0.00    -0.139 OA 
BRANCH  27  28
HETATM   28  C   UNL     1      -8.428   5.829  69.985  1.00  0.00    -0.124 C  
BRANCH  28  29
HETATM   29  C   UNL     1      -9.147   5.581  68.687  1.00  0.00    -0.128 A  
HETATM   30  C   UNL     1      -9.106   4.324  68.058  1.00  0.00    -0.131 A  
HETATM   31 CL   UNL     1      -8.181   3.005  68.689  1.00  0.00    -0.076 Cl 
HETATM   32  C   UNL     1      -9.820   4.084  66.876  1.00  0.00    -0.157 A  
HETATM   33  C   UNL     1     -10.567   5.099  66.289  1.00  0.00    -0.325 A  
HETATM   34  C   UNL     1     -10.577   6.365  66.866  1.00  0.00    -0.379 A  
HETATM   35  C   UNL     1      -9.865   6.608  68.047  1.00  0.00    -0.131 A  
HETATM   36 CL   UNL     1      -9.915   8.222  68.668  1.00  0.00    -0.194 Cl 
ENDBRANCH  28  29
ENDBRANCH  27  28
ENDBRANCH  26  27
ENDBRANCH  25  26
ENDBRANCH  24  25
ENDBRANCH  23  24
ENDBRANCH  22  23
ENDBRANCH  21  22
ENDBRANCH  20  21
ENDBRANCH  19  20
ENDBRANCH  18  19
ENDBRANCH  16  18
ENDBRANCH  15  16
ENDBRANCH  12  15
ENDBRANCH  10  12
ENDBRANCH   2   4
TORSDOF 16
ENDMDL
MODEL      302
REMARK 921   NORMALIZED FREE ENERGY PREDICTED BY IDOCK:   -4.09 KCAL/MOL
REMARK 922        TOTAL FREE ENERGY PREDICTED BY IDOCK:   -9.99 KCAL/MOL
REMARK 923 INTER-LIGAND FREE ENERGY PREDICTED BY IDOCK:   -8.24 KCAL/MOL
REMARK 924 INTRA-LIGAND FREE ENERGY PREDICTED BY IDOCK:   -1.75 KCAL/MOL
REMARK 927      BINDING AFFINITY PREDICTED BY RF-SCORE:    0.00 PKD
ROOT
HETATM    1  O   UNL     1     -13.225  15.902  70.573  1.00  0.00    -0.739 OA 
HETATM    2  C   UNL     1     -12.341  14.793  70.402  1.00  0.00    -0.344 C  
HETATM    3  H   UNL     1     -13.579  15.923  71.454  1.00  0.00     0.000 HD 
ENDROOT
BRANCH   2   4
HETATM    4  C   UNL     1     -11.780  14.760  69.004  1.00  0.00    -0.343 A  
HETATM    5  C   UNL     1     -11.174  15.863  68.392  1.00  0.00    -0.368 A  
HETATM    6  O   UNL     1     -10.983  17.042  69.057  1.00  0.00    -0.260 OA 
HETATM    7  C   UNL     1     -10.734  15.811  67.073  1.00  0.00    -0.306 A  
HETATM    8  C   UNL     1     -10.884  14.638  66.336  1.00  0.00    -0.315 A  
HETATM    9  H   UNL     1     -10.572  17.791  68.641  1.00  0.00     0.000 HD 
HETATM   10  C   UNL     1     -11.484  13.510  66.913  1.00  0.00    -0.374 A  
HETATM   11  C   UNL     1     -11.939  13.590  68.241  1.00  0.00    -0.377 A  
BRANCH  10  12
HETATM   12  C   UNL     1     -11.701  12.267  66.075  1.00  0.00    -0.388 C  
HETATM   13  O   UNL     1     -12.309  12.614  64.823  1.00  0.00    -0.446 OA 
HETATM   14  H   UNL     1     -12.445  11.834  64.297  1.00  0.00     0.000 HD 
BRANCH  12  15
HETATM   15  C   UNL     1     -10.358  11.552  65.818  1.00  0.00    -0.248 C  
BRANCH  15  16
HETATM   16  N   UNL     1      -9.817  10.967  67.056  1.00  0.00    -0.179 NA 
HETATM   17  H   UNL     1      -9.533  11.683  67.725  1.00  0.00     0.000 HD 
BRANCH  16  18
HETATM   18  C   UNL     1     -10.779  10.034  67.633  1.00  0.00    -0.284 C  
BRANCH  18  19
HETATM   19  C   UNL     1     -10.392   9.703  69.072  1.00  0.00    -0.218 C  
BRANCH  19  20
HETATM   20  C   UNL     1     -11.264  10.495  70.046  1.00  0.00    -0.386 C  
BRANCH  20  21
HETATM   21  C   UNL     1     -11.944   9.572  71.050  1.00  0.00    -0.407 C  
BRANCH  21  22
HETATM   22  C   UNL     1     -11.689   8.107  70.713  1.00  0.00    -0.211 C  
BRANCH  22  23
HETATM   23  C   UNL     1     -12.165   7.207  71.842  1.00  0.00    -0.323 C  
BRANCH  23  24
HETATM   24  O   UNL     1     -11.320   7.401  72.971  1.00  0.00    -0.311 OA 
BRANCH  24  25
HETATM   25  C   UNL     1     -10.743   6.166  73.388  1.00  0.00    -0.259 C  
BRANCH  25  26
HETATM   26  C   UNL     1     -10.277   5.383  72.172  1.00  0.00    -0.203 C  
BRANCH  26  27
HETATM   27  O   UNL     1      -8.993   4.822  72.449  1.00  0.00    -0.124 OA 
BRANCH  27  28
HETATM   28  C   UNL     1      -7.969   5.489  71.724  1.00  0.00    -0.114 C  
BRANCH  28  29
HETATM   29  C   UNL     1      -7.136   6.287  72.689  1.00  0.00    -0.079 A  
HETATM   30  C   UNL     1      -7.315   7.674  72.835  1.00  0.00    -0.082 A  
HETATM   31 CL   UNL     1      -8.448   8.565  71.877  1.00  0.00    -0.230 Cl 
HETATM   32  C   UNL     1      -6.572   8.404  73.772  1.00  0.00    -0.139 A  
HETATM   33  C   UNL     1      -5.621   7.768  74.563  1.00  0.00    -0.073 A  
HETATM   34  C   UNL     1      -5.391   6.406  74.397  1.00  0.00    -0.049 A  
HETATM   35  C   UNL     1      -6.132   5.674  73.461  1.00  0.00    -0.056 A  
HETATM   36 CL   UNL     1      -5.749   3.993  73.307  1.00  0.00    -0.003 Cl 
ENDBRANCH  28  29
ENDBRANCH  27  28
ENDBRANCH  26  27
ENDBRANCH  25  26
ENDBRANCH  24  25
ENDBRANCH  23  24
ENDBRANCH  22  23
ENDBRANCH  21  22
ENDBRANCH  20  21
ENDBRANCH  19  20
ENDBRANCH  18  19
ENDBRANCH  16  18
ENDBRANCH  15  16
ENDBRANCH  12  15
ENDBRANCH  10  12
ENDBRANCH   2   4
TORSDOF 16
ENDMDL
MODEL      303
REMARK 921   NORMALIZED FREE ENERGY PREDICTED BY IDOCK:   -4.09 KCAL/MOL
REMARK 922        TOTAL FREE ENERGY PREDICTED BY IDOCK:   -9.98 KCAL/MOL
REMARK 923 INTER-LIGAND FREE ENERGY PREDICTED BY IDOCK:   -7.61 KCAL/MOL
REMARK 924 INTRA-LIGAND FREE ENERGY PREDICTED BY IDOCK:   -2.37 KCAL/MOL
REMARK 927      BINDING AFFINITY PREDICTED BY RF-SCORE:    0.00 PKD
ROOT
HETATM    1  O   UNL     1     -12.667  10.598  68.853  1.00  0.00    -0.657 OA 
HETATM    2  C   UNL     1     -11.552  11.254  69.458  1.00  0.00    -0.328 C  
HETATM    3  H   UNL     1     -13.189  11.210  68.347  1.00  0.00     0.000 HD 
ENDROOT
BRANCH   2   4
HETATM    4  C   UNL     1     -10.724  10.283  70.260  1.00  0.00    -0.310 A  
HETATM    5  C   UNL     1      -9.355  10.086  70.051  1.00  0.00    -0.119 A  
HETATM    6  O   UNL     1      -8.649  10.823  69.141  1.00  0.00    -0.240 OA 
HETATM    7  C   UNL     1      -8.642   9.127  70.765  1.00  0.00    -0.265 A  
HETATM    8  C   UNL     1      -9.291   8.345  71.717  1.00  0.00    -0.293 A  
HETATM    9  H   UNL     1      -7.720  10.689  68.999  1.00  0.00     0.000 HD 
HETATM   10  C   UNL     1     -10.662   8.513  71.959  1.00  0.00    -0.410 A  
HETATM   11  C   UNL     1     -11.367   9.475  71.213  1.00  0.00    -0.446 A  
BRANCH  10  12
HETATM   12  C   UNL     1     -11.365   7.607  72.948  1.00  0.00    -0.341 C  
HETATM   13  O   UNL     1     -12.105   6.594  72.253  1.00  0.00    -0.446 OA 
HETATM   14  H   UNL     1     -12.546   6.026  72.874  1.00  0.00     0.000 HD 
BRANCH  12  15
HETATM   15  C   UNL     1     -10.338   6.943  73.890  1.00  0.00    -0.365 C  
BRANCH  15  16
HETATM   16  N   UNL     1     -10.563   5.491  73.990  1.00  0.00    -0.285 NA 
HETATM   17  H   UNL     1     -11.173   5.148  73.248  1.00  0.00     0.000 HD 
BRANCH  16  18
HETATM   18  C   UNL     1      -9.286   4.786  74.015  1.00  0.00    -0.117 C  
BRANCH  18  19
HETATM   19  C   UNL     1      -8.728   4.659  72.600  1.00  0.00    -0.117 C  
BRANCH  19  20
HETATM   20  C   UNL     1      -9.769   4.025  71.679  1.00  0.00    -0.242 C  
BRANCH  20  21
HETATM   21  C   UNL     1      -9.618   2.509  71.638  1.00  0.00    -0.217 C  
BRANCH  21  22
HETATM   22  C   UNL     1      -9.643   1.991  70.203  1.00  0.00    -0.076 C  
BRANCH  22  23
HETATM   23  C   UNL     1      -8.310   2.248  69.518  1.00  0.00    -0.045 C  
BRANCH  23  24
HETATM   24  O   UNL     1      -8.408   3.451  68.763  1.00  0.00    -0.070 OA 
BRANCH  24  25
HETATM   25  C   UNL     1      -9.315   3.290  67.674  1.00  0.00    -0.198 C  
BRANCH  25  26
HETATM   26  C   UNL     1      -8.665   3.776  66.390  1.00  0.00    -0.118 C  
BRANCH  26  27
HETATM   27  O   UNL     1      -9.166   5.077  66.083  1.00  0.00    -0.137 OA 
BRANCH  27  28
HETATM   28  C   UNL     1      -8.164   6.070  66.247  1.00  0.00    -0.118 C  
BRANCH  28  29
HETATM   29  C   UNL     1      -8.771   7.419  65.972  1.00  0.00    -0.171 A  
HETATM   30  C   UNL     1      -9.711   7.990  66.848  1.00  0.00    -0.225 A  
HETATM   31 CL   UNL     1     -10.282   7.162  68.257  1.00  0.00    -0.196 Cl 
HETATM   32  C   UNL     1     -10.234   9.268  66.613  1.00  0.00    -0.323 A  
HETATM   33  C   UNL     1      -9.848   9.989  65.488  1.00  0.00    -0.373 A  
HETATM   34  C   UNL     1      -8.960   9.420  64.581  1.00  0.00    -0.233 A  
HETATM   35  C   UNL     1      -8.435   8.142  64.813  1.00  0.00    -0.046 A  
HETATM   36 CL   UNL     1      -7.364   7.510  63.609  1.00  0.00    -0.086 Cl 
ENDBRANCH  28  29
ENDBRANCH  27  28
ENDBRANCH  26  27
ENDBRANCH  25  26
ENDBRANCH  24  25
ENDBRANCH  23  24
ENDBRANCH  22  23
ENDBRANCH  21  22
ENDBRANCH  20  21
ENDBRANCH  19  20
ENDBRANCH  18  19
ENDBRANCH  16  18
ENDBRANCH  15  16
ENDBRANCH  12  15
ENDBRANCH  10  12
ENDBRANCH   2   4
TORSDOF 16
ENDMDL
MODEL      304
REMARK 921   NORMALIZED FREE ENERGY PREDICTED BY IDOCK:   -4.09 KCAL/MOL
REMARK 922        TOTAL FREE ENERGY PREDICTED BY IDOCK:   -9.98 KCAL/MOL
REMARK 923 INTER-LIGAND FREE ENERGY PREDICTED BY IDOCK:   -9.15 KCAL/MOL
REMARK 924 INTRA-LIGAND FREE ENERGY PREDICTED BY IDOCK:   -0.83 KCAL/MOL
REMARK 927      BINDING AFFINITY PREDICTED BY RF-SCORE:    0.00 PKD
ROOT
HETATM    1  O   UNL     1     -10.375  20.421  68.519  1.00  0.00    -0.278 OA 
HETATM    2  C   UNL     1     -10.638  19.832  67.245  1.00  0.00    -0.434 C  
HETATM    3  H   UNL     1     -11.077  21.008  68.775  1.00  0.00     0.000 HD 
ENDROOT
BRANCH   2   4
HETATM    4  C   UNL     1      -9.524  18.902  66.839  1.00  0.00    -0.345 A  
HETATM    5  C   UNL     1      -8.229  19.338  66.538  1.00  0.00    -0.309 A  
HETATM    6  O   UNL     1      -7.861  20.649  66.663  1.00  0.00    -0.506 OA 
HETATM    7  C   UNL     1      -7.249  18.453  66.097  1.00  0.00    -0.298 A  
HETATM    8  C   UNL     1      -7.547  17.100  65.957  1.00  0.00    -0.185 A  
HETATM    9  H   UNL     1      -6.982  20.945  66.459  1.00  0.00     0.000 HD 
HETATM   10  C   UNL     1      -8.832  16.622  66.250  1.00  0.00    -0.348 A  
HETATM   11  C   UNL     1      -9.813  17.535  66.676  1.00  0.00    -0.308 A  
BRANCH  10  12
HETATM   12  C   UNL     1      -9.156  15.160  66.025  1.00  0.00    -0.161 C  
HETATM   13  O   UNL     1      -9.500  14.532  67.268  1.00  0.00    -0.206 OA 
HETATM   14  H   UNL     1      -9.704  13.615  67.128  1.00  0.00     0.000 HD 
BRANCH  12  15
HETATM   15  C   UNL     1     -10.328  15.016  65.031  1.00  0.00    -0.357 C  
BRANCH  15  16
HETATM   16  N   UNL     1     -10.237  13.757  64.273  1.00  0.00    -0.737 NA 
HETATM   17  H   UNL     1      -9.546  13.121  64.671  1.00  0.00     0.000 HD 
BRANCH  16  18
HETATM   18  C   UNL     1     -11.553  13.137  64.170  1.00  0.00    -0.410 C  
BRANCH  18  19
HETATM   19  C   UNL     1     -11.956  12.532  65.512  1.00  0.00    -0.500 C  
BRANCH  19  20
HETATM   20  C   UNL     1     -10.889  11.546  65.987  1.00  0.00    -0.330 C  
BRANCH  20  21
HETATM   21  C   UNL     1     -11.196  11.036  67.390  1.00  0.00    -0.355 C  
BRANCH  21  22
HETATM   22  C   UNL     1     -11.885  12.108  68.227  1.00  0.00    -0.361 C  
BRANCH  22  23
HETATM   23  C   UNL     1     -11.798  11.770  69.707  1.00  0.00    -0.349 C  
BRANCH  23  24
HETATM   24  O   UNL     1     -12.600  10.622  69.963  1.00  0.00    -0.306 OA 
BRANCH  24  25
HETATM   25  C   UNL     1     -12.382  10.139  71.286  1.00  0.00    -0.400 C  
BRANCH  25  26
HETATM   26  C   UNL     1     -11.867   8.710  71.232  1.00  0.00    -0.295 C  
BRANCH  26  27
HETATM   27  O   UNL     1     -10.455   8.737  71.023  1.00  0.00    -0.202 OA 
BRANCH  27  28
HETATM   28  C   UNL     1      -9.998   7.537  70.416  1.00  0.00    -0.184 C  
BRANCH  28  29
HETATM   29  C   UNL     1      -8.958   6.912  71.306  1.00  0.00    -0.142 A  
HETATM   30  C   UNL     1      -9.292   6.400  72.573  1.00  0.00    -0.145 A  
HETATM   31 CL   UNL     1     -10.893   6.512  73.221  1.00  0.00    -0.286 Cl 
HETATM   32  C   UNL     1      -8.330   5.773  73.376  1.00  0.00    -0.115 A  
HETATM   33  C   UNL     1      -7.014   5.667  72.940  1.00  0.00    -0.084 A  
HETATM   34  C   UNL     1      -6.651   6.214  71.714  1.00  0.00    -0.055 A  
HETATM   35  C   UNL     1      -7.611   6.841  70.909  1.00  0.00    -0.088 A  
HETATM   36 CL   UNL     1      -7.053   7.518  69.417  1.00  0.00    -0.071 Cl 
ENDBRANCH  28  29
ENDBRANCH  27  28
ENDBRANCH  26  27
ENDBRANCH  25  26
ENDBRANCH  24  25
ENDBRANCH  23  24
ENDBRANCH  22  23
ENDBRANCH  21  22
ENDBRANCH  20  21
ENDBRANCH  19  20
ENDBRANCH  18  19
ENDBRANCH  16  18
ENDBRANCH  15  16
ENDBRANCH  12  15
ENDBRANCH  10  12
ENDBRANCH   2   4
TORSDOF 16
ENDMDL
MODEL      305
REMARK 921   NORMALIZED FREE ENERGY PREDICTED BY IDOCK:   -4.08 KCAL/MOL
REMARK 922        TOTAL FREE ENERGY PREDICTED BY IDOCK:   -9.97 KCAL/MOL
REMARK 923 INTER-LIGAND FREE ENERGY PREDICTED BY IDOCK:   -8.00 KCAL/MOL
REMARK 924 INTRA-LIGAND FREE ENERGY PREDICTED BY IDOCK:   -1.97 KCAL/MOL
REMARK 927      BINDING AFFINITY PREDICTED BY RF-SCORE:    0.00 PKD
ROOT
HETATM    1  O   UNL     1      -5.761  13.883  67.340  1.00  0.00    -0.352 OA 
HETATM    2  C   UNL     1      -6.304  12.661  67.843  1.00  0.00    -0.111 C  
HETATM    3  H   UNL     1      -4.943  14.096  67.774  1.00  0.00     0.000 HD 
ENDROOT
BRANCH   2   4
HETATM    4  C   UNL     1      -7.601  12.323  67.154  1.00  0.00    -0.118 A  
HETATM    5  C   UNL     1      -7.813  11.128  66.456  1.00  0.00    -0.151 A  
HETATM    6  O   UNL     1      -6.868  10.141  66.413  1.00  0.00    -0.090 OA 
HETATM    7  C   UNL     1      -9.001  10.887  65.773  1.00  0.00    -0.208 A  
HETATM    8  C   UNL     1     -10.014  11.843  65.783  1.00  0.00    -0.264 A  
HETATM    9  H   UNL     1      -7.012   9.330  65.940  1.00  0.00     0.000 HD 
HETATM   10  C   UNL     1      -9.843  13.052  66.471  1.00  0.00    -0.263 A  
HETATM   11  C   UNL     1      -8.628  13.283  67.139  1.00  0.00    -0.197 A  
BRANCH  10  12
HETATM   12  C   UNL     1     -10.928  14.107  66.412  1.00  0.00    -0.311 C  
HETATM   13  O   UNL     1     -11.313  14.346  65.051  1.00  0.00    -0.339 OA 
HETATM   14  H   UNL     1     -11.994  15.007  65.014  1.00  0.00     0.000 HD 
BRANCH  12  15
HETATM   15  C   UNL     1     -12.159  13.657  67.227  1.00  0.00    -0.345 C  
BRANCH  15  16
HETATM   16  N   UNL     1     -12.314  14.462  68.451  1.00  0.00    -0.599 NA 
HETATM   17  H   UNL     1     -13.293  14.564  68.718  1.00  0.00     0.000 HD 
BRANCH  16  18
HETATM   18  C   UNL     1     -11.511  13.896  69.529  1.00  0.00    -0.274 C  
BRANCH  18  19
HETATM   19  C   UNL     1     -12.407  13.163  70.523  1.00  0.00    -0.380 C  
BRANCH  19  20
HETATM   20  C   UNL     1     -12.056  11.675  70.550  1.00  0.00    -0.458 C  
BRANCH  20  21
HETATM   21  C   UNL     1     -12.904  10.929  71.573  1.00  0.00    -0.560 C  
BRANCH  21  22
HETATM   22  C   UNL     1     -12.810   9.420  71.371  1.00  0.00    -0.423 C  
BRANCH  22  23
HETATM   23  C   UNL     1     -11.923   8.791  72.434  1.00  0.00    -0.299 C  
BRANCH  23  24
HETATM   24  O   UNL     1     -11.307   7.629  71.889  1.00  0.00    -0.250 OA 
BRANCH  24  25
HETATM   25  C   UNL     1     -12.192   6.966  70.988  1.00  0.00    -0.377 C  
BRANCH  25  26
HETATM   26  C   UNL     1     -11.387   6.204  69.948  1.00  0.00    -0.384 C  
BRANCH  26  27
HETATM   27  O   UNL     1     -10.682   7.141  69.134  1.00  0.00    -0.217 OA 
BRANCH  27  28
HETATM   28  C   UNL     1      -9.348   6.717  68.893  1.00  0.00    -0.128 C  
BRANCH  28  29
HETATM   29  C   UNL     1      -8.507   7.063  70.092  1.00  0.00    -0.139 A  
HETATM   30  C   UNL     1      -8.261   8.400  70.450  1.00  0.00    -0.115 A  
HETATM   31 CL   UNL     1      -8.844   9.731  69.509  1.00  0.00    -0.184 Cl 
HETATM   32  C   UNL     1      -7.520   8.717  71.597  1.00  0.00    -0.121 A  
HETATM   33  C   UNL     1      -6.993   7.706  72.393  1.00  0.00    -0.071 A  
HETATM   34  C   UNL     1      -7.180   6.377  72.027  1.00  0.00    -0.090 A  
HETATM   35  C   UNL     1      -7.920   6.058  70.881  1.00  0.00    -0.115 A  
HETATM   36 CL   UNL     1      -8.068   4.377  70.493  1.00  0.00    -0.066 Cl 
ENDBRANCH  28  29
ENDBRANCH  27  28
ENDBRANCH  26  27
ENDBRANCH  25  26
ENDBRANCH  24  25
ENDBRANCH  23  24
ENDBRANCH  22  23
ENDBRANCH  21  22
ENDBRANCH  20  21
ENDBRANCH  19  20
ENDBRANCH  18  19
ENDBRANCH  16  18
ENDBRANCH  15  16
ENDBRANCH  12  15
ENDBRANCH  10  12
ENDBRANCH   2   4
TORSDOF 16
ENDMDL
MODEL      306
REMARK 921   NORMALIZED FREE ENERGY PREDICTED BY IDOCK:   -4.08 KCAL/MOL
REMARK 922        TOTAL FREE ENERGY PREDICTED BY IDOCK:   -9.97 KCAL/MOL
REMARK 923 INTER-LIGAND FREE ENERGY PREDICTED BY IDOCK:   -8.65 KCAL/MOL
REMARK 924 INTRA-LIGAND FREE ENERGY PREDICTED BY IDOCK:   -1.32 KCAL/MOL
REMARK 927      BINDING AFFINITY PREDICTED BY RF-SCORE:    0.00 PKD
ROOT
HETATM    1  O   UNL     1      -8.711   3.599  69.024  1.00  0.00    -0.080 OA 
HETATM    2  C   UNL     1      -9.838   4.412  69.355  1.00  0.00    -0.168 C  
HETATM    3  H   UNL     1      -8.580   3.565  68.084  1.00  0.00     0.000 HD 
ENDROOT
BRANCH   2   4
HETATM    4  C   UNL     1     -10.047   4.465  70.846  1.00  0.00    -0.199 A  
HETATM    5  C   UNL     1     -10.079   3.327  71.660  1.00  0.00    -0.017 A  
HETATM    6  O   UNL     1      -9.848   2.076  71.160  1.00  0.00    -0.136 OA 
HETATM    7  C   UNL     1     -10.346   3.416  73.023  1.00  0.00    -0.247 A  
HETATM    8  C   UNL     1     -10.580   4.659  73.605  1.00  0.00    -0.313 A  
HETATM    9  H   UNL     1      -9.869   1.303  71.712  1.00  0.00     0.000 HD 
HETATM   10  C   UNL     1     -10.555   5.824  72.826  1.00  0.00    -0.262 A  
HETATM   11  C   UNL     1     -10.301   5.710  71.448  1.00  0.00    -0.287 A  
BRANCH  10  12
HETATM   12  C   UNL     1     -10.879   7.159  73.464  1.00  0.00    -0.255 C  
HETATM   13  O   UNL     1      -9.697   7.733  74.039  1.00  0.00    -0.363 OA 
HETATM   14  H   UNL     1      -9.900   8.571  74.439  1.00  0.00     0.000 HD 
BRANCH  12  15
HETATM   15  C   UNL     1     -11.467   8.126  72.415  1.00  0.00    -0.397 C  
BRANCH  15  16
HETATM   16  N   UNL     1     -12.926   8.258  72.567  1.00  0.00    -0.588 NA 
HETATM   17  H   UNL     1     -13.195   8.440  73.534  1.00  0.00     0.000 HD 
BRANCH  16  18
HETATM   18  C   UNL     1     -13.435   9.281  71.659  1.00  0.00    -0.398 C  
BRANCH  18  19
HETATM   19  C   UNL     1     -13.074  10.670  72.177  1.00  0.00    -0.382 C  
BRANCH  19  20
HETATM   20  C   UNL     1     -12.689  11.583  71.013  1.00  0.00    -0.426 C  
BRANCH  20  21
HETATM   21  C   UNL     1     -12.292  10.770  69.786  1.00  0.00    -0.305 C  
BRANCH  21  22
HETATM   22  C   UNL     1     -11.637  11.653  68.729  1.00  0.00    -0.374 C  
BRANCH  22  23
HETATM   23  C   UNL     1     -11.190  10.821  67.538  1.00  0.00    -0.274 C  
BRANCH  23  24
HETATM   24  O   UNL     1     -11.392  11.576  66.348  1.00  0.00    -0.313 OA 
BRANCH  24  25
HETATM   25  C   UNL     1     -11.513  12.965  66.648  1.00  0.00    -0.343 C  
BRANCH  25  26
HETATM   26  C   UNL     1     -10.819  13.783  65.571  1.00  0.00    -0.299 C  
BRANCH  26  27
HETATM   27  O   UNL     1      -9.554  14.220  66.068  1.00  0.00    -0.295 OA 
BRANCH  27  28
HETATM   28  C   UNL     1      -9.590  14.415  67.475  1.00  0.00    -0.215 C  
BRANCH  28  29
HETATM   29  C   UNL     1      -9.691  15.890  67.755  1.00  0.00    -0.220 A  
HETATM   30  C   UNL     1      -8.721  16.792  67.285  1.00  0.00    -0.199 A  
HETATM   31 CL   UNL     1      -7.319  16.269  66.416  1.00  0.00    -0.113 Cl 
HETATM   32  C   UNL     1      -8.848  18.170  67.504  1.00  0.00    -0.256 A  
HETATM   33  C   UNL     1      -9.933  18.669  68.218  1.00  0.00    -0.424 A  
HETATM   34  C   UNL     1     -10.876  17.789  68.738  1.00  0.00     0.170 A  
HETATM   35  C   UNL     1     -10.751  16.411  68.520  1.00  0.00    -0.320 A  
HETATM   36 CL   UNL     1     -11.958  15.397  69.235  1.00  0.00    -0.351 Cl 
ENDBRANCH  28  29
ENDBRANCH  27  28
ENDBRANCH  26  27
ENDBRANCH  25  26
ENDBRANCH  24  25
ENDBRANCH  23  24
ENDBRANCH  22  23
ENDBRANCH  21  22
ENDBRANCH  20  21
ENDBRANCH  19  20
ENDBRANCH  18  19
ENDBRANCH  16  18
ENDBRANCH  15  16
ENDBRANCH  12  15
ENDBRANCH  10  12
ENDBRANCH   2   4
TORSDOF 16
ENDMDL
MODEL      307
REMARK 921   NORMALIZED FREE ENERGY PREDICTED BY IDOCK:   -4.08 KCAL/MOL
REMARK 922        TOTAL FREE ENERGY PREDICTED BY IDOCK:   -9.97 KCAL/MOL
REMARK 923 INTER-LIGAND FREE ENERGY PREDICTED BY IDOCK:   -8.74 KCAL/MOL
REMARK 924 INTRA-LIGAND FREE ENERGY PREDICTED BY IDOCK:   -1.23 KCAL/MOL
REMARK 927      BINDING AFFINITY PREDICTED BY RF-SCORE:    0.00 PKD
ROOT
HETATM    1  O   UNL     1      -7.441  19.085  69.114  1.00  0.00    -0.314 OA 
HETATM    2  C   UNL     1      -7.542  18.127  68.061  1.00  0.00    -0.242 C  
HETATM    3  H   UNL     1      -6.721  18.876  69.698  1.00  0.00     0.000 HD 
ENDROOT
BRANCH   2   4
HETATM    4  C   UNL     1      -8.683  18.460  67.135  1.00  0.00    -0.260 A  
HETATM    5  C   UNL     1      -9.054  19.770  66.811  1.00  0.00    -0.361 A  
HETATM    6  O   UNL     1      -8.350  20.851  67.262  1.00  0.00    -0.510 OA 
HETATM    7  C   UNL     1     -10.160  20.034  66.009  1.00  0.00    -0.559 A  
HETATM    8  C   UNL     1     -10.919  18.982  65.503  1.00  0.00     0.117 A  
HETATM    9  H   UNL     1      -8.601  21.740  67.042  1.00  0.00     0.000 HD 
HETATM   10  C   UNL     1     -10.581  17.654  65.802  1.00  0.00    -0.177 A  
HETATM   11  C   UNL     1      -9.470  17.410  66.630  1.00  0.00    -0.285 A  
BRANCH  10  12
HETATM   12  C   UNL     1     -11.458  16.527  65.300  1.00  0.00     0.395 C  
HETATM   13  O   UNL     1     -11.611  16.615  63.877  1.00  0.00    -1.582 OA 
HETATM   14  H   UNL     1     -12.161  15.907  63.562  1.00  0.00     0.000 HD 
BRANCH  12  15
HETATM   15  C   UNL     1     -10.841  15.162  65.671  1.00  0.00    -0.360 C  
BRANCH  15  16
HETATM   16  N   UNL     1     -10.083  14.592  64.545  1.00  0.00    -0.536 NA 
HETATM   17  H   UNL     1      -9.083  14.776  64.626  1.00  0.00     0.000 HD 
BRANCH  16  18
HETATM   18  C   UNL     1     -10.366  13.167  64.418  1.00  0.00    -0.368 C  
BRANCH  18  19
HETATM   19  C   UNL     1     -10.855  12.607  65.751  1.00  0.00    -0.304 C  
BRANCH  19  20
HETATM   20  C   UNL     1     -10.852  11.079  65.714  1.00  0.00    -0.167 C  
BRANCH  20  21
HETATM   21  C   UNL     1     -10.603  10.495  67.099  1.00  0.00    -0.319 C  
BRANCH  21  22
HETATM   22  C   UNL     1     -10.192   9.029  67.014  1.00  0.00    -0.336 C  
BRANCH  22  23
HETATM   23  C   UNL     1      -9.060   8.847  66.017  1.00  0.00    -0.214 C  
BRANCH  23  24
HETATM   24  O   UNL     1      -7.852   9.322  66.603  1.00  0.00    -0.102 OA 
BRANCH  24  25
HETATM   25  C   UNL     1      -7.484   8.518  67.722  1.00  0.00    -0.097 C  
BRANCH  25  26
HETATM   26  C   UNL     1      -7.171   9.409  68.912  1.00  0.00    -0.072 C  
BRANCH  26  27
HETATM   27  O   UNL     1      -7.089   8.599  70.085  1.00  0.00    -0.041 OA 
BRANCH  27  28
HETATM   28  C   UNL     1      -8.058   8.983  71.049  1.00  0.00    -0.159 C  
BRANCH  28  29
HETATM   29  C   UNL     1      -9.246   8.067  70.930  1.00  0.00    -0.163 A  
HETATM   30  C   UNL     1      -9.102   6.670  71.003  1.00  0.00    -0.156 A  
HETATM   31 CL   UNL     1      -7.557   5.908  71.165  1.00  0.00    -0.097 Cl 
HETATM   32  C   UNL     1     -10.219   5.825  70.943  1.00  0.00    -0.275 A  
HETATM   33  C   UNL     1     -11.494   6.357  70.785  1.00  0.00    -0.415 A  
HETATM   34  C   UNL     1     -11.652   7.733  70.657  1.00  0.00    -0.233 A  
HETATM   35  C   UNL     1     -10.538   8.580  70.717  1.00  0.00    -0.206 A  
HETATM   36 CL   UNL     1     -10.836  10.273  70.515  1.00  0.00    -0.340 Cl 
ENDBRANCH  28  29
ENDBRANCH  27  28
ENDBRANCH  26  27
ENDBRANCH  25  26
ENDBRANCH  24  25
ENDBRANCH  23  24
ENDBRANCH  22  23
ENDBRANCH  21  22
ENDBRANCH  20  21
ENDBRANCH  19  20
ENDBRANCH  18  19
ENDBRANCH  16  18
ENDBRANCH  15  16
ENDBRANCH  12  15
ENDBRANCH  10  12
ENDBRANCH   2   4
TORSDOF 16
ENDMDL
MODEL      308
REMARK 921   NORMALIZED FREE ENERGY PREDICTED BY IDOCK:   -4.07 KCAL/MOL
REMARK 922        TOTAL FREE ENERGY PREDICTED BY IDOCK:   -9.96 KCAL/MOL
REMARK 923 INTER-LIGAND FREE ENERGY PREDICTED BY IDOCK:   -7.73 KCAL/MOL
REMARK 924 INTRA-LIGAND FREE ENERGY PREDICTED BY IDOCK:   -2.23 KCAL/MOL
REMARK 927      BINDING AFFINITY PREDICTED BY RF-SCORE:    0.00 PKD
ROOT
HETATM    1  O   UNL     1      -8.546  19.365  67.535  1.00  0.00    -0.289 OA 
HETATM    2  C   UNL     1      -9.079  18.627  66.435  1.00  0.00    -0.284 C  
HETATM    3  H   UNL     1      -8.030  20.103  67.232  1.00  0.00     0.000 HD 
ENDROOT
BRANCH   2   4
HETATM    4  C   UNL     1      -9.898  17.457  66.915  1.00  0.00    -0.289 A  
HETATM    5  C   UNL     1     -10.387  17.345  68.222  1.00  0.00    -0.374 A  
HETATM    6  O   UNL     1     -10.216  18.339  69.144  1.00  0.00    -0.433 OA 
HETATM    7  C   UNL     1     -11.078  16.213  68.644  1.00  0.00    -0.356 A  
HETATM    8  C   UNL     1     -11.302  15.164  67.755  1.00  0.00    -0.335 A  
HETATM    9  H   UNL     1     -10.548  18.263  70.030  1.00  0.00     0.000 HD 
HETATM   10  C   UNL     1     -10.830  15.237  66.437  1.00  0.00    -0.317 A  
HETATM   11  C   UNL     1     -10.118  16.381  66.036  1.00  0.00    -0.373 A  
BRANCH  10  12
HETATM   12  C   UNL     1     -11.023  14.058  65.506  1.00  0.00    -0.309 C  
HETATM   13  O   UNL     1     -10.358  14.298  64.259  1.00  0.00    -0.533 OA 
HETATM   14  H   UNL     1     -10.478  13.558  63.675  1.00  0.00     0.000 HD 
BRANCH  12  15
HETATM   15  C   UNL     1     -10.468  12.770  66.150  1.00  0.00    -0.267 C  
BRANCH  15  16
HETATM   16  N   UNL     1     -11.549  11.823  66.473  1.00  0.00    -0.511 NA 
HETATM   17  H   UNL     1     -11.599  11.057  65.801  1.00  0.00     0.000 HD 
BRANCH  16  18
HETATM   18  C   UNL     1     -11.400  11.339  67.841  1.00  0.00    -0.299 C  
BRANCH  18  19
HETATM   19  C   UNL     1      -9.930  11.362  68.250  1.00  0.00    -0.203 C  
BRANCH  19  20
HETATM   20  C   UNL     1      -9.741  10.629  69.578  1.00  0.00    -0.085 C  
BRANCH  20  21
HETATM   21  C   UNL     1      -8.310  10.127  69.731  1.00  0.00    -0.154 C  
BRANCH  21  22
HETATM   22  C   UNL     1      -8.272   8.780  70.446  1.00  0.00    -0.127 C  
BRANCH  22  23
HETATM   23  C   UNL     1      -9.505   8.601  71.316  1.00  0.00    -0.224 C  
BRANCH  23  24
HETATM   24  O   UNL     1     -10.001   7.278  71.142  1.00  0.00    -0.186 OA 
BRANCH  24  25
HETATM   25  C   UNL     1     -11.213   7.289  70.391  1.00  0.00    -0.276 C  
BRANCH  25  26
HETATM   26  C   UNL     1     -11.001   6.580  69.064  1.00  0.00    -0.321 C  
BRANCH  26  27
HETATM   27  O   UNL     1     -10.890   7.559  68.031  1.00  0.00    -0.144 OA 
BRANCH  27  28
HETATM   28  C   UNL     1     -10.269   7.021  66.872  1.00  0.00    -0.248 C  
BRANCH  28  29
HETATM   29  C   UNL     1      -8.899   7.627  66.734  1.00  0.00    -0.150 A  
HETATM   30  C   UNL     1      -8.684   8.778  65.957  1.00  0.00    -0.167 A  
HETATM   31 CL   UNL     1      -9.953   9.536  65.057  1.00  0.00    -0.058 Cl 
HETATM   32  C   UNL     1      -7.415   9.368  65.874  1.00  0.00    -0.099 A  
HETATM   33  C   UNL     1      -6.335   8.804  66.545  1.00  0.00    -0.062 A  
HETATM   34  C   UNL     1      -6.515   7.635  67.275  1.00  0.00    -0.058 A  
HETATM   35  C   UNL     1      -7.782   7.044  67.360  1.00  0.00    -0.110 A  
HETATM   36 CL   UNL     1      -7.896   5.574  68.267  1.00  0.00    -0.088 Cl 
ENDBRANCH  28  29
ENDBRANCH  27  28
ENDBRANCH  26  27
ENDBRANCH  25  26
ENDBRANCH  24  25
ENDBRANCH  23  24
ENDBRANCH  22  23
ENDBRANCH  21  22
ENDBRANCH  20  21
ENDBRANCH  19  20
ENDBRANCH  18  19
ENDBRANCH  16  18
ENDBRANCH  15  16
ENDBRANCH  12  15
ENDBRANCH  10  12
ENDBRANCH   2   4
TORSDOF 16
ENDMDL
MODEL      309
REMARK 921   NORMALIZED FREE ENERGY PREDICTED BY IDOCK:   -4.07 KCAL/MOL
REMARK 922        TOTAL FREE ENERGY PREDICTED BY IDOCK:   -9.95 KCAL/MOL
REMARK 923 INTER-LIGAND FREE ENERGY PREDICTED BY IDOCK:   -8.23 KCAL/MOL
REMARK 924 INTRA-LIGAND FREE ENERGY PREDICTED BY IDOCK:   -1.73 KCAL/MOL
REMARK 927      BINDING AFFINITY PREDICTED BY RF-SCORE:    0.00 PKD
ROOT
HETATM    1  O   UNL     1      -9.713   9.344  64.759  1.00  0.00    -0.428 OA 
HETATM    2  C   UNL     1      -8.309   9.474  64.984  1.00  0.00    -0.143 C  
HETATM    3  H   UNL     1      -9.981   9.831  63.989  1.00  0.00     0.000 HD 
ENDROOT
BRANCH   2   4
HETATM    4  C   UNL     1      -7.884   8.701  66.206  1.00  0.00    -0.102 A  
HETATM    5  C   UNL     1      -7.434   7.377  66.161  1.00  0.00    -0.083 A  
HETATM    6  O   UNL     1      -7.278   6.708  64.979  1.00  0.00    -0.067 OA 
HETATM    7  C   UNL     1      -7.119   6.676  67.322  1.00  0.00    -0.080 A  
HETATM    8  C   UNL     1      -7.242   7.297  68.562  1.00  0.00    -0.094 A  
HETATM    9  H   UNL     1      -6.972   5.809  64.948  1.00  0.00     0.000 HD 
HETATM   10  C   UNL     1      -7.688   8.623  68.652  1.00  0.00    -0.099 A  
HETATM   11  C   UNL     1      -8.018   9.307  67.468  1.00  0.00    -0.099 A  
BRANCH  10  12
HETATM   12  C   UNL     1      -7.881   9.258  70.013  1.00  0.00    -0.116 C  
HETATM   13  O   UNL     1      -8.504  10.543  69.876  1.00  0.00    -0.380 OA 
HETATM   14  H   UNL     1      -8.626  10.941  70.730  1.00  0.00     0.000 HD 
BRANCH  12  15
HETATM   15  C   UNL     1      -8.752   8.353  70.909  1.00  0.00    -0.154 C  
BRANCH  15  16
HETATM   16  N   UNL     1      -8.487   8.597  72.336  1.00  0.00    -0.388 NA 
HETATM   17  H   UNL     1      -8.413   9.592  72.547  1.00  0.00     0.000 HD 
BRANCH  16  18
HETATM   18  C   UNL     1      -9.500   7.941  73.155  1.00  0.00    -0.278 C  
BRANCH  18  19
HETATM   19  C   UNL     1     -10.667   7.485  72.282  1.00  0.00    -0.294 C  
BRANCH  19  20
HETATM   20  C   UNL     1     -11.949   8.203  72.701  1.00  0.00    -0.353 C  
BRANCH  20  21
HETATM   21  C   UNL     1     -12.843   8.478  71.497  1.00  0.00    -0.335 C  
BRANCH  21  22
HETATM   22  C   UNL     1     -13.161   9.965  71.374  1.00  0.00    -0.487 C  
BRANCH  22  23
HETATM   23  C   UNL     1     -12.005  10.708  70.723  1.00  0.00    -0.374 C  
BRANCH  23  24
HETATM   24  O   UNL     1     -11.593   9.990  69.565  1.00  0.00    -0.173 OA 
BRANCH  24  25
HETATM   25  C   UNL     1     -11.515  10.857  68.436  1.00  0.00    -0.304 C  
BRANCH  25  26
HETATM   26  C   UNL     1     -11.878  12.273  68.852  1.00  0.00    -0.303 C  
BRANCH  26  27
HETATM   27  O   UNL     1     -11.226  13.192  67.975  1.00  0.00    -0.251 OA 
BRANCH  27  28
HETATM   28  C   UNL     1     -11.992  14.377  67.804  1.00  0.00    -0.333 C  
BRANCH  28  29
HETATM   29  C   UNL     1     -11.053  15.550  67.721  1.00  0.00    -0.315 A  
HETATM   30  C   UNL     1     -10.555  16.002  66.487  1.00  0.00    -0.284 A  
HETATM   31 CL   UNL     1     -10.929  15.209  64.994  1.00  0.00    -0.417 Cl 
HETATM   32  C   UNL     1      -9.723  17.127  66.411  1.00  0.00    -0.307 A  
HETATM   33  C   UNL     1      -9.353  17.804  67.568  1.00  0.00    -0.245 A  
HETATM   34  C   UNL     1      -9.791  17.341  68.804  1.00  0.00    -0.306 A  
HETATM   35  C   UNL     1     -10.623  16.217  68.883  1.00  0.00    -0.284 A  
HETATM   36 CL   UNL     1     -11.087  15.702  70.468  1.00  0.00    -0.347 Cl 
ENDBRANCH  28  29
ENDBRANCH  27  28
ENDBRANCH  26  27
ENDBRANCH  25  26
ENDBRANCH  24  25
ENDBRANCH  23  24
ENDBRANCH  22  23
ENDBRANCH  21  22
ENDBRANCH  20  21
ENDBRANCH  19  20
ENDBRANCH  18  19
ENDBRANCH  16  18
ENDBRANCH  15  16
ENDBRANCH  12  15
ENDBRANCH  10  12
ENDBRANCH   2   4
TORSDOF 16
ENDMDL
MODEL      310
REMARK 921   NORMALIZED FREE ENERGY PREDICTED BY IDOCK:   -4.06 KCAL/MOL
REMARK 922        TOTAL FREE ENERGY PREDICTED BY IDOCK:   -9.94 KCAL/MOL
REMARK 923 INTER-LIGAND FREE ENERGY PREDICTED BY IDOCK:   -8.81 KCAL/MOL
REMARK 924 INTRA-LIGAND FREE ENERGY PREDICTED BY IDOCK:   -1.12 KCAL/MOL
REMARK 927      BINDING AFFINITY PREDICTED BY RF-SCORE:    0.00 PKD
ROOT
HETATM    1  O   UNL     1      -6.973  18.778  68.561  1.00  0.00    -0.247 OA 
HETATM    2  C   UNL     1      -7.064  18.285  67.223  1.00  0.00    -0.199 C  
HETATM    3  H   UNL     1      -6.116  18.602  68.931  1.00  0.00     0.000 HD 
ENDROOT
BRANCH   2   4
HETATM    4  C   UNL     1      -8.424  18.564  66.636  1.00  0.00    -0.288 A  
HETATM    5  C   UNL     1      -9.005  19.837  66.611  1.00  0.00    -0.368 A  
HETATM    6  O   UNL     1      -8.338  20.943  67.058  1.00  0.00    -0.567 OA 
HETATM    7  C   UNL     1     -10.293  20.038  66.124  1.00  0.00    -0.570 A  
HETATM    8  C   UNL     1     -11.029  18.958  65.640  1.00  0.00     0.060 A  
HETATM    9  H   UNL     1      -8.732  21.807  67.041  1.00  0.00     0.000 HD 
HETATM   10  C   UNL     1     -10.483  17.667  65.646  1.00  0.00    -0.150 A  
HETATM   11  C   UNL     1      -9.187  17.483  66.159  1.00  0.00    -0.162 A  
BRANCH  10  12
HETATM   12  C   UNL     1     -11.324  16.497  65.180  1.00  0.00     0.113 C  
HETATM   13  O   UNL     1     -11.388  16.472  63.748  1.00  0.00    -1.553 OA 
HETATM   14  H   UNL     1     -11.915  15.738  63.455  1.00  0.00     0.000 HD 
BRANCH  12  15
HETATM   15  C   UNL     1     -10.727  15.170  65.695  1.00  0.00    -0.363 C  
BRANCH  15  16
HETATM   16  N   UNL     1     -10.271  14.321  64.581  1.00  0.00    -0.622 NA 
HETATM   17  H   UNL     1      -9.348  14.596  64.245  1.00  0.00     0.000 HD 
BRANCH  16  18
HETATM   18  C   UNL     1     -10.312  12.915  64.972  1.00  0.00    -0.315 C  
BRANCH  18  19
HETATM   19  C   UNL     1     -11.012  12.765  66.320  1.00  0.00    -0.307 C  
BRANCH  19  20
HETATM   20  C   UNL     1     -10.630  11.433  66.965  1.00  0.00    -0.286 C  
BRANCH  20  21
HETATM   21  C   UNL     1     -10.718  11.513  68.484  1.00  0.00    -0.242 C  
BRANCH  21  22
HETATM   22  C   UNL     1     -10.635  10.127  69.116  1.00  0.00    -0.247 C  
BRANCH  22  23
HETATM   23  C   UNL     1      -9.405   9.384  68.618  1.00  0.00    -0.142 C  
BRANCH  23  24
HETATM   24  O   UNL     1      -8.487   9.242  69.696  1.00  0.00    -0.120 OA 
BRANCH  24  25
HETATM   25  C   UNL     1      -8.001   7.904  69.772  1.00  0.00    -0.114 C  
BRANCH  25  26
HETATM   26  C   UNL     1      -8.951   7.061  70.607  1.00  0.00    -0.154 C  
BRANCH  26  27
HETATM   27  O   UNL     1      -8.913   5.715  70.129  1.00  0.00    -0.134 OA 
BRANCH  27  28
HETATM   28  C   UNL     1     -10.182   5.302  69.644  1.00  0.00    -0.278 C  
BRANCH  28  29
HETATM   29  C   UNL     1      -9.996   4.647  68.303  1.00  0.00    -0.130 A  
HETATM   30  C   UNL     1      -9.410   3.374  68.186  1.00  0.00    -0.184 A  
HETATM   31 CL   UNL     1      -8.806   2.507  69.557  1.00  0.00    -0.135 Cl 
HETATM   32  C   UNL     1      -9.285   2.746  66.940  1.00  0.00    -0.141 A  
HETATM   33  C   UNL     1      -9.721   3.388  65.785  1.00  0.00    -0.007 A  
HETATM   34  C   UNL     1     -10.255   4.669  65.872  1.00  0.00    -0.303 A  
HETATM   35  C   UNL     1     -10.380   5.299  67.117  1.00  0.00    -0.216 A  
HETATM   36 CL   UNL     1     -11.026   6.905  67.116  1.00  0.00    -0.445 Cl 
ENDBRANCH  28  29
ENDBRANCH  27  28
ENDBRANCH  26  27
ENDBRANCH  25  26
ENDBRANCH  24  25
ENDBRANCH  23  24
ENDBRANCH  22  23
ENDBRANCH  21  22
ENDBRANCH  20  21
ENDBRANCH  19  20
ENDBRANCH  18  19
ENDBRANCH  16  18
ENDBRANCH  15  16
ENDBRANCH  12  15
ENDBRANCH  10  12
ENDBRANCH   2   4
TORSDOF 16
ENDMDL
MODEL      311
REMARK 921   NORMALIZED FREE ENERGY PREDICTED BY IDOCK:   -4.06 KCAL/MOL
REMARK 922        TOTAL FREE ENERGY PREDICTED BY IDOCK:   -9.93 KCAL/MOL
REMARK 923 INTER-LIGAND FREE ENERGY PREDICTED BY IDOCK:   -7.90 KCAL/MOL
REMARK 924 INTRA-LIGAND FREE ENERGY PREDICTED BY IDOCK:   -2.04 KCAL/MOL
REMARK 927      BINDING AFFINITY PREDICTED BY RF-SCORE:    0.00 PKD
ROOT
HETATM    1  O   UNL     1      -8.841  18.977  67.628  1.00  0.00    -0.284 OA 
HETATM    2  C   UNL     1      -9.363  18.270  66.503  1.00  0.00    -0.302 C  
HETATM    3  H   UNL     1      -8.379  19.761  67.354  1.00  0.00     0.000 HD 
ENDROOT
BRANCH   2   4
HETATM    4  C   UNL     1     -10.095  17.027  66.938  1.00  0.00    -0.298 A  
HETATM    5  C   UNL     1     -10.743  16.908  68.173  1.00  0.00    -0.375 A  
HETATM    6  O   UNL     1     -10.819  17.952  69.051  1.00  0.00    -0.250 OA 
HETATM    7  C   UNL     1     -11.345  15.716  68.565  1.00  0.00    -0.361 A  
HETATM    8  C   UNL     1     -11.319  14.612  67.716  1.00  0.00    -0.338 A  
HETATM    9  H   UNL     1     -11.258  17.872  69.889  1.00  0.00     0.000 HD 
HETATM   10  C   UNL     1     -10.682  14.689  66.470  1.00  0.00    -0.312 A  
HETATM   11  C   UNL     1     -10.063  15.897  66.101  1.00  0.00    -0.334 A  
BRANCH  10  12
HETATM   12  C   UNL     1     -10.603  13.459  65.591  1.00  0.00    -0.282 C  
HETATM   13  O   UNL     1      -9.971  13.780  64.344  1.00  0.00    -0.714 OA 
HETATM   14  H   UNL     1      -9.921  13.008  63.793  1.00  0.00     0.000 HD 
BRANCH  12  15
HETATM   15  C   UNL     1      -9.810  12.342  66.301  1.00  0.00    -0.241 C  
BRANCH  15  16
HETATM   16  N   UNL     1     -10.230  11.009  65.838  1.00  0.00    -0.247 NA 
HETATM   17  H   UNL     1      -9.457  10.487  65.424  1.00  0.00     0.000 HD 
BRANCH  16  18
HETATM   18  C   UNL     1     -10.862  10.274  66.928  1.00  0.00    -0.135 C  
BRANCH  18  19
HETATM   19  C   UNL     1     -10.433  10.857  68.272  1.00  0.00    -0.205 C  
BRANCH  19  20
HETATM   20  C   UNL     1     -10.756   9.875  69.399  1.00  0.00    -0.255 C  
BRANCH  20  21
HETATM   21  C   UNL     1      -9.484   9.359  70.061  1.00  0.00    -0.257 C  
BRANCH  21  22
HETATM   22  C   UNL     1      -9.727   9.008  71.525  1.00  0.00    -0.365 C  
BRANCH  22  23
HETATM   23  C   UNL     1     -11.193   9.194  71.884  1.00  0.00    -0.329 C  
BRANCH  23  24
HETATM   24  O   UNL     1     -11.572   8.177  72.804  1.00  0.00    -0.411 OA 
BRANCH  24  25
HETATM   25  C   UNL     1     -12.405   7.209  72.171  1.00  0.00    -0.191 C  
BRANCH  25  26
HETATM   26  C   UNL     1     -11.706   5.859  72.159  1.00  0.00    -0.227 C  
BRANCH  26  27
HETATM   27  O   UNL     1     -11.180   5.624  70.853  1.00  0.00    -0.199 OA 
BRANCH  27  28
HETATM   28  C   UNL     1     -10.115   4.685  70.885  1.00  0.00    -0.187 C  
BRANCH  28  29
HETATM   29  C   UNL     1      -8.824   5.409  70.616  1.00  0.00    -0.145 A  
HETATM   30  C   UNL     1      -8.463   5.800  69.315  1.00  0.00    -0.108 A  
HETATM   31 CL   UNL     1      -9.435   5.421  67.933  1.00  0.00    -0.126 Cl 
HETATM   32  C   UNL     1      -7.284   6.520  69.077  1.00  0.00    -0.091 A  
HETATM   33  C   UNL     1      -6.434   6.841  70.130  1.00  0.00    -0.040 A  
HETATM   34  C   UNL     1      -6.746   6.417  71.417  1.00  0.00    -0.055 A  
HETATM   35  C   UNL     1      -7.924   5.697  71.658  1.00  0.00    -0.117 A  
HETATM   36 CL   UNL     1      -8.206   5.188  73.288  1.00  0.00    -0.111 Cl 
ENDBRANCH  28  29
ENDBRANCH  27  28
ENDBRANCH  26  27
ENDBRANCH  25  26
ENDBRANCH  24  25
ENDBRANCH  23  24
ENDBRANCH  22  23
ENDBRANCH  21  22
ENDBRANCH  20  21
ENDBRANCH  19  20
ENDBRANCH  18  19
ENDBRANCH  16  18
ENDBRANCH  15  16
ENDBRANCH  12  15
ENDBRANCH  10  12
ENDBRANCH   2   4
TORSDOF 16
ENDMDL
MODEL      312
REMARK 921   NORMALIZED FREE ENERGY PREDICTED BY IDOCK:   -4.06 KCAL/MOL
REMARK 922        TOTAL FREE ENERGY PREDICTED BY IDOCK:   -9.93 KCAL/MOL
REMARK 923 INTER-LIGAND FREE ENERGY PREDICTED BY IDOCK:   -8.48 KCAL/MOL
REMARK 924 INTRA-LIGAND FREE ENERGY PREDICTED BY IDOCK:   -1.45 KCAL/MOL
REMARK 927      BINDING AFFINITY PREDICTED BY RF-SCORE:    0.00 PKD
ROOT
HETATM    1  O   UNL     1     -13.109  16.216  73.531  1.00  0.00    -0.551 OA 
HETATM    2  C   UNL     1     -13.999  15.611  72.593  1.00  0.00    -0.525 C  
HETATM    3  H   UNL     1     -13.561  16.862  74.062  1.00  0.00     0.000 HD 
ENDROOT
BRANCH   2   4
HETATM    4  C   UNL     1     -13.282  14.586  71.752  1.00  0.00    -0.429 A  
HETATM    5  C   UNL     1     -12.376  14.920  70.739  1.00  0.00    -0.329 A  
HETATM    6  O   UNL     1     -12.020  16.216  70.488  1.00  0.00    -0.444 OA 
HETATM    7  C   UNL     1     -11.791  13.945  69.937  1.00  0.00    -0.394 A  
HETATM    8  C   UNL     1     -12.097  12.601  70.142  1.00  0.00    -0.368 A  
HETATM    9  H   UNL     1     -11.405  16.443  69.801  1.00  0.00     0.000 HD 
HETATM   10  C   UNL     1     -12.999  12.224  71.148  1.00  0.00    -0.229 A  
HETATM   11  C   UNL     1     -13.593  13.227  71.934  1.00  0.00    -0.473 A  
BRANCH  10  12
HETATM   12  C   UNL     1     -13.372  10.765  71.310  1.00  0.00    -0.091 C  
HETATM   13  O   UNL     1     -13.504  10.142  70.025  1.00  0.00    -0.423 OA 
HETATM   14  H   UNL     1     -13.737   9.227  70.127  1.00  0.00     0.000 HD 
BRANCH  12  15
HETATM   15  C   UNL     1     -12.299  10.026  72.136  1.00  0.00     0.011 C  
BRANCH  15  16
HETATM   16  N   UNL     1     -12.856   8.829  72.788  1.00  0.00    -0.577 NA 
HETATM   17  H   UNL     1     -13.785   8.600  72.437  1.00  0.00     0.000 HD 
BRANCH  16  18
HETATM   18  C   UNL     1     -11.931   7.708  72.654  1.00  0.00    -0.159 C  
BRANCH  18  19
HETATM   19  C   UNL     1     -10.496   8.182  72.866  1.00  0.00    -0.338 C  
BRANCH  19  20
HETATM   20  C   UNL     1      -9.638   7.038  73.405  1.00  0.00    -0.225 C  
BRANCH  20  21
HETATM   21  C   UNL     1     -10.494   5.998  74.118  1.00  0.00    -0.248 C  
BRANCH  21  22
HETATM   22  C   UNL     1     -10.163   4.588  73.636  1.00  0.00    -0.220 C  
BRANCH  22  23
HETATM   23  C   UNL     1     -10.625   4.391  72.201  1.00  0.00    -0.031 C  
BRANCH  23  24
HETATM   24  O   UNL     1      -9.650   3.619  71.507  1.00  0.00    -0.142 OA 
BRANCH  24  25
HETATM   25  C   UNL     1      -9.485   4.096  70.174  1.00  0.00    -0.184 C  
BRANCH  25  26
HETATM   26  C   UNL     1     -10.407   5.280  69.936  1.00  0.00    -0.304 C  
BRANCH  26  27
HETATM   27  O   UNL     1      -9.797   6.156  68.987  1.00  0.00    -0.134 OA 
BRANCH  27  28
HETATM   28  C   UNL     1     -10.649   6.390  67.875  1.00  0.00    -0.258 C  
BRANCH  28  29
HETATM   29  C   UNL     1      -9.833   6.985  66.760  1.00  0.00    -0.250 A  
HETATM   30  C   UNL     1      -9.878   8.362  66.476  1.00  0.00    -0.268 A  
HETATM   31 CL   UNL     1     -10.914   9.449  67.336  1.00  0.00    -0.189 Cl 
HETATM   32  C   UNL     1      -9.077   8.919  65.469  1.00  0.00    -0.248 A  
HETATM   33  C   UNL     1      -8.237   8.109  64.713  1.00  0.00    -0.137 A  
HETATM   34  C   UNL     1      -8.218   6.737  64.942  1.00  0.00    -0.082 A  
HETATM   35  C   UNL     1      -9.017   6.178  65.947  1.00  0.00    -0.121 A  
HETATM   36 CL   UNL     1      -8.946   4.458  66.132  1.00  0.00    -0.118 Cl 
ENDBRANCH  28  29
ENDBRANCH  27  28
ENDBRANCH  26  27
ENDBRANCH  25  26
ENDBRANCH  24  25
ENDBRANCH  23  24
ENDBRANCH  22  23
ENDBRANCH  21  22
ENDBRANCH  20  21
ENDBRANCH  19  20
ENDBRANCH  18  19
ENDBRANCH  16  18
ENDBRANCH  15  16
ENDBRANCH  12  15
ENDBRANCH  10  12
ENDBRANCH   2   4
TORSDOF 16
ENDMDL
MODEL      313
REMARK 921   NORMALIZED FREE ENERGY PREDICTED BY IDOCK:   -4.06 KCAL/MOL
REMARK 922        TOTAL FREE ENERGY PREDICTED BY IDOCK:   -9.93 KCAL/MOL
REMARK 923 INTER-LIGAND FREE ENERGY PREDICTED BY IDOCK:   -8.69 KCAL/MOL
REMARK 924 INTRA-LIGAND FREE ENERGY PREDICTED BY IDOCK:   -1.24 KCAL/MOL
REMARK 927      BINDING AFFINITY PREDICTED BY RF-SCORE:    0.00 PKD
ROOT
HETATM    1  O   UNL     1     -11.509  16.538  63.998  1.00  0.00    -1.513 OA 
HETATM    2  C   UNL     1     -10.864  15.955  65.130  1.00  0.00    -0.421 C  
HETATM    3  H   UNL     1     -11.193  17.420  63.841  1.00  0.00     0.000 HD 
ENDROOT
BRANCH   2   4
HETATM    4  C   UNL     1     -11.366  14.557  65.378  1.00  0.00    -0.341 A  
HETATM    5  C   UNL     1     -12.086  13.819  64.431  1.00  0.00    -0.436 A  
HETATM    6  O   UNL     1     -12.323  14.296  63.172  1.00  0.00    -1.096 OA 
HETATM    7  C   UNL     1     -12.594  12.557  64.727  1.00  0.00    -0.493 A  
HETATM    8  C   UNL     1     -12.382  12.001  65.986  1.00  0.00     0.604 A  
HETATM    9  H   UNL     1     -12.811  13.796  62.530  1.00  0.00     0.000 HD 
HETATM   10  C   UNL     1     -11.665  12.706  66.963  1.00  0.00    -0.438 A  
HETATM   11  C   UNL     1     -11.176  13.987  66.649  1.00  0.00    -0.330 A  
BRANCH  10  12
HETATM   12  C   UNL     1     -11.504  12.114  68.347  1.00  0.00    -0.304 C  
HETATM   13  O   UNL     1     -12.530  11.142  68.592  1.00  0.00    -0.630 OA 
HETATM   14  H   UNL     1     -12.429  10.770  69.461  1.00  0.00     0.000 HD 
BRANCH  12  15
HETATM   15  C   UNL     1     -10.118  11.450  68.489  1.00  0.00    -0.206 C  
BRANCH  15  16
HETATM   16  N   UNL     1      -9.520  11.171  67.172  1.00  0.00    -0.172 NA 
HETATM   17  H   UNL     1      -8.537  11.439  67.135  1.00  0.00     0.000 HD 
BRANCH  16  18
HETATM   18  C   UNL     1      -9.717   9.769  66.819  1.00  0.00    -0.194 C  
BRANCH  18  19
HETATM   19  C   UNL     1      -9.290   9.527  65.373  1.00  0.00    -0.324 C  
BRANCH  19  20
HETATM   20  C   UNL     1      -8.240   8.418  65.314  1.00  0.00    -0.151 C  
BRANCH  20  21
HETATM   21  C   UNL     1      -6.840   8.972  65.553  1.00  0.00    -0.073 C  
BRANCH  21  22
HETATM   22  C   UNL     1      -5.986   7.989  66.348  1.00  0.00    -0.041 C  
BRANCH  22  23
HETATM   23  C   UNL     1      -5.939   8.384  67.815  1.00  0.00    -0.047 C  
BRANCH  23  24
HETATM   24  O   UNL     1      -6.278   7.250  68.606  1.00  0.00    -0.029 OA 
BRANCH  24  25
HETATM   25  C   UNL     1      -6.600   7.643  69.938  1.00  0.00    -0.041 C  
BRANCH  25  26
HETATM   26  C   UNL     1      -6.444   6.456  70.874  1.00  0.00    -0.049 C  
BRANCH  26  27
HETATM   27  O   UNL     1      -7.659   6.281  71.604  1.00  0.00    -0.093 OA 
BRANCH  27  28
HETATM   28  C   UNL     1      -8.450   5.239  71.051  1.00  0.00    -0.122 C  
BRANCH  28  29
HETATM   29  C   UNL     1      -9.887   5.685  71.026  1.00  0.00    -0.231 A  
HETATM   30  C   UNL     1     -10.707   5.572  72.163  1.00  0.00    -0.231 A  
HETATM   31 CL   UNL     1     -10.148   4.858  73.637  1.00  0.00    -0.184 Cl 
HETATM   32  C   UNL     1     -12.029   6.036  72.149  1.00  0.00    -0.261 A  
HETATM   33  C   UNL     1     -12.563   6.598  70.994  1.00  0.00    -0.151 A  
HETATM   34  C   UNL     1     -11.786   6.670  69.843  1.00  0.00    -0.333 A  
HETATM   35  C   UNL     1     -10.464   6.207  69.854  1.00  0.00    -0.233 A  
HETATM   36 CL   UNL     1      -9.590   6.311  68.364  1.00  0.00    -0.121 Cl 
ENDBRANCH  28  29
ENDBRANCH  27  28
ENDBRANCH  26  27
ENDBRANCH  25  26
ENDBRANCH  24  25
ENDBRANCH  23  24
ENDBRANCH  22  23
ENDBRANCH  21  22
ENDBRANCH  20  21
ENDBRANCH  19  20
ENDBRANCH  18  19
ENDBRANCH  16  18
ENDBRANCH  15  16
ENDBRANCH  12  15
ENDBRANCH  10  12
ENDBRANCH   2   4
TORSDOF 16
ENDMDL
MODEL      314
REMARK 921   NORMALIZED FREE ENERGY PREDICTED BY IDOCK:   -4.05 KCAL/MOL
REMARK 922        TOTAL FREE ENERGY PREDICTED BY IDOCK:   -9.91 KCAL/MOL
REMARK 923 INTER-LIGAND FREE ENERGY PREDICTED BY IDOCK:   -8.45 KCAL/MOL
REMARK 924 INTRA-LIGAND FREE ENERGY PREDICTED BY IDOCK:   -1.46 KCAL/MOL
REMARK 927      BINDING AFFINITY PREDICTED BY RF-SCORE:    0.00 PKD
ROOT
HETATM    1  O   UNL     1      -6.938   4.855  69.333  1.00  0.00    -0.051 OA 
HETATM    2  C   UNL     1      -7.237   3.689  68.563  1.00  0.00    -0.051 C  
HETATM    3  H   UNL     1      -6.442   4.632  70.111  1.00  0.00     0.000 HD 
ENDROOT
BRANCH   2   4
HETATM    4  C   UNL     1      -8.025   4.044  67.329  1.00  0.00    -0.092 A  
HETATM    5  C   UNL     1      -9.121   3.300  66.875  1.00  0.00    -0.172 A  
HETATM    6  O   UNL     1      -9.603   2.228  67.573  1.00  0.00    -0.402 OA 
HETATM    7  C   UNL     1      -9.776   3.621  65.690  1.00  0.00    -0.108 A  
HETATM    8  C   UNL     1      -9.347   4.709  64.932  1.00  0.00    -0.127 A  
HETATM    9  H   UNL     1     -10.347   1.723  67.265  1.00  0.00     0.000 HD 
HETATM   10  C   UNL     1      -8.255   5.480  65.352  1.00  0.00    -0.133 A  
HETATM   11  C   UNL     1      -7.596   5.128  66.543  1.00  0.00    -0.088 A  
BRANCH  10  12
HETATM   12  C   UNL     1      -7.761   6.616  64.480  1.00  0.00    -0.112 C  
HETATM   13  O   UNL     1      -8.456   6.614  63.225  1.00  0.00    -0.336 OA 
HETATM   14  H   UNL     1      -8.147   7.327  62.678  1.00  0.00     0.000 HD 
BRANCH  12  15
HETATM   15  C   UNL     1      -7.977   7.969  65.189  1.00  0.00    -0.127 C  
BRANCH  15  16
HETATM   16  N   UNL     1      -9.098   8.715  64.592  1.00  0.00    -0.382 NA 
HETATM   17  H   UNL     1      -9.992   8.461  65.013  1.00  0.00     0.000 HD 
BRANCH  16  18
HETATM   18  C   UNL     1      -8.846  10.149  64.671  1.00  0.00    -0.196 C  
BRANCH  18  19
HETATM   19  C   UNL     1     -10.064  10.866  65.249  1.00  0.00    -0.340 C  
BRANCH  19  20
HETATM   20  C   UNL     1     -10.847  11.556  64.132  1.00  0.00    -0.435 C  
BRANCH  20  21
HETATM   21  C   UNL     1     -10.611  13.061  64.144  1.00  0.00    -0.421 C  
BRANCH  21  22
HETATM   22  C   UNL     1     -11.908  13.821  64.405  1.00  0.00    -0.458 C  
BRANCH  22  23
HETATM   23  C   UNL     1     -12.464  13.476  65.777  1.00  0.00    -0.462 C  
BRANCH  23  24
HETATM   24  O   UNL     1     -12.262  14.585  66.646  1.00  0.00    -0.379 OA 
BRANCH  24  25
HETATM   25  C   UNL     1     -12.020  14.143  67.980  1.00  0.00    -0.337 C  
BRANCH  25  26
HETATM   26  C   UNL     1     -10.810  13.224  68.003  1.00  0.00    -0.243 C  
BRANCH  26  27
HETATM   27  O   UNL     1     -10.895  12.379  69.150  1.00  0.00    -0.197 OA 
BRANCH  27  28
HETATM   28  C   UNL     1     -11.168  11.034  68.783  1.00  0.00    -0.266 C  
BRANCH  28  29
HETATM   29  C   UNL     1     -10.712  10.129  69.895  1.00  0.00    -0.340 A  
HETATM   30  C   UNL     1      -9.401   9.623  69.935  1.00  0.00    -0.228 A  
HETATM   31 CL   UNL     1      -8.248   9.946  68.685  1.00  0.00    -0.105 Cl 
HETATM   32  C   UNL     1      -8.967   8.822  71.000  1.00  0.00    -0.269 A  
HETATM   33  C   UNL     1      -9.840   8.492  72.031  1.00  0.00    -0.383 A  
HETATM   34  C   UNL     1     -11.157   8.938  71.984  1.00  0.00    -0.421 A  
HETATM   35  C   UNL     1     -11.593   9.739  70.920  1.00  0.00    -0.361 A  
HETATM   36 CL   UNL     1     -13.257  10.216  70.937  1.00  0.00    -0.431 Cl 
ENDBRANCH  28  29
ENDBRANCH  27  28
ENDBRANCH  26  27
ENDBRANCH  25  26
ENDBRANCH  24  25
ENDBRANCH  23  24
ENDBRANCH  22  23
ENDBRANCH  21  22
ENDBRANCH  20  21
ENDBRANCH  19  20
ENDBRANCH  18  19
ENDBRANCH  16  18
ENDBRANCH  15  16
ENDBRANCH  12  15
ENDBRANCH  10  12
ENDBRANCH   2   4
TORSDOF 16
ENDMDL
MODEL      315
REMARK 921   NORMALIZED FREE ENERGY PREDICTED BY IDOCK:   -4.04 KCAL/MOL
REMARK 922        TOTAL FREE ENERGY PREDICTED BY IDOCK:   -9.90 KCAL/MOL
REMARK 923 INTER-LIGAND FREE ENERGY PREDICTED BY IDOCK:   -8.53 KCAL/MOL
REMARK 924 INTRA-LIGAND FREE ENERGY PREDICTED BY IDOCK:   -1.37 KCAL/MOL
REMARK 927      BINDING AFFINITY PREDICTED BY RF-SCORE:    0.00 PKD
ROOT
HETATM    1  O   UNL     1     -10.778  17.518  68.133  1.00  0.00    -0.381 OA 
HETATM    2  C   UNL     1      -9.855  17.342  67.057  1.00  0.00    -0.281 C  
HETATM    3  H   UNL     1     -10.604  18.325  68.602  1.00  0.00     0.000 HD 
ENDROOT
BRANCH   2   4
HETATM    4  C   UNL     1     -10.130  16.061  66.313  1.00  0.00    -0.329 A  
HETATM    5  C   UNL     1     -10.788  16.015  65.078  1.00  0.00    -0.404 A  
HETATM    6  O   UNL     1     -11.166  17.151  64.419  1.00  0.00    -1.143 OA 
HETATM    7  C   UNL     1     -11.086  14.805  64.459  1.00  0.00    -0.260 A  
HETATM    8  C   UNL     1     -10.720  13.605  65.066  1.00  0.00    -0.374 A  
HETATM    9  H   UNL     1     -11.612  17.120  63.582  1.00  0.00     0.000 HD 
HETATM   10  C   UNL     1     -10.059  13.607  66.301  1.00  0.00    -0.301 A  
HETATM   11  C   UNL     1      -9.783  14.841  66.919  1.00  0.00    -0.247 A  
BRANCH  10  12
HETATM   12  C   UNL     1      -9.731  12.293  66.978  1.00  0.00    -0.205 C  
HETATM   13  O   UNL     1      -8.877  12.517  68.108  1.00  0.00    -0.182 OA 
HETATM   14  H   UNL     1      -8.671  11.692  68.532  1.00  0.00     0.000 HD 
BRANCH  12  15
HETATM   15  C   UNL     1     -11.025  11.589  67.438  1.00  0.00    -0.265 C  
BRANCH  15  16
HETATM   16  N   UNL     1     -10.964  11.236  68.867  1.00  0.00    -0.208 NA 
HETATM   17  H   UNL     1     -10.561  11.987  69.428  1.00  0.00     0.000 HD 
BRANCH  16  18
HETATM   18  C   UNL     1     -12.286  10.847  69.345  1.00  0.00    -0.222 C  
BRANCH  18  19
HETATM   19  C   UNL     1     -12.420  11.162  70.832  1.00  0.00    -0.509 C  
BRANCH  19  20
HETATM   20  C   UNL     1     -12.029   9.942  71.666  1.00  0.00    -0.427 C  
BRANCH  20  21
HETATM   21  C   UNL     1     -13.238   9.356  72.385  1.00  0.00    -0.483 C  
BRANCH  21  22
HETATM   22  C   UNL     1     -13.813   8.169  71.618  1.00  0.00    -0.434 C  
BRANCH  22  23
HETATM   23  C   UNL     1     -12.719   7.169  71.281  1.00  0.00    -0.366 C  
BRANCH  23  24
HETATM   24  O   UNL     1     -12.577   6.261  72.368  1.00  0.00    -0.125 OA 
BRANCH  24  25
HETATM   25  C   UNL     1     -11.257   5.724  72.406  1.00  0.00    -0.290 C  
BRANCH  25  26
HETATM   26  C   UNL     1     -10.255   6.842  72.641  1.00  0.00    -0.186 C  
BRANCH  26  27
HETATM   27  O   UNL     1      -9.062   6.553  71.910  1.00  0.00    -0.148 OA 
BRANCH  27  28
HETATM   28  C   UNL     1      -9.314   5.645  70.847  1.00  0.00    -0.160 C  
BRANCH  28  29
HETATM   29  C   UNL     1      -8.215   5.780  69.828  1.00  0.00    -0.108 A  
HETATM   30  C   UNL     1      -8.142   6.896  68.976  1.00  0.00    -0.117 A  
HETATM   31 CL   UNL     1      -9.335   8.150  68.991  1.00  0.00    -0.148 Cl 
HETATM   32  C   UNL     1      -7.088   7.042  68.064  1.00  0.00    -0.086 A  
HETATM   33  C   UNL     1      -6.102   6.065  67.969  1.00  0.00    -0.021 A  
HETATM   34  C   UNL     1      -6.185   4.927  68.765  1.00  0.00    -0.031 A  
HETATM   35  C   UNL     1      -7.238   4.780  69.678  1.00  0.00    -0.055 A  
HETATM   36 CL   UNL     1      -7.270   3.315  70.599  1.00  0.00    -0.033 Cl 
ENDBRANCH  28  29
ENDBRANCH  27  28
ENDBRANCH  26  27
ENDBRANCH  25  26
ENDBRANCH  24  25
ENDBRANCH  23  24
ENDBRANCH  22  23
ENDBRANCH  21  22
ENDBRANCH  20  21
ENDBRANCH  19  20
ENDBRANCH  18  19
ENDBRANCH  16  18
ENDBRANCH  15  16
ENDBRANCH  12  15
ENDBRANCH  10  12
ENDBRANCH   2   4
TORSDOF 16
ENDMDL
MODEL      316
REMARK 921   NORMALIZED FREE ENERGY PREDICTED BY IDOCK:   -4.04 KCAL/MOL
REMARK 922        TOTAL FREE ENERGY PREDICTED BY IDOCK:   -9.89 KCAL/MOL
REMARK 923 INTER-LIGAND FREE ENERGY PREDICTED BY IDOCK:   -8.62 KCAL/MOL
REMARK 924 INTRA-LIGAND FREE ENERGY PREDICTED BY IDOCK:   -1.28 KCAL/MOL
REMARK 927      BINDING AFFINITY PREDICTED BY RF-SCORE:    0.00 PKD
ROOT
HETATM    1  O   UNL     1     -13.671   9.348  70.916  1.00  0.00    -0.584 OA 
HETATM    2  C   UNL     1     -12.496   9.818  71.577  1.00  0.00    -0.403 C  
HETATM    3  H   UNL     1     -14.386   9.235  71.531  1.00  0.00     0.000 HD 
ENDROOT
BRANCH   2   4
HETATM    4  C   UNL     1     -11.362   9.996  70.601  1.00  0.00    -0.425 A  
HETATM    5  C   UNL     1     -11.546  10.394  69.272  1.00  0.00    -0.176 A  
HETATM    6  O   UNL     1     -12.779  10.723  68.782  1.00  0.00    -0.572 OA 
HETATM    7  C   UNL     1     -10.478  10.477  68.384  1.00  0.00    -0.212 A  
HETATM    8  C   UNL     1      -9.190  10.168  68.816  1.00  0.00    -0.164 A  
HETATM    9  H   UNL     1     -12.904  10.993  67.880  1.00  0.00     0.000 HD 
HETATM   10  C   UNL     1      -8.962   9.767  70.140  1.00  0.00    -0.235 A  
HETATM   11  C   UNL     1     -10.058   9.673  71.016  1.00  0.00    -0.200 A  
BRANCH  10  12
HETATM   12  C   UNL     1      -7.566   9.370  70.572  1.00  0.00    -0.150 C  
HETATM   13  O   UNL     1      -7.265   8.044  70.115  1.00  0.00    -0.055 OA 
HETATM   14  H   UNL     1      -6.389   7.794  70.386  1.00  0.00     0.000 HD 
BRANCH  12  15
HETATM   15  C   UNL     1      -6.527  10.360  70.006  1.00  0.00    -0.126 C  
BRANCH  15  16
HETATM   16  N   UNL     1      -6.623  11.673  70.665  1.00  0.00    -0.380 NA 
HETATM   17  H   UNL     1      -6.992  11.598  71.614  1.00  0.00     0.000 HD 
BRANCH  16  18
HETATM   18  C   UNL     1      -5.329  12.347  70.636  1.00  0.00    -0.157 C  
BRANCH  18  19
HETATM   19  C   UNL     1      -5.492  13.815  71.018  1.00  0.00    -0.188 C  
BRANCH  19  20
HETATM   20  C   UNL     1      -6.296  14.552  69.946  1.00  0.00    -0.157 C  
BRANCH  20  21
HETATM   21  C   UNL     1      -5.748  15.956  69.717  1.00  0.00    -0.140 C  
BRANCH  21  22
HETATM   22  C   UNL     1      -5.936  16.390  68.266  1.00  0.00    -0.108 C  
BRANCH  22  23
HETATM   23  C   UNL     1      -6.158  17.892  68.182  1.00  0.00    -0.174 C  
BRANCH  23  24
HETATM   24  O   UNL     1      -7.069  18.279  69.205  1.00  0.00    -0.260 OA 
BRANCH  24  25
HETATM   25  C   UNL     1      -7.878  19.371  68.773  1.00  0.00    -0.357 C  
BRANCH  25  26
HETATM   26  C   UNL     1      -8.654  18.973  67.528  1.00  0.00    -0.286 C  
BRANCH  26  27
HETATM   27  O   UNL     1      -9.826  18.261  67.924  1.00  0.00    -0.293 OA 
BRANCH  27  28
HETATM   28  C   UNL     1      -9.516  17.217  68.835  1.00  0.00    -0.217 C  
BRANCH  28  29
HETATM   29  C   UNL     1     -10.312  15.997  68.460  1.00  0.00    -0.241 A  
HETATM   30  C   UNL     1     -11.303  15.480  69.313  1.00  0.00    -0.325 A  
HETATM   31 CL   UNL     1     -11.629  16.163  70.870  1.00  0.00    -0.434 Cl 
HETATM   32  C   UNL     1     -12.078  14.375  68.936  1.00  0.00    -0.288 A  
HETATM   33  C   UNL     1     -11.860  13.751  67.713  1.00  0.00    -0.404 A  
HETATM   34  C   UNL     1     -10.848  14.212  66.877  1.00  0.00    -0.296 A  
HETATM   35  C   UNL     1     -10.073  15.318  67.252  1.00  0.00    -0.236 A  
HETATM   36 CL   UNL     1      -8.819  15.795  66.158  1.00  0.00    -0.373 Cl 
ENDBRANCH  28  29
ENDBRANCH  27  28
ENDBRANCH  26  27
ENDBRANCH  25  26
ENDBRANCH  24  25
ENDBRANCH  23  24
ENDBRANCH  22  23
ENDBRANCH  21  22
ENDBRANCH  20  21
ENDBRANCH  19  20
ENDBRANCH  18  19
ENDBRANCH  16  18
ENDBRANCH  15  16
ENDBRANCH  12  15
ENDBRANCH  10  12
ENDBRANCH   2   4
TORSDOF 16
ENDMDL
MODEL      317
REMARK 921   NORMALIZED FREE ENERGY PREDICTED BY IDOCK:   -4.03 KCAL/MOL
REMARK 922        TOTAL FREE ENERGY PREDICTED BY IDOCK:   -9.87 KCAL/MOL
REMARK 923 INTER-LIGAND FREE ENERGY PREDICTED BY IDOCK:   -9.41 KCAL/MOL
REMARK 924 INTRA-LIGAND FREE ENERGY PREDICTED BY IDOCK:   -0.46 KCAL/MOL
REMARK 927      BINDING AFFINITY PREDICTED BY RF-SCORE:    0.00 PKD
ROOT
HETATM    1  O   UNL     1     -12.904   4.873  73.146  1.00  0.00    -0.211 OA 
HETATM    2  C   UNL     1     -11.488   4.825  73.324  1.00  0.00    -0.273 C  
HETATM    3  H   UNL     1     -13.341   4.250  73.714  1.00  0.00     0.000 HD 
ENDROOT
BRANCH   2   4
HETATM    4  C   UNL     1     -10.795   5.813  72.422  1.00  0.00    -0.294 A  
HETATM    5  C   UNL     1     -10.482   7.121  72.810  1.00  0.00    -0.244 A  
HETATM    6  O   UNL     1     -10.722   7.574  74.077  1.00  0.00    -0.508 OA 
HETATM    7  C   UNL     1      -9.907   8.024  71.921  1.00  0.00    -0.251 A  
HETATM    8  C   UNL     1      -9.623   7.629  70.615  1.00  0.00    -0.163 A  
HETATM    9  H   UNL     1     -10.510   8.462  74.340  1.00  0.00     0.000 HD 
HETATM   10  C   UNL     1      -9.919   6.327  70.187  1.00  0.00    -0.209 A  
HETATM   11  C   UNL     1     -10.517   5.436  71.096  1.00  0.00    -0.295 A  
BRANCH  10  12
HETATM   12  C   UNL     1      -9.667   5.938  68.746  1.00  0.00    -0.131 C  
HETATM   13  O   UNL     1      -9.341   4.544  68.659  1.00  0.00    -0.122 OA 
HETATM   14  H   UNL     1      -9.183   4.299  67.755  1.00  0.00     0.000 HD 
BRANCH  12  15
HETATM   15  C   UNL     1     -10.913   6.233  67.884  1.00  0.00    -0.327 C  
BRANCH  15  16
HETATM   16  N   UNL     1     -10.563   7.012  66.685  1.00  0.00    -0.523 NA 
HETATM   17  H   UNL     1     -11.219   6.853  65.921  1.00  0.00     0.000 HD 
BRANCH  16  18
HETATM   18  C   UNL     1     -10.449   8.427  67.020  1.00  0.00    -0.305 C  
BRANCH  18  19
HETATM   19  C   UNL     1      -9.454   9.111  66.087  1.00  0.00    -0.309 C  
BRANCH  19  20
HETATM   20  C   UNL     1     -10.011  10.454  65.615  1.00  0.00    -0.337 C  
BRANCH  20  21
HETATM   21  C   UNL     1     -10.580  11.253  66.782  1.00  0.00    -0.305 C  
BRANCH  21  22
HETATM   22  C   UNL     1     -11.665  12.217  66.313  1.00  0.00    -0.431 C  
BRANCH  22  23
HETATM   23  C   UNL     1     -11.109  13.189  65.284  1.00  0.00    -0.283 C  
BRANCH  23  24
HETATM   24  O   UNL     1     -10.265  14.125  65.946  1.00  0.00    -0.295 OA 
BRANCH  24  25
HETATM   25  C   UNL     1     -10.104  15.303  65.159  1.00  0.00    -0.288 C  
BRANCH  25  26
HETATM   26  C   UNL     1     -10.315  16.532  66.028  1.00  0.00    -0.345 C  
BRANCH  26  27
HETATM   27  O   UNL     1     -10.058  16.184  67.389  1.00  0.00    -0.247 OA 
BRANCH  27  28
HETATM   28  C   UNL     1      -9.448  17.257  68.091  1.00  0.00    -0.278 C  
BRANCH  28  29
HETATM   29  C   UNL     1      -8.485  17.953  67.168  1.00  0.00    -0.242 A  
HETATM   30  C   UNL     1      -7.329  17.308  66.697  1.00  0.00    -0.247 A  
HETATM   31 CL   UNL     1      -6.898  15.706  67.192  1.00  0.00    -0.196 Cl 
HETATM   32  C   UNL     1      -6.463  17.943  65.796  1.00  0.00    -0.263 A  
HETATM   33  C   UNL     1      -6.722  19.241  65.370  1.00  0.00    -0.293 A  
HETATM   34  C   UNL     1      -7.832  19.917  65.867  1.00  0.00    -0.313 A  
HETATM   35  C   UNL     1      -8.700  19.284  66.766  1.00  0.00    -0.313 A  
HETATM   36 CL   UNL     1     -10.033  20.220  67.350  1.00  0.00    -0.568 Cl 
ENDBRANCH  28  29
ENDBRANCH  27  28
ENDBRANCH  26  27
ENDBRANCH  25  26
ENDBRANCH  24  25
ENDBRANCH  23  24
ENDBRANCH  22  23
ENDBRANCH  21  22
ENDBRANCH  20  21
ENDBRANCH  19  20
ENDBRANCH  18  19
ENDBRANCH  16  18
ENDBRANCH  15  16
ENDBRANCH  12  15
ENDBRANCH  10  12
ENDBRANCH   2   4
TORSDOF 16
ENDMDL
MODEL      318
REMARK 921   NORMALIZED FREE ENERGY PREDICTED BY IDOCK:   -4.02 KCAL/MOL
REMARK 922        TOTAL FREE ENERGY PREDICTED BY IDOCK:   -9.85 KCAL/MOL
REMARK 923 INTER-LIGAND FREE ENERGY PREDICTED BY IDOCK:   -8.58 KCAL/MOL
REMARK 924 INTRA-LIGAND FREE ENERGY PREDICTED BY IDOCK:   -1.27 KCAL/MOL
REMARK 927      BINDING AFFINITY PREDICTED BY RF-SCORE:    0.00 PKD
ROOT
HETATM    1  O   UNL     1      -8.073   3.710  71.666  1.00  0.00    -0.064 OA 
HETATM    2  C   UNL     1      -8.825   4.411  72.658  1.00  0.00    -0.109 C  
HETATM    3  H   UNL     1      -7.411   3.159  72.066  1.00  0.00     0.000 HD 
ENDROOT
BRANCH   2   4
HETATM    4  C   UNL     1      -9.875   5.285  72.023  1.00  0.00    -0.222 A  
HETATM    5  C   UNL     1     -11.105   5.572  72.627  1.00  0.00    -0.282 A  
HETATM    6  O   UNL     1     -11.412   5.131  73.884  1.00  0.00    -0.394 OA 
HETATM    7  C   UNL     1     -12.076   6.325  71.974  1.00  0.00    -0.321 A  
HETATM    8  C   UNL     1     -11.830   6.818  70.695  1.00  0.00    -0.442 A  
HETATM    9  H   UNL     1     -12.246   5.326  74.294  1.00  0.00     0.000 HD 
HETATM   10  C   UNL     1     -10.610   6.555  70.055  1.00  0.00    -0.280 A  
HETATM   11  C   UNL     1      -9.649   5.776  70.725  1.00  0.00    -0.210 A  
BRANCH  10  12
HETATM   12  C   UNL     1     -10.387   7.041  68.638  1.00  0.00    -0.186 C  
HETATM   13  O   UNL     1     -11.487   6.653  67.803  1.00  0.00    -0.654 OA 
HETATM   14  H   UNL     1     -11.348   6.958  66.915  1.00  0.00     0.000 HD 
BRANCH  12  15
HETATM   15  C   UNL     1     -10.236   8.577  68.616  1.00  0.00    -0.197 C  
BRANCH  15  16
HETATM   16  N   UNL     1     -11.026   9.176  67.526  1.00  0.00    -0.449 NA 
HETATM   17  H   UNL     1     -11.412  10.083  67.789  1.00  0.00     0.000 HD 
BRANCH  16  18
HETATM   18  C   UNL     1     -10.223   9.257  66.310  1.00  0.00    -0.203 C  
BRANCH  18  19
HETATM   19  C   UNL     1      -8.739   9.151  66.652  1.00  0.00    -0.140 C  
BRANCH  19  20
HETATM   20  C   UNL     1      -7.982  10.352  66.086  1.00  0.00    -0.138 C  
BRANCH  20  21
HETATM   21  C   UNL     1      -7.894  11.478  67.109  1.00  0.00    -0.160 C  
BRANCH  21  22
HETATM   22  C   UNL     1      -9.058  12.452  66.960  1.00  0.00    -0.207 C  
BRANCH  22  23
HETATM   23  C   UNL     1      -9.871  12.516  68.243  1.00  0.00    -0.227 C  
BRANCH  23  24
HETATM   24  O   UNL     1     -11.252  12.586  67.908  1.00  0.00    -0.232 OA 
BRANCH  24  25
HETATM   25  C   UNL     1     -11.765  13.894  68.153  1.00  0.00    -0.353 C  
BRANCH  25  26
HETATM   26  C   UNL     1     -11.088  14.488  69.377  1.00  0.00    -0.268 C  
BRANCH  26  27
HETATM   27  O   UNL     1     -10.928  15.893  69.178  1.00  0.00    -0.245 OA 
BRANCH  27  28
HETATM   28  C   UNL     1     -10.312  16.173  67.930  1.00  0.00    -0.277 C  
BRANCH  28  29
HETATM   29  C   UNL     1      -9.254  17.222  68.138  1.00  0.00    -0.267 A  
HETATM   30  C   UNL     1      -9.533  18.588  67.955  1.00  0.00    -0.303 A  
HETATM   31 CL   UNL     1     -11.079  19.150  67.417  1.00  0.00    -0.409 Cl 
HETATM   32  C   UNL     1      -8.558  19.564  68.201  1.00  0.00    -0.368 A  
HETATM   33  C   UNL     1      -7.282  19.193  68.610  1.00  0.00    -0.356 A  
HETATM   34  C   UNL     1      -6.969  17.845  68.745  1.00  0.00    -0.262 A  
HETATM   35  C   UNL     1      -7.942  16.867  68.500  1.00  0.00    -0.242 A  
HETATM   36 CL   UNL     1      -7.445  15.217  68.665  1.00  0.00    -0.117 Cl 
ENDBRANCH  28  29
ENDBRANCH  27  28
ENDBRANCH  26  27
ENDBRANCH  25  26
ENDBRANCH  24  25
ENDBRANCH  23  24
ENDBRANCH  22  23
ENDBRANCH  21  22
ENDBRANCH  20  21
ENDBRANCH  19  20
ENDBRANCH  18  19
ENDBRANCH  16  18
ENDBRANCH  15  16
ENDBRANCH  12  15
ENDBRANCH  10  12
ENDBRANCH   2   4
TORSDOF 16
ENDMDL
MODEL      319
REMARK 921   NORMALIZED FREE ENERGY PREDICTED BY IDOCK:   -4.01 KCAL/MOL
REMARK 922        TOTAL FREE ENERGY PREDICTED BY IDOCK:   -9.84 KCAL/MOL
REMARK 923 INTER-LIGAND FREE ENERGY PREDICTED BY IDOCK:   -8.43 KCAL/MOL
REMARK 924 INTRA-LIGAND FREE ENERGY PREDICTED BY IDOCK:   -1.40 KCAL/MOL
REMARK 927      BINDING AFFINITY PREDICTED BY RF-SCORE:    0.00 PKD
ROOT
HETATM    1  O   UNL     1     -12.713   5.596  72.738  1.00  0.00    -0.467 OA 
HETATM    2  C   UNL     1     -11.290   5.674  72.640  1.00  0.00    -0.305 C  
HETATM    3  H   UNL     1     -12.975   5.071  73.485  1.00  0.00     0.000 HD 
ENDROOT
BRANCH   2   4
HETATM    4  C   UNL     1     -10.874   6.506  71.455  1.00  0.00    -0.289 A  
HETATM    5  C   UNL     1     -10.635   7.883  71.527  1.00  0.00    -0.222 A  
HETATM    6  O   UNL     1     -10.692   8.564  72.711  1.00  0.00    -0.243 OA 
HETATM    7  C   UNL     1     -10.323   8.626  70.393  1.00  0.00    -0.225 A  
HETATM    8  C   UNL     1     -10.235   7.997  69.153  1.00  0.00    -0.221 A  
HETATM    9  H   UNL     1     -10.530   9.498  72.760  1.00  0.00     0.000 HD 
HETATM   10  C   UNL     1     -10.465   6.620  69.037  1.00  0.00    -0.243 A  
HETATM   11  C   UNL     1     -10.797   5.890  70.193  1.00  0.00    -0.402 A  
BRANCH  10  12
HETATM   12  C   UNL     1     -10.433   5.967  67.671  1.00  0.00    -0.238 C  
HETATM   13  O   UNL     1     -11.446   6.532  66.828  1.00  0.00    -0.774 OA 
HETATM   14  H   UNL     1     -11.426   6.123  65.971  1.00  0.00     0.000 HD 
BRANCH  12  15
HETATM   15  C   UNL     1      -9.048   6.159  67.017  1.00  0.00    -0.118 C  
BRANCH  15  16
HETATM   16  N   UNL     1      -9.141   6.129  65.548  1.00  0.00    -0.365 NA 
HETATM   17  H   UNL     1     -10.056   6.434  65.217  1.00  0.00     0.000 HD 
BRANCH  16  18
HETATM   18  C   UNL     1      -8.060   6.913  64.960  1.00  0.00    -0.117 C  
BRANCH  18  19
HETATM   19  C   UNL     1      -8.214   8.384  65.334  1.00  0.00    -0.144 C  
BRANCH  19  20
HETATM   20  C   UNL     1      -6.846   9.065  65.368  1.00  0.00    -0.073 C  
BRANCH  20  21
HETATM   21  C   UNL     1      -6.978  10.575  65.210  1.00  0.00    -0.045 C  
BRANCH  21  22
HETATM   22  C   UNL     1      -6.066  11.314  66.184  1.00  0.00    -0.034 C  
BRANCH  22  23
HETATM   23  C   UNL     1      -6.790  11.589  67.492  1.00  0.00    -0.098 C  
BRANCH  23  24
HETATM   24  O   UNL     1      -6.321  12.824  68.024  1.00  0.00    -0.075 OA 
BRANCH  24  25
HETATM   25  C   UNL     1      -7.034  13.921  67.456  1.00  0.00    -0.144 C  
BRANCH  25  26
HETATM   26  C   UNL     1      -7.932  14.548  68.508  1.00  0.00    -0.142 C  
BRANCH  26  27
HETATM   27  O   UNL     1      -9.184  13.862  68.514  1.00  0.00    -0.198 OA 
BRANCH  27  28
HETATM   28  C   UNL     1     -10.267  14.760  68.319  1.00  0.00    -0.227 C  
BRANCH  28  29
HETATM   29  C   UNL     1     -10.864  14.507  66.961  1.00  0.00    -0.297 A  
HETATM   30  C   UNL     1     -11.629  13.357  66.701  1.00  0.00    -0.362 A  
HETATM   31 CL   UNL     1     -11.882  12.128  67.892  1.00  0.00    -0.388 Cl 
HETATM   32  C   UNL     1     -12.225  13.153  65.449  1.00  0.00    -0.510 A  
HETATM   33  C   UNL     1     -12.047  14.080  64.428  1.00  0.00    -0.486 A  
HETATM   34  C   UNL     1     -11.250  15.198  64.647  1.00  0.00    -0.352 A  
HETATM   35  C   UNL     1     -10.653  15.405  65.898  1.00  0.00    -0.339 A  
HETATM   36 CL   UNL     1      -9.654  16.809  66.061  1.00  0.00    -0.291 Cl 
ENDBRANCH  28  29
ENDBRANCH  27  28
ENDBRANCH  26  27
ENDBRANCH  25  26
ENDBRANCH  24  25
ENDBRANCH  23  24
ENDBRANCH  22  23
ENDBRANCH  21  22
ENDBRANCH  20  21
ENDBRANCH  19  20
ENDBRANCH  18  19
ENDBRANCH  16  18
ENDBRANCH  15  16
ENDBRANCH  12  15
ENDBRANCH  10  12
ENDBRANCH   2   4
TORSDOF 16
ENDMDL
MODEL      320
REMARK 921   NORMALIZED FREE ENERGY PREDICTED BY IDOCK:   -4.01 KCAL/MOL
REMARK 922        TOTAL FREE ENERGY PREDICTED BY IDOCK:   -9.83 KCAL/MOL
REMARK 923 INTER-LIGAND FREE ENERGY PREDICTED BY IDOCK:   -8.57 KCAL/MOL
REMARK 924 INTRA-LIGAND FREE ENERGY PREDICTED BY IDOCK:   -1.25 KCAL/MOL
REMARK 927      BINDING AFFINITY PREDICTED BY RF-SCORE:    0.00 PKD
ROOT
HETATM    1  O   UNL     1     -11.465  16.586  70.441  1.00  0.00    -0.480 OA 
HETATM    2  C   UNL     1     -12.158  16.093  71.589  1.00  0.00    -0.418 C  
HETATM    3  H   UNL     1     -11.276  17.513  70.528  1.00  0.00     0.000 HD 
ENDROOT
BRANCH   2   4
HETATM    4  C   UNL     1     -12.458  14.623  71.449  1.00  0.00    -0.410 A  
HETATM    5  C   UNL     1     -13.238  13.907  72.364  1.00  0.00    -0.488 A  
HETATM    6  O   UNL     1     -13.851  14.517  73.423  1.00  0.00    -0.289 OA 
HETATM    7  C   UNL     1     -13.431  12.535  72.237  1.00  0.00    -0.490 A  
HETATM    8  C   UNL     1     -12.847  11.847  71.175  1.00  0.00    -0.346 A  
HETATM    9  H   UNL     1     -14.381  14.032  74.044  1.00  0.00     0.000 HD 
HETATM   10  C   UNL     1     -12.059  12.527  70.236  1.00  0.00    -0.373 A  
HETATM   11  C   UNL     1     -11.863  13.911  70.393  1.00  0.00    -0.335 A  
BRANCH  10  12
HETATM   12  C   UNL     1     -11.377  11.751  69.129  1.00  0.00    -0.279 C  
HETATM   13  O   UNL     1     -12.322  11.418  68.102  1.00  0.00    -0.502 OA 
HETATM   14  H   UNL     1     -11.894  10.932  67.408  1.00  0.00     0.000 HD 
BRANCH  12  15
HETATM   15  C   UNL     1     -10.225  12.581  68.523  1.00  0.00    -0.203 C  
BRANCH  15  16
HETATM   16  N   UNL     1      -9.682  11.940  67.314  1.00  0.00    -0.183 NA 
HETATM   17  H   UNL     1     -10.304  11.217  66.953  1.00  0.00     0.000 HD 
BRANCH  16  18
HETATM   18  C   UNL     1      -9.377  12.950  66.305  1.00  0.00    -0.141 C  
BRANCH  18  19
HETATM   19  C   UNL     1     -10.527  13.948  66.196  1.00  0.00    -0.297 C  
BRANCH  19  20
HETATM   20  C   UNL     1     -11.170  13.862  64.812  1.00  0.00    -0.369 C  
BRANCH  20  21
HETATM   21  C   UNL     1     -11.864  12.519  64.611  1.00  0.00    -0.439 C  
BRANCH  21  22
HETATM   22  C   UNL     1     -11.454  11.879  63.289  1.00  0.00    -0.376 C  
BRANCH  22  23
HETATM   23  C   UNL     1      -9.956  11.620  63.261  1.00  0.00    -0.419 C  
BRANCH  23  24
HETATM   24  O   UNL     1      -9.716  10.388  62.588  1.00  0.00    -0.298 OA 
BRANCH  24  25
HETATM   25  C   UNL     1      -8.734   9.620  63.279  1.00  0.00    -0.230 C  
BRANCH  25  26
HETATM   26  C   UNL     1      -9.180   9.388  64.713  1.00  0.00    -0.156 C  
BRANCH  26  27
HETATM   27  O   UNL     1      -8.380   8.352  65.283  1.00  0.00    -0.145 OA 
BRANCH  27  28
HETATM   28  C   UNL     1      -9.123   7.575  66.211  1.00  0.00    -0.157 C  
BRANCH  28  29
HETATM   29  C   UNL     1      -8.246   7.267  67.394  1.00  0.00    -0.116 A  
HETATM   30  C   UNL     1      -7.057   6.531  67.251  1.00  0.00    -0.077 A  
HETATM   31 CL   UNL     1      -6.555   5.874  65.730  1.00  0.00    -0.046 Cl 
HETATM   32  C   UNL     1      -6.218   6.292  68.347  1.00  0.00    -0.032 A  
HETATM   33  C   UNL     1      -6.563   6.762  69.610  1.00  0.00    -0.048 A  
HETATM   34  C   UNL     1      -7.761   7.446  69.784  1.00  0.00    -0.103 A  
HETATM   35  C   UNL     1      -8.602   7.687  68.689  1.00  0.00    -0.129 A  
HETATM   36 CL   UNL     1     -10.085   8.518  69.014  1.00  0.00    -0.198 Cl 
ENDBRANCH  28  29
ENDBRANCH  27  28
ENDBRANCH  26  27
ENDBRANCH  25  26
ENDBRANCH  24  25
ENDBRANCH  23  24
ENDBRANCH  22  23
ENDBRANCH  21  22
ENDBRANCH  20  21
ENDBRANCH  19  20
ENDBRANCH  18  19
ENDBRANCH  16  18
ENDBRANCH  15  16
ENDBRANCH  12  15
ENDBRANCH  10  12
ENDBRANCH   2   4
TORSDOF 16
ENDMDL
MODEL      321
REMARK 921   NORMALIZED FREE ENERGY PREDICTED BY IDOCK:   -3.97 KCAL/MOL
REMARK 922        TOTAL FREE ENERGY PREDICTED BY IDOCK:   -9.76 KCAL/MOL
REMARK 923 INTER-LIGAND FREE ENERGY PREDICTED BY IDOCK:   -7.60 KCAL/MOL
REMARK 924 INTRA-LIGAND FREE ENERGY PREDICTED BY IDOCK:   -2.16 KCAL/MOL
REMARK 927      BINDING AFFINITY PREDICTED BY RF-SCORE:    0.00 PKD
ROOT
HETATM    1  O   UNL     1     -10.689  16.654  66.035  1.00  0.00    -0.262 OA 
HETATM    2  C   UNL     1     -10.971  16.039  64.777  1.00  0.00    -0.356 C  
HETATM    3  H   UNL     1     -10.764  17.599  65.978  1.00  0.00     0.000 HD 
ENDROOT
BRANCH   2   4
HETATM    4  C   UNL     1     -10.851  14.540  64.869  1.00  0.00    -0.436 A  
HETATM    5  C   UNL     1     -11.650  13.658  64.133  1.00  0.00    -0.352 A  
HETATM    6  O   UNL     1     -12.558  14.104  63.213  1.00  0.00    -1.080 OA 
HETATM    7  C   UNL     1     -11.556  12.280  64.301  1.00  0.00    -0.442 A  
HETATM    8  C   UNL     1     -10.644  11.752  65.213  1.00  0.00    -0.327 A  
HETATM    9  H   UNL     1     -13.101  13.505  62.714  1.00  0.00     0.000 HD 
HETATM   10  C   UNL     1      -9.824  12.601  65.968  1.00  0.00    -0.260 A  
HETATM   11  C   UNL     1      -9.948  13.991  65.796  1.00  0.00    -0.319 A  
BRANCH  10  12
HETATM   12  C   UNL     1      -8.888  12.011  67.003  1.00  0.00    -0.197 C  
HETATM   13  O   UNL     1      -9.640  11.437  68.081  1.00  0.00    -0.176 OA 
HETATM   14  H   UNL     1      -9.053  11.067  68.730  1.00  0.00     0.000 HD 
BRANCH  12  15
HETATM   15  C   UNL     1      -7.993  10.930  66.362  1.00  0.00    -0.157 C  
BRANCH  15  16
HETATM   16  N   UNL     1      -8.114   9.645  67.072  1.00  0.00    -0.112 NA 
HETATM   17  H   UNL     1      -8.804   9.032  66.636  1.00  0.00     0.000 HD 
BRANCH  16  18
HETATM   18  C   UNL     1      -6.807   9.005  67.180  1.00  0.00    -0.074 C  
BRANCH  18  19
HETATM   19  C   UNL     1      -6.278   9.129  68.606  1.00  0.00    -0.045 C  
BRANCH  19  20
HETATM   20  C   UNL     1      -7.421   9.464  69.564  1.00  0.00    -0.083 C  
BRANCH  20  21
HETATM   21  C   UNL     1      -6.996   9.269  71.015  1.00  0.00    -0.090 C  
BRANCH  21  22
HETATM   22  C   UNL     1      -8.035   8.465  71.790  1.00  0.00    -0.173 C  
BRANCH  22  23
HETATM   23  C   UNL     1      -9.441   8.926  71.438  1.00  0.00    -0.274 C  
BRANCH  23  24
HETATM   24  O   UNL     1     -10.288   8.714  72.563  1.00  0.00    -0.295 OA 
BRANCH  24  25
HETATM   25  C   UNL     1      -9.816   7.622  73.350  1.00  0.00    -0.303 C  
BRANCH  25  26
HETATM   26  C   UNL     1     -10.866   6.524  73.384  1.00  0.00    -0.222 C  
BRANCH  26  27
HETATM   27  O   UNL     1     -11.215   6.178  72.044  1.00  0.00    -0.258 OA 
BRANCH  27  28
HETATM   28  C   UNL     1     -10.653   4.929  71.668  1.00  0.00    -0.073 C  
BRANCH  28  29
HETATM   29  C   UNL     1      -9.495   5.181  70.741  1.00  0.00    -0.224 A  
HETATM   30  C   UNL     1      -9.690   5.731  69.462  1.00  0.00    -0.153 A  
HETATM   31 CL   UNL     1     -11.264   6.093  68.841  1.00  0.00    -0.422 Cl 
HETATM   32  C   UNL     1      -8.603   6.011  68.622  1.00  0.00    -0.112 A  
HETATM   33  C   UNL     1      -7.306   5.724  69.035  1.00  0.00    -0.083 A  
HETATM   34  C   UNL     1      -7.096   5.130  70.275  1.00  0.00    -0.054 A  
HETATM   35  C   UNL     1      -8.181   4.849  71.116  1.00  0.00    -0.109 A  
HETATM   36 CL   UNL     1      -7.818   4.080  72.623  1.00  0.00    -0.074 Cl 
ENDBRANCH  28  29
ENDBRANCH  27  28
ENDBRANCH  26  27
ENDBRANCH  25  26
ENDBRANCH  24  25
ENDBRANCH  23  24
ENDBRANCH  22  23
ENDBRANCH  21  22
ENDBRANCH  20  21
ENDBRANCH  19  20
ENDBRANCH  18  19
ENDBRANCH  16  18
ENDBRANCH  15  16
ENDBRANCH  12  15
ENDBRANCH  10  12
ENDBRANCH   2   4
TORSDOF 16
ENDMDL
MODEL      322
REMARK 921   NORMALIZED FREE ENERGY PREDICTED BY IDOCK:   -3.97 KCAL/MOL
REMARK 922        TOTAL FREE ENERGY PREDICTED BY IDOCK:   -9.76 KCAL/MOL
REMARK 923 INTER-LIGAND FREE ENERGY PREDICTED BY IDOCK:   -8.12 KCAL/MOL
REMARK 924 INTRA-LIGAND FREE ENERGY PREDICTED BY IDOCK:   -1.64 KCAL/MOL
REMARK 927      BINDING AFFINITY PREDICTED BY RF-SCORE:    0.00 PKD
ROOT
HETATM    1  O   UNL     1      -8.821  13.773  68.941  1.00  0.00    -0.374 OA 
HETATM    2  C   UNL     1      -9.190  15.136  69.157  1.00  0.00    -0.215 C  
HETATM    3  H   UNL     1      -9.586  13.209  68.944  1.00  0.00     0.000 HD 
ENDROOT
BRANCH   2   4
HETATM    4  C   UNL     1      -7.977  16.030  69.153  1.00  0.00    -0.238 A  
HETATM    5  C   UNL     1      -6.764  15.684  69.758  1.00  0.00    -0.147 A  
HETATM    6  O   UNL     1      -6.570  14.462  70.339  1.00  0.00    -0.335 OA 
HETATM    7  C   UNL     1      -5.691  16.570  69.793  1.00  0.00    -0.191 A  
HETATM    8  C   UNL     1      -5.811  17.830  69.210  1.00  0.00    -0.221 A  
HETATM    9  H   UNL     1      -5.747  14.227  70.750  1.00  0.00     0.000 HD 
HETATM   10  C   UNL     1      -7.008  18.215  68.592  1.00  0.00    -0.262 A  
HETATM   11  C   UNL     1      -8.086  17.312  68.584  1.00  0.00    -0.261 A  
BRANCH  10  12
HETATM   12  C   UNL     1      -7.142  19.613  68.025  1.00  0.00    -0.272 C  
HETATM   13  O   UNL     1      -5.934  20.354  68.245  1.00  0.00    -0.248 OA 
HETATM   14  H   UNL     1      -6.018  21.231  67.889  1.00  0.00     0.000 HD 
BRANCH  12  15
HETATM   15  C   UNL     1      -7.444  19.551  66.513  1.00  0.00    -0.259 C  
BRANCH  15  16
HETATM   16  N   UNL     1      -8.574  20.426  66.156  1.00  0.00    -0.560 NA 
HETATM   17  H   UNL     1      -8.771  20.406  65.156  1.00  0.00     0.000 HD 
BRANCH  16  18
HETATM   18  C   UNL     1      -9.748  20.078  66.950  1.00  0.00    -0.425 C  
BRANCH  18  19
HETATM   19  C   UNL     1     -10.714  19.237  66.118  1.00  0.00    -0.478 C  
BRANCH  19  20
HETATM   20  C   UNL     1     -10.831  17.833  66.709  1.00  0.00    -0.016 C  
BRANCH  20  21
HETATM   21  C   UNL     1     -10.068  16.817  65.868  1.00  0.00    -0.324 C  
BRANCH  21  22
HETATM   22  C   UNL     1     -11.021  15.865  65.153  1.00  0.00    -0.389 C  
BRANCH  22  23
HETATM   23  C   UNL     1     -11.293  14.637  66.008  1.00  0.00    -0.344 C  
BRANCH  23  24
HETATM   24  O   UNL     1     -10.969  13.473  65.254  1.00  0.00    -0.283 OA 
BRANCH  24  25
HETATM   25  C   UNL     1     -11.700  12.345  65.730  1.00  0.00    -0.414 C  
BRANCH  25  26
HETATM   26  C   UNL     1     -11.012  11.769  66.956  1.00  0.00    -0.285 C  
BRANCH  26  27
HETATM   27  O   UNL     1     -10.785  10.376  66.746  1.00  0.00    -0.231 OA 
BRANCH  27  28
HETATM   28  C   UNL     1      -9.517   9.975  67.247  1.00  0.00    -0.154 C  
BRANCH  28  29
HETATM   29  C   UNL     1      -9.019   8.817  66.427  1.00  0.00    -0.194 A  
HETATM   30  C   UNL     1      -8.170   9.013  65.323  1.00  0.00    -0.137 A  
HETATM   31 CL   UNL     1      -7.697  10.591  64.792  1.00  0.00    -0.062 Cl 
HETATM   32  C   UNL     1      -7.668   7.927  64.595  1.00  0.00    -0.120 A  
HETATM   33  C   UNL     1      -8.022   6.627  64.940  1.00  0.00    -0.121 A  
HETATM   34  C   UNL     1      -8.903   6.413  65.995  1.00  0.00    -0.160 A  
HETATM   35  C   UNL     1      -9.407   7.497  66.725  1.00  0.00    -0.165 A  
HETATM   36 CL   UNL     1     -10.521   7.129  67.997  1.00  0.00    -0.236 Cl 
ENDBRANCH  28  29
ENDBRANCH  27  28
ENDBRANCH  26  27
ENDBRANCH  25  26
ENDBRANCH  24  25
ENDBRANCH  23  24
ENDBRANCH  22  23
ENDBRANCH  21  22
ENDBRANCH  20  21
ENDBRANCH  19  20
ENDBRANCH  18  19
ENDBRANCH  16  18
ENDBRANCH  15  16
ENDBRANCH  12  15
ENDBRANCH  10  12
ENDBRANCH   2   4
TORSDOF 16
ENDMDL
MODEL      323
REMARK 921   NORMALIZED FREE ENERGY PREDICTED BY IDOCK:   -3.97 KCAL/MOL
REMARK 922        TOTAL FREE ENERGY PREDICTED BY IDOCK:   -9.76 KCAL/MOL
REMARK 923 INTER-LIGAND FREE ENERGY PREDICTED BY IDOCK:   -7.75 KCAL/MOL
REMARK 924 INTRA-LIGAND FREE ENERGY PREDICTED BY IDOCK:   -2.01 KCAL/MOL
REMARK 927      BINDING AFFINITY PREDICTED BY RF-SCORE:    0.00 PKD
ROOT
HETATM    1  O   UNL     1     -10.281  13.968  64.356  1.00  0.00    -0.659 OA 
HETATM    2  C   UNL     1     -10.571  12.639  63.923  1.00  0.00    -0.428 C  
HETATM    3  H   UNL     1     -10.435  14.595  63.660  1.00  0.00     0.000 HD 
ENDROOT
BRANCH   2   4
HETATM    4  C   UNL     1     -10.327  11.645  65.029  1.00  0.00    -0.329 A  
HETATM    5  C   UNL     1     -11.072  11.613  66.213  1.00  0.00    -0.290 A  
HETATM    6  O   UNL     1     -12.135  12.448  66.419  1.00  0.00    -0.607 OA 
HETATM    7  C   UNL     1     -10.767  10.724  67.240  1.00  0.00    -0.325 A  
HETATM    8  C   UNL     1      -9.704   9.835  67.096  1.00  0.00    -0.223 A  
HETATM    9  H   UNL     1     -12.640  12.426  67.223  1.00  0.00     0.000 HD 
HETATM   10  C   UNL     1      -8.934   9.833  65.924  1.00  0.00    -0.189 A  
HETATM   11  C   UNL     1      -9.248  10.751  64.907  1.00  0.00    -0.243 A  
BRANCH  10  12
HETATM   12  C   UNL     1      -7.741   8.907  65.815  1.00  0.00    -0.094 C  
HETATM   13  O   UNL     1      -7.907   7.779  66.686  1.00  0.00    -0.098 OA 
HETATM   14  H   UNL     1      -7.159   7.198  66.616  1.00  0.00     0.000 HD 
BRANCH  12  15
HETATM   15  C   UNL     1      -7.574   8.417  64.361  1.00  0.00    -0.115 C  
BRANCH  15  16
HETATM   16  N   UNL     1      -8.073   7.042  64.198  1.00  0.00    -0.299 NA 
HETATM   17  H   UNL     1      -8.996   7.019  63.762  1.00  0.00     0.000 HD 
BRANCH  16  18
HETATM   18  C   UNL     1      -7.103   6.239  63.460  1.00  0.00    -0.053 C  
BRANCH  18  19
HETATM   19  C   UNL     1      -7.614   4.810  63.303  1.00  0.00    -0.060 C  
BRANCH  19  20
HETATM   20  C   UNL     1      -7.789   4.160  64.676  1.00  0.00    -0.085 C  
BRANCH  20  21
HETATM   21  C   UNL     1      -9.086   3.364  64.747  1.00  0.00    -0.136 C  
BRANCH  21  22
HETATM   22  C   UNL     1      -9.828   3.633  66.052  1.00  0.00    -0.022 C  
BRANCH  22  23
HETATM   23  C   UNL     1     -10.660   4.901  65.944  1.00  0.00    -0.230 C  
BRANCH  23  24
HETATM   24  O   UNL     1     -10.669   5.553  67.209  1.00  0.00    -0.241 OA 
BRANCH  24  25
HETATM   25  C   UNL     1      -9.666   5.008  68.064  1.00  0.00    -0.151 C  
BRANCH  25  26
HETATM   26  C   UNL     1     -10.036   5.266  69.516  1.00  0.00    -0.227 C  
BRANCH  26  27
HETATM   27  O   UNL     1      -9.004   6.044  70.122  1.00  0.00    -0.143 OA 
BRANCH  27  28
HETATM   28  C   UNL     1      -9.339   6.398  71.456  1.00  0.00    -0.148 C  
BRANCH  28  29
HETATM   29  C   UNL     1     -10.387   7.477  71.420  1.00  0.00    -0.209 A  
HETATM   30  C   UNL     1     -10.091   8.768  70.948  1.00  0.00    -0.219 A  
HETATM   31 CL   UNL     1      -8.500   9.225  70.443  1.00  0.00    -0.209 Cl 
HETATM   32  C   UNL     1     -11.084   9.754  70.869  1.00  0.00    -0.428 A  
HETATM   33  C   UNL     1     -12.383   9.476  71.281  1.00  0.00    -0.430 A  
HETATM   34  C   UNL     1     -12.684   8.222  71.801  1.00  0.00    -0.364 A  
HETATM   35  C   UNL     1     -11.694   7.235  71.882  1.00  0.00    -0.287 A  
HETATM   36 CL   UNL     1     -12.161   5.718  72.573  1.00  0.00    -0.205 Cl 
ENDBRANCH  28  29
ENDBRANCH  27  28
ENDBRANCH  26  27
ENDBRANCH  25  26
ENDBRANCH  24  25
ENDBRANCH  23  24
ENDBRANCH  22  23
ENDBRANCH  21  22
ENDBRANCH  20  21
ENDBRANCH  19  20
ENDBRANCH  18  19
ENDBRANCH  16  18
ENDBRANCH  15  16
ENDBRANCH  12  15
ENDBRANCH  10  12
ENDBRANCH   2   4
TORSDOF 16
ENDMDL
MODEL      324
REMARK 921   NORMALIZED FREE ENERGY PREDICTED BY IDOCK:   -3.97 KCAL/MOL
REMARK 922        TOTAL FREE ENERGY PREDICTED BY IDOCK:   -9.76 KCAL/MOL
REMARK 923 INTER-LIGAND FREE ENERGY PREDICTED BY IDOCK:   -7.84 KCAL/MOL
REMARK 924 INTRA-LIGAND FREE ENERGY PREDICTED BY IDOCK:   -1.92 KCAL/MOL
REMARK 927      BINDING AFFINITY PREDICTED BY RF-SCORE:    0.00 PKD
ROOT
HETATM    1  O   UNL     1     -12.755   5.600  72.602  1.00  0.00    -0.418 OA 
HETATM    2  C   UNL     1     -11.359   5.838  72.786  1.00  0.00    -0.282 C  
HETATM    3  H   UNL     1     -13.040   4.839  73.095  1.00  0.00     0.000 HD 
ENDROOT
BRANCH   2   4
HETATM    4  C   UNL     1     -10.909   7.045  72.005  1.00  0.00    -0.253 A  
HETATM    5  C   UNL     1     -11.530   8.296  72.097  1.00  0.00    -0.361 A  
HETATM    6  O   UNL     1     -12.556   8.530  72.969  1.00  0.00    -0.647 OA 
HETATM    7  C   UNL     1     -11.127   9.367  71.304  1.00  0.00    -0.446 A  
HETATM    8  C   UNL     1     -10.078   9.207  70.401  1.00  0.00    -0.264 A  
HETATM    9  H   UNL     1     -12.978   9.378  73.031  1.00  0.00     0.000 HD 
HETATM   10  C   UNL     1      -9.429   7.970  70.279  1.00  0.00    -0.167 A  
HETATM   11  C   UNL     1      -9.863   6.897  71.077  1.00  0.00    -0.185 A  
BRANCH  10  12
HETATM   12  C   UNL     1      -8.337   7.797  69.244  1.00  0.00    -0.136 C  
HETATM   13  O   UNL     1      -8.795   8.249  67.962  1.00  0.00    -0.134 OA 
HETATM   14  H   UNL     1      -8.110   8.141  67.312  1.00  0.00     0.000 HD 
BRANCH  12  15
HETATM   15  C   UNL     1      -7.078   8.589  69.653  1.00  0.00    -0.052 C  
BRANCH  15  16
HETATM   16  N   UNL     1      -6.139   8.721  68.527  1.00  0.00    -0.045 NA 
HETATM   17  H   UNL     1      -6.618   8.715  67.627  1.00  0.00     0.000 HD 
BRANCH  16  18
HETATM   18  C   UNL     1      -5.315   9.914  68.697  1.00  0.00    -0.036 C  
BRANCH  18  19
HETATM   19  C   UNL     1      -6.179  11.168  68.594  1.00  0.00    -0.043 C  
BRANCH  19  20
HETATM   20  C   UNL     1      -5.537  12.315  69.375  1.00  0.00    -0.078 C  
BRANCH  20  21
HETATM   21  C   UNL     1      -5.600  13.618  68.588  1.00  0.00    -0.084 C  
BRANCH  21  22
HETATM   22  C   UNL     1      -5.827  14.810  69.513  1.00  0.00    -0.102 C  
BRANCH  22  23
HETATM   23  C   UNL     1      -7.292  15.213  69.519  1.00  0.00    -0.210 C  
BRANCH  23  24
HETATM   24  O   UNL     1      -7.455  16.364  68.697  1.00  0.00    -0.171 OA 
BRANCH  24  25
HETATM   25  C   UNL     1      -8.381  16.105  67.644  1.00  0.00    -0.151 C  
BRANCH  25  26
HETATM   26  C   UNL     1      -9.680  16.848  67.909  1.00  0.00    -0.254 C  
BRANCH  26  27
HETATM   27  O   UNL     1     -10.521  16.029  68.722  1.00  0.00    -0.226 OA 
BRANCH  27  28
HETATM   28  C   UNL     1     -11.657  15.577  67.999  1.00  0.00    -0.268 C  
BRANCH  28  29
HETATM   29  C   UNL     1     -11.528  14.095  67.774  1.00  0.00    -0.352 A  
HETATM   30  C   UNL     1     -11.841  13.172  68.788  1.00  0.00    -0.324 A  
HETATM   31 CL   UNL     1     -12.330  13.670  70.372  1.00  0.00    -0.421 Cl 
HETATM   32  C   UNL     1     -11.768  11.791  68.556  1.00  0.00    -0.390 A  
HETATM   33  C   UNL     1     -11.358  11.309  67.318  1.00  0.00    -0.329 A  
HETATM   34  C   UNL     1     -10.991  12.204  66.320  1.00  0.00    -0.332 A  
HETATM   35  C   UNL     1     -11.064  13.585  66.548  1.00  0.00    -0.300 A  
HETATM   36 CL   UNL     1     -10.556  14.616  65.254  1.00  0.00    -0.377 Cl 
ENDBRANCH  28  29
ENDBRANCH  27  28
ENDBRANCH  26  27
ENDBRANCH  25  26
ENDBRANCH  24  25
ENDBRANCH  23  24
ENDBRANCH  22  23
ENDBRANCH  21  22
ENDBRANCH  20  21
ENDBRANCH  19  20
ENDBRANCH  18  19
ENDBRANCH  16  18
ENDBRANCH  15  16
ENDBRANCH  12  15
ENDBRANCH  10  12
ENDBRANCH   2   4
TORSDOF 16
ENDMDL
MODEL      325
REMARK 921   NORMALIZED FREE ENERGY PREDICTED BY IDOCK:   -3.97 KCAL/MOL
REMARK 922        TOTAL FREE ENERGY PREDICTED BY IDOCK:   -9.76 KCAL/MOL
REMARK 923 INTER-LIGAND FREE ENERGY PREDICTED BY IDOCK:   -8.22 KCAL/MOL
REMARK 924 INTRA-LIGAND FREE ENERGY PREDICTED BY IDOCK:   -1.53 KCAL/MOL
REMARK 927      BINDING AFFINITY PREDICTED BY RF-SCORE:    0.00 PKD
ROOT
HETATM    1  O   UNL     1     -10.962  10.023  70.810  1.00  0.00    -0.313 OA 
HETATM    2  C   UNL     1     -10.152   9.068  71.497  1.00  0.00    -0.339 C  
HETATM    3  H   UNL     1     -10.887  10.883  71.206  1.00  0.00     0.000 HD 
ENDROOT
BRANCH   2   4
HETATM    4  C   UNL     1     -10.272   7.705  70.867  1.00  0.00    -0.202 A  
HETATM    5  C   UNL     1      -9.893   6.523  71.513  1.00  0.00    -0.168 A  
HETATM    6  O   UNL     1      -9.449   6.518  72.806  1.00  0.00    -0.144 OA 
HETATM    7  C   UNL     1      -9.953   5.291  70.868  1.00  0.00    -0.274 A  
HETATM    8  C   UNL     1     -10.407   5.217  69.554  1.00  0.00    -0.292 A  
HETATM    9  H   UNL     1      -9.191   5.716  73.245  1.00  0.00     0.000 HD 
HETATM   10  C   UNL     1     -10.798   6.377  68.871  1.00  0.00    -0.382 A  
HETATM   11  C   UNL     1     -10.712   7.613  69.535  1.00  0.00    -0.211 A  
BRANCH  10  12
HETATM   12  C   UNL     1     -11.223   6.284  67.420  1.00  0.00    -0.141 C  
HETATM   13  O   UNL     1     -11.111   7.567  66.789  1.00  0.00    -0.469 OA 
HETATM   14  H   UNL     1     -11.377   7.509  65.879  1.00  0.00     0.000 HD 
BRANCH  12  15
HETATM   15  C   UNL     1     -10.348   5.259  66.669  1.00  0.00    -0.283 C  
BRANCH  15  16
HETATM   16  N   UNL     1      -9.581   5.901  65.587  1.00  0.00    -0.366 NA 
HETATM   17  H   UNL     1      -9.956   6.817  65.345  1.00  0.00     0.000 HD 
BRANCH  16  18
HETATM   18  C   UNL     1      -8.168   5.967  65.945  1.00  0.00    -0.129 C  
BRANCH  18  19
HETATM   19  C   UNL     1      -7.601   7.340  65.593  1.00  0.00    -0.089 C  
BRANCH  19  20
HETATM   20  C   UNL     1      -8.337   7.920  64.385  1.00  0.00     0.007 C  
BRANCH  20  21
HETATM   21  C   UNL     1      -8.823   9.337  64.665  1.00  0.00    -0.218 C  
BRANCH  21  22
HETATM   22  C   UNL     1      -7.651  10.290  64.875  1.00  0.00    -0.119 C  
BRANCH  22  23
HETATM   23  C   UNL     1      -7.601  10.769  66.317  1.00  0.00    -0.142 C  
BRANCH  23  24
HETATM   24  O   UNL     1      -8.755  10.289  66.999  1.00  0.00    -0.129 OA 
BRANCH  24  25
HETATM   25  C   UNL     1      -8.883  10.914  68.274  1.00  0.00    -0.140 C  
BRANCH  25  26
HETATM   26  C   UNL     1      -9.688  12.196  68.139  1.00  0.00    -0.208 C  
BRANCH  26  27
HETATM   27  O   UNL     1     -11.010  11.866  67.713  1.00  0.00    -0.206 OA 
BRANCH  27  28
HETATM   28  C   UNL     1     -11.903  12.953  67.910  1.00  0.00    -0.339 C  
BRANCH  28  29
HETATM   29  C   UNL     1     -11.519  14.070  66.979  1.00  0.00    -0.370 A  
HETATM   30  C   UNL     1     -10.892  15.235  67.455  1.00  0.00    -0.304 A  
HETATM   31 CL   UNL     1     -10.582  15.495  69.137  1.00  0.00    -0.221 Cl 
HETATM   32  C   UNL     1     -10.489  16.249  66.576  1.00  0.00    -0.290 A  
HETATM   33  C   UNL     1     -10.727  16.130  65.211  1.00  0.00    -0.386 A  
HETATM   34  C   UNL     1     -11.393  15.010  64.726  1.00  0.00    -0.409 A  
HETATM   35  C   UNL     1     -11.797  13.994  65.602  1.00  0.00    -0.377 A  
HETATM   36 CL   UNL     1     -12.647  12.657  64.905  1.00  0.00    -0.571 Cl 
ENDBRANCH  28  29
ENDBRANCH  27  28
ENDBRANCH  26  27
ENDBRANCH  25  26
ENDBRANCH  24  25
ENDBRANCH  23  24
ENDBRANCH  22  23
ENDBRANCH  21  22
ENDBRANCH  20  21
ENDBRANCH  19  20
ENDBRANCH  18  19
ENDBRANCH  16  18
ENDBRANCH  15  16
ENDBRANCH  12  15
ENDBRANCH  10  12
ENDBRANCH   2   4
TORSDOF 16
ENDMDL
MODEL      326
REMARK 921   NORMALIZED FREE ENERGY PREDICTED BY IDOCK:   -3.96 KCAL/MOL
REMARK 922        TOTAL FREE ENERGY PREDICTED BY IDOCK:   -9.74 KCAL/MOL
REMARK 923 INTER-LIGAND FREE ENERGY PREDICTED BY IDOCK:   -7.98 KCAL/MOL
REMARK 924 INTRA-LIGAND FREE ENERGY PREDICTED BY IDOCK:   -1.76 KCAL/MOL
REMARK 927      BINDING AFFINITY PREDICTED BY RF-SCORE:    0.00 PKD
ROOT
HETATM    1  O   UNL     1      -6.843   4.283  71.214  1.00  0.00    -0.033 OA 
HETATM    2  C   UNL     1      -8.078   3.695  70.805  1.00  0.00    -0.057 C  
HETATM    3  H   UNL     1      -6.136   4.034  70.629  1.00  0.00     0.000 HD 
ENDROOT
BRANCH   2   4
HETATM    4  C   UNL     1      -9.198   4.090  71.732  1.00  0.00    -0.184 A  
HETATM    5  C   UNL     1      -9.874   3.181  72.553  1.00  0.00    -0.150 A  
HETATM    6  O   UNL     1      -9.511   1.865  72.625  1.00  0.00    -0.077 OA 
HETATM    7  C   UNL     1     -10.951   3.576  73.341  1.00  0.00    -0.308 A  
HETATM    8  C   UNL     1     -11.371   4.904  73.329  1.00  0.00    -0.408 A  
HETATM    9  H   UNL     1      -9.970   1.248  73.182  1.00  0.00     0.000 HD 
HETATM   10  C   UNL     1     -10.719   5.847  72.522  1.00  0.00    -0.274 A  
HETATM   11  C   UNL     1      -9.645   5.423  71.719  1.00  0.00    -0.186 A  
BRANCH  10  12
HETATM   12  C   UNL     1     -11.233   7.270  72.470  1.00  0.00    -0.301 C  
HETATM   13  O   UNL     1     -10.240   8.174  72.974  1.00  0.00    -0.309 OA 
HETATM   14  H   UNL     1     -10.562   9.067  72.941  1.00  0.00     0.000 HD 
BRANCH  12  15
HETATM   15  C   UNL     1     -11.597   7.657  71.021  1.00  0.00    -0.282 C  
BRANCH  15  16
HETATM   16  N   UNL     1     -12.609   8.726  70.990  1.00  0.00    -0.489 NA 
HETATM   17  H   UNL     1     -13.121   8.794  71.870  1.00  0.00     0.000 HD 
BRANCH  16  18
HETATM   18  C   UNL     1     -11.988   9.995  70.622  1.00  0.00    -0.313 C  
BRANCH  18  19
HETATM   19  C   UNL     1     -12.761  11.157  71.241  1.00  0.00    -0.531 C  
BRANCH  19  20
HETATM   20  C   UNL     1     -12.249  12.485  70.683  1.00  0.00    -0.365 C  
BRANCH  20  21
HETATM   21  C   UNL     1     -11.760  12.327  69.248  1.00  0.00    -0.388 C  
BRANCH  21  22
HETATM   22  C   UNL     1     -10.954  13.543  68.803  1.00  0.00    -0.291 C  
BRANCH  22  23
HETATM   23  C   UNL     1     -10.960  13.663  67.288  1.00  0.00    -0.287 C  
BRANCH  23  24
HETATM   24  O   UNL     1     -12.274  13.395  66.811  1.00  0.00    -0.377 OA 
BRANCH  24  25
HETATM   25  C   UNL     1     -12.229  12.603  65.626  1.00  0.00    -0.411 C  
BRANCH  25  26
HETATM   26  C   UNL     1     -10.782  12.340  65.241  1.00  0.00    -0.292 C  
BRANCH  26  27
HETATM   27  O   UNL     1     -10.523  10.941  65.349  1.00  0.00    -0.265 OA 
BRANCH  27  28
HETATM   28  C   UNL     1      -9.142  10.684  65.558  1.00  0.00    -0.190 C  
BRANCH  28  29
HETATM   29  C   UNL     1      -8.942  10.258  66.988  1.00  0.00    -0.147 A  
HETATM   30  C   UNL     1      -9.372   8.999  67.442  1.00  0.00    -0.139 A  
HETATM   31 CL   UNL     1     -10.213   7.886  66.419  1.00  0.00    -0.198 Cl 
HETATM   32  C   UNL     1      -9.137   8.588  68.761  1.00  0.00    -0.143 A  
HETATM   33  C   UNL     1      -8.491   9.435  69.655  1.00  0.00    -0.166 A  
HETATM   34  C   UNL     1      -8.106  10.705  69.241  1.00  0.00    -0.133 A  
HETATM   35  C   UNL     1      -8.339  11.119  67.923  1.00  0.00    -0.129 A  
HETATM   36 CL   UNL     1      -7.852  12.729  67.515  1.00  0.00    -0.159 Cl 
ENDBRANCH  28  29
ENDBRANCH  27  28
ENDBRANCH  26  27
ENDBRANCH  25  26
ENDBRANCH  24  25
ENDBRANCH  23  24
ENDBRANCH  22  23
ENDBRANCH  21  22
ENDBRANCH  20  21
ENDBRANCH  19  20
ENDBRANCH  18  19
ENDBRANCH  16  18
ENDBRANCH  15  16
ENDBRANCH  12  15
ENDBRANCH  10  12
ENDBRANCH   2   4
TORSDOF 16
ENDMDL
MODEL      327
REMARK 921   NORMALIZED FREE ENERGY PREDICTED BY IDOCK:   -3.96 KCAL/MOL
REMARK 922        TOTAL FREE ENERGY PREDICTED BY IDOCK:   -9.74 KCAL/MOL
REMARK 923 INTER-LIGAND FREE ENERGY PREDICTED BY IDOCK:   -9.22 KCAL/MOL
REMARK 924 INTRA-LIGAND FREE ENERGY PREDICTED BY IDOCK:   -0.52 KCAL/MOL
REMARK 927      BINDING AFFINITY PREDICTED BY RF-SCORE:    0.00 PKD
ROOT
HETATM    1  O   UNL     1      -7.472   2.599  70.111  1.00  0.00    -0.043 OA 
HETATM    2  C   UNL     1      -8.895   2.565  70.227  1.00  0.00    -0.081 C  
HETATM    3  H   UNL     1      -7.076   1.857  70.553  1.00  0.00     0.000 HD 
ENDROOT
BRANCH   2   4
HETATM    4  C   UNL     1      -9.523   3.742  69.525  1.00  0.00    -0.257 A  
HETATM    5  C   UNL     1      -9.342   4.012  68.164  1.00  0.00    -0.164 A  
HETATM    6  O   UNL     1      -8.632   3.173  67.350  1.00  0.00    -0.097 OA 
HETATM    7  C   UNL     1      -9.881   5.150  67.571  1.00  0.00    -0.193 A  
HETATM    8  C   UNL     1     -10.626   6.044  68.336  1.00  0.00    -0.322 A  
HETATM    9  H   UNL     1      -8.509   3.356  66.427  1.00  0.00     0.000 HD 
HETATM   10  C   UNL     1     -10.833   5.810  69.703  1.00  0.00    -0.418 A  
HETATM   11  C   UNL     1     -10.264   4.663  70.286  1.00  0.00    -0.205 A  
BRANCH  10  12
HETATM   12  C   UNL     1     -11.587   6.828  70.531  1.00  0.00    -0.372 C  
HETATM   13  O   UNL     1     -11.933   6.270  71.807  1.00  0.00    -0.321 OA 
HETATM   14  H   UNL     1     -12.406   6.909  72.327  1.00  0.00     0.000 HD 
BRANCH  12  15
HETATM   15  C   UNL     1     -10.730   8.095  70.736  1.00  0.00    -0.222 C  
BRANCH  15  16
HETATM   16  N   UNL     1     -11.234   9.219  69.928  1.00  0.00    -0.390 NA 
HETATM   17  H   UNL     1     -11.478  10.024  70.504  1.00  0.00     0.000 HD 
BRANCH  16  18
HETATM   18  C   UNL     1     -10.268   9.563  68.890  1.00  0.00    -0.199 C  
BRANCH  18  19
HETATM   19  C   UNL     1     -10.781   9.115  67.524  1.00  0.00    -0.255 C  
BRANCH  19  20
HETATM   20  C   UNL     1      -9.774   9.484  66.436  1.00  0.00    -0.295 C  
BRANCH  20  21
HETATM   21  C   UNL     1     -10.224  10.721  65.667  1.00  0.00    -0.320 C  
BRANCH  21  22
HETATM   22  C   UNL     1      -9.922  10.584  64.178  1.00  0.00    -0.385 C  
BRANCH  22  23
HETATM   23  C   UNL     1     -10.924  11.376  63.353  1.00  0.00    -0.258 C  
BRANCH  23  24
HETATM   24  O   UNL     1     -10.884  12.738  63.766  1.00  0.00    -0.407 OA 
BRANCH  24  25
HETATM   25  C   UNL     1     -12.002  13.046  64.596  1.00  0.00    -0.392 C  
BRANCH  25  26
HETATM   26  C   UNL     1     -12.230  14.548  64.611  1.00  0.00    -0.460 C  
BRANCH  26  27
HETATM   27  O   UNL     1     -11.069  15.185  65.145  1.00  0.00    -0.362 OA 
BRANCH  27  28
HETATM   28  C   UNL     1     -10.462  14.393  66.156  1.00  0.00    -0.291 C  
BRANCH  28  29
HETATM   29  C   UNL     1     -10.826  14.964  67.499  1.00  0.00    -0.292 A  
HETATM   30  C   UNL     1     -11.499  14.193  68.463  1.00  0.00    -0.300 A  
HETATM   31 CL   UNL     1     -12.013  12.570  68.153  1.00  0.00    -0.352 Cl 
HETATM   32  C   UNL     1     -11.789  14.714  69.732  1.00  0.00    -0.366 A  
HETATM   33  C   UNL     1     -11.434  16.020  70.051  1.00  0.00    -0.334 A  
HETATM   34  C   UNL     1     -10.815  16.817  69.094  1.00  0.00    -0.287 A  
HETATM   35  C   UNL     1     -10.524  16.299  67.825  1.00  0.00    -0.295 A  
HETATM   36 CL   UNL     1      -9.783  17.379  66.694  1.00  0.00    -0.280 Cl 
ENDBRANCH  28  29
ENDBRANCH  27  28
ENDBRANCH  26  27
ENDBRANCH  25  26
ENDBRANCH  24  25
ENDBRANCH  23  24
ENDBRANCH  22  23
ENDBRANCH  21  22
ENDBRANCH  20  21
ENDBRANCH  19  20
ENDBRANCH  18  19
ENDBRANCH  16  18
ENDBRANCH  15  16
ENDBRANCH  12  15
ENDBRANCH  10  12
ENDBRANCH   2   4
TORSDOF 16
ENDMDL
MODEL      328
REMARK 921   NORMALIZED FREE ENERGY PREDICTED BY IDOCK:   -3.96 KCAL/MOL
REMARK 922        TOTAL FREE ENERGY PREDICTED BY IDOCK:   -9.73 KCAL/MOL
REMARK 923 INTER-LIGAND FREE ENERGY PREDICTED BY IDOCK:   -8.53 KCAL/MOL
REMARK 924 INTRA-LIGAND FREE ENERGY PREDICTED BY IDOCK:   -1.20 KCAL/MOL
REMARK 927      BINDING AFFINITY PREDICTED BY RF-SCORE:    0.00 PKD
ROOT
HETATM    1  O   UNL     1      -8.799   3.246  71.127  1.00  0.00    -0.075 OA 
HETATM    2  C   UNL     1      -9.729   3.901  71.990  1.00  0.00    -0.164 C  
HETATM    3  H   UNL     1      -8.330   2.561  71.588  1.00  0.00     0.000 HD 
ENDROOT
BRANCH   2   4
HETATM    4  C   UNL     1     -10.474   4.987  71.258  1.00  0.00    -0.213 A  
HETATM    5  C   UNL     1     -11.564   5.675  71.804  1.00  0.00     0.037 A  
HETATM    6  O   UNL     1     -11.988   5.455  73.085  1.00  0.00    -0.546 OA 
HETATM    7  C   UNL     1     -12.269   6.621  71.066  1.00  0.00    -0.344 A  
HETATM    8  C   UNL     1     -11.887   6.907  69.757  1.00  0.00    -0.068 A  
HETATM    9  H   UNL     1     -12.727   5.921  73.455  1.00  0.00     0.000 HD 
HETATM   10  C   UNL     1     -10.799   6.242  69.174  1.00  0.00    -0.403 A  
HETATM   11  C   UNL     1     -10.112   5.276  69.930  1.00  0.00    -0.333 A  
BRANCH  10  12
HETATM   12  C   UNL     1     -10.442   6.516  67.728  1.00  0.00    -0.227 C  
HETATM   13  O   UNL     1     -11.384   5.876  66.855  1.00  0.00    -0.522 OA 
HETATM   14  H   UNL     1     -11.161   6.049  65.948  1.00  0.00     0.000 HD 
BRANCH  12  15
HETATM   15  C   UNL     1     -10.433   8.035  67.456  1.00  0.00    -0.260 C  
BRANCH  15  16
HETATM   16  N   UNL     1      -9.174   8.652  67.906  1.00  0.00    -0.139 NA 
HETATM   17  H   UNL     1      -8.648   9.056  67.131  1.00  0.00     0.000 HD 
BRANCH  16  18
HETATM   18  C   UNL     1      -9.442   9.633  68.953  1.00  0.00    -0.157 C  
BRANCH  18  19
HETATM   19  C   UNL     1     -10.929   9.974  68.986  1.00  0.00    -0.249 C  
BRANCH  19  20
HETATM   20  C   UNL     1     -11.225  10.928  70.143  1.00  0.00    -0.317 C  
BRANCH  20  21
HETATM   21  C   UNL     1     -12.022  12.137  69.668  1.00  0.00    -0.351 C  
BRANCH  21  22
HETATM   22  C   UNL     1     -11.146  13.095  68.866  1.00  0.00    -0.310 C  
BRANCH  22  23
HETATM   23  C   UNL     1     -11.764  13.376  67.506  1.00  0.00    -0.366 C  
BRANCH  23  24
HETATM   24  O   UNL     1     -10.885  12.895  66.495  1.00  0.00    -0.266 OA 
BRANCH  24  25
HETATM   25  C   UNL     1      -9.894  13.872  66.182  1.00  0.00    -0.302 C  
BRANCH  25  26
HETATM   26  C   UNL     1     -10.538  15.246  66.101  1.00  0.00    -0.313 C  
BRANCH  26  27
HETATM   27  O   UNL     1      -9.593  16.224  66.537  1.00  0.00    -0.234 OA 
BRANCH  27  28
HETATM   28  C   UNL     1      -9.333  16.108  67.929  1.00  0.00    -0.212 C  
BRANCH  28  29
HETATM   29  C   UNL     1      -8.333  17.161  68.322  1.00  0.00    -0.232 A  
HETATM   30  C   UNL     1      -8.698  18.515  68.422  1.00  0.00    -0.327 A  
HETATM   31 CL   UNL     1     -10.292  19.072  68.040  1.00  0.00    -0.463 Cl 
HETATM   32  C   UNL     1      -7.776  19.484  68.839  1.00  0.00    -0.369 A  
HETATM   33  C   UNL     1      -6.466  19.123  69.139  1.00  0.00    -0.321 A  
HETATM   34  C   UNL     1      -6.070  17.797  68.994  1.00  0.00    -0.211 A  
HETATM   35  C   UNL     1      -6.990  16.827  68.578  1.00  0.00    -0.168 A  
HETATM   36 CL   UNL     1      -6.391  15.213  68.398  1.00  0.00    -0.102 Cl 
ENDBRANCH  28  29
ENDBRANCH  27  28
ENDBRANCH  26  27
ENDBRANCH  25  26
ENDBRANCH  24  25
ENDBRANCH  23  24
ENDBRANCH  22  23
ENDBRANCH  21  22
ENDBRANCH  20  21
ENDBRANCH  19  20
ENDBRANCH  18  19
ENDBRANCH  16  18
ENDBRANCH  15  16
ENDBRANCH  12  15
ENDBRANCH  10  12
ENDBRANCH   2   4
TORSDOF 16
ENDMDL
MODEL      329
REMARK 921   NORMALIZED FREE ENERGY PREDICTED BY IDOCK:   -3.95 KCAL/MOL
REMARK 922        TOTAL FREE ENERGY PREDICTED BY IDOCK:   -9.72 KCAL/MOL
REMARK 923 INTER-LIGAND FREE ENERGY PREDICTED BY IDOCK:   -7.65 KCAL/MOL
REMARK 924 INTRA-LIGAND FREE ENERGY PREDICTED BY IDOCK:   -2.07 KCAL/MOL
REMARK 927      BINDING AFFINITY PREDICTED BY RF-SCORE:    0.00 PKD
ROOT
HETATM    1  O   UNL     1     -11.011   5.234  66.462  1.00  0.00    -0.506 OA 
HETATM    2  C   UNL     1      -9.683   5.448  65.981  1.00  0.00    -0.112 C  
HETATM    3  H   UNL     1     -11.368   4.420  66.128  1.00  0.00     0.000 HD 
ENDROOT
BRANCH   2   4
HETATM    4  C   UNL     1      -9.118   6.740  66.512  1.00  0.00    -0.171 A  
HETATM    5  C   UNL     1      -9.136   7.088  67.867  1.00  0.00    -0.127 A  
HETATM    6  O   UNL     1      -9.610   6.235  68.825  1.00  0.00    -0.122 OA 
HETATM    7  C   UNL     1      -8.667   8.322  68.306  1.00  0.00    -0.136 A  
HETATM    8  C   UNL     1      -8.158   9.238  67.389  1.00  0.00    -0.110 A  
HETATM    9  H   UNL     1      -9.623   6.471  69.745  1.00  0.00     0.000 HD 
HETATM   10  C   UNL     1      -8.120   8.928  66.022  1.00  0.00    -0.111 A  
HETATM   11  C   UNL     1      -8.615   7.682  65.598  1.00  0.00    -0.142 A  
BRANCH  10  12
HETATM   12  C   UNL     1      -7.626   9.963  65.033  1.00  0.00    -0.134 C  
HETATM   13  O   UNL     1      -6.465   9.478  64.347  1.00  0.00    -0.086 OA 
HETATM   14  H   UNL     1      -6.155  10.127  63.726  1.00  0.00     0.000 HD 
BRANCH  12  15
HETATM   15  C   UNL     1      -8.732  10.296  64.009  1.00  0.00    -0.202 C  
BRANCH  15  16
HETATM   16  N   UNL     1      -9.362  11.594  64.304  1.00  0.00    -0.435 NA 
HETATM   17  H   UNL     1      -9.330  12.225  63.503  1.00  0.00     0.000 HD 
BRANCH  16  18
HETATM   18  C   UNL     1     -10.725  11.393  64.785  1.00  0.00    -0.298 C  
BRANCH  18  19
HETATM   19  C   UNL     1     -11.062  12.427  65.856  1.00  0.00    -0.349 C  
BRANCH  19  20
HETATM   20  C   UNL     1     -10.273  12.138  67.133  1.00  0.00    -0.226 C  
BRANCH  20  21
HETATM   21  C   UNL     1      -9.319  13.280  67.461  1.00  0.00    -0.218 C  
BRANCH  21  22
HETATM   22  C   UNL     1      -8.143  12.793  68.302  1.00  0.00    -0.154 C  
BRANCH  22  23
HETATM   23  C   UNL     1      -7.008  13.804  68.272  1.00  0.00    -0.109 C  
BRANCH  23  24
HETATM   24  O   UNL     1      -6.928  14.441  69.543  1.00  0.00    -0.144 OA 
BRANCH  24  25
HETATM   25  C   UNL     1      -6.485  15.789  69.404  1.00  0.00    -0.165 C  
BRANCH  25  26
HETATM   26  C   UNL     1      -6.129  16.064  67.952  1.00  0.00    -0.133 C  
BRANCH  26  27
HETATM   27  O   UNL     1      -6.448  17.423  67.649  1.00  0.00    -0.144 OA 
BRANCH  27  28
HETATM   28  C   UNL     1      -7.176  18.032  68.705  1.00  0.00    -0.278 C  
BRANCH  28  29
HETATM   29  C   UNL     1      -8.436  18.629  68.141  1.00  0.00    -0.336 A  
HETATM   30  C   UNL     1      -8.432  19.889  67.516  1.00  0.00    -0.329 A  
HETATM   31 CL   UNL     1      -7.005  20.863  67.411  1.00  0.00    -0.411 Cl 
HETATM   32  C   UNL     1      -9.598  20.417  66.946  1.00  0.00    -0.546 A  
HETATM   33  C   UNL     1     -10.794  19.709  67.011  1.00  0.00    -0.518 A  
HETATM   34  C   UNL     1     -10.832  18.486  67.672  1.00  0.00    -0.319 A  
HETATM   35  C   UNL     1      -9.667  17.956  68.242  1.00  0.00    -0.327 A  
HETATM   36 CL   UNL     1      -9.825  16.444  69.070  1.00  0.00    -0.256 Cl 
ENDBRANCH  28  29
ENDBRANCH  27  28
ENDBRANCH  26  27
ENDBRANCH  25  26
ENDBRANCH  24  25
ENDBRANCH  23  24
ENDBRANCH  22  23
ENDBRANCH  21  22
ENDBRANCH  20  21
ENDBRANCH  19  20
ENDBRANCH  18  19
ENDBRANCH  16  18
ENDBRANCH  15  16
ENDBRANCH  12  15
ENDBRANCH  10  12
ENDBRANCH   2   4
TORSDOF 16
ENDMDL
MODEL      330
REMARK 921   NORMALIZED FREE ENERGY PREDICTED BY IDOCK:   -3.94 KCAL/MOL
REMARK 922        TOTAL FREE ENERGY PREDICTED BY IDOCK:   -9.69 KCAL/MOL
REMARK 923 INTER-LIGAND FREE ENERGY PREDICTED BY IDOCK:   -7.30 KCAL/MOL
REMARK 924 INTRA-LIGAND FREE ENERGY PREDICTED BY IDOCK:   -2.39 KCAL/MOL
REMARK 927      BINDING AFFINITY PREDICTED BY RF-SCORE:    0.00 PKD
ROOT
HETATM    1  O   UNL     1     -12.809  10.763  68.953  1.00  0.00    -0.472 OA 
HETATM    2  C   UNL     1     -11.484  11.223  69.218  1.00  0.00    -0.301 C  
HETATM    3  H   UNL     1     -13.274  11.367  68.387  1.00  0.00     0.000 HD 
ENDROOT
BRANCH   2   4
HETATM    4  C   UNL     1     -10.747  10.264  70.116  1.00  0.00    -0.334 A  
HETATM    5  C   UNL     1      -9.368  10.043  70.039  1.00  0.00    -0.119 A  
HETATM    6  O   UNL     1      -8.571  10.747  69.180  1.00  0.00    -0.240 OA 
HETATM    7  C   UNL     1      -8.738   9.094  70.840  1.00  0.00    -0.277 A  
HETATM    8  C   UNL     1      -9.484   8.347  71.748  1.00  0.00    -0.302 A  
HETATM    9  H   UNL     1      -7.635  10.597  69.127  1.00  0.00     0.000 HD 
HETATM   10  C   UNL     1     -10.868   8.538  71.858  1.00  0.00    -0.392 A  
HETATM   11  C   UNL     1     -11.487   9.489  71.027  1.00  0.00    -0.420 A  
BRANCH  10  12
HETATM   12  C   UNL     1     -11.672   7.668  72.801  1.00  0.00    -0.223 C  
HETATM   13  O   UNL     1     -12.783   7.081  72.109  1.00  0.00    -0.504 OA 
HETATM   14  H   UNL     1     -13.287   6.535  72.700  1.00  0.00     0.000 HD 
BRANCH  12  15
HETATM   15  C   UNL     1     -10.783   6.554  73.392  1.00  0.00    -0.270 C  
BRANCH  15  16
HETATM   16  N   UNL     1     -11.417   5.232  73.252  1.00  0.00    -0.508 NA 
HETATM   17  H   UNL     1     -12.278   5.277  72.707  1.00  0.00     0.000 HD 
BRANCH  16  18
HETATM   18  C   UNL     1     -10.467   4.277  72.691  1.00  0.00    -0.171 C  
BRANCH  18  19
HETATM   19  C   UNL     1     -10.146   4.642  71.245  1.00  0.00    -0.245 C  
BRANCH  19  20
HETATM   20  C   UNL     1      -9.055   3.721  70.699  1.00  0.00    -0.181 C  
BRANCH  20  21
HETATM   21  C   UNL     1      -7.725   3.970  71.401  1.00  0.00    -0.064 C  
BRANCH  21  22
HETATM   22  C   UNL     1      -6.688   4.533  70.434  1.00  0.00    -0.036 C  
BRANCH  22  23
HETATM   23  C   UNL     1      -6.731   6.053  70.429  1.00  0.00    -0.052 C  
BRANCH  23  24
HETATM   24  O   UNL     1      -7.256   6.493  69.181  1.00  0.00    -0.085 OA 
BRANCH  24  25
HETATM   25  C   UNL     1      -6.439   6.041  68.103  1.00  0.00    -0.046 C  
BRANCH  25  26
HETATM   26  C   UNL     1      -6.390   7.103  67.017  1.00  0.00    -0.053 C  
BRANCH  26  27
HETATM   27  O   UNL     1      -6.473   6.464  65.743  1.00  0.00    -0.040 OA 
BRANCH  27  28
HETATM   28  C   UNL     1      -7.627   6.881  65.028  1.00  0.00    -0.104 C  
BRANCH  28  29
HETATM   29  C   UNL     1      -8.825   6.752  65.929  1.00  0.00    -0.127 A  
HETATM   30  C   UNL     1      -9.385   5.497  66.224  1.00  0.00    -0.156 A  
HETATM   31 CL   UNL     1      -8.785   4.031  65.528  1.00  0.00    -0.117 Cl 
HETATM   32  C   UNL     1     -10.469   5.379  67.105  1.00  0.00    -0.298 A  
HETATM   33  C   UNL     1     -11.028   6.512  67.686  1.00  0.00    -0.426 A  
HETATM   34  C   UNL     1     -10.524   7.767  67.364  1.00  0.00    -0.362 A  
HETATM   35  C   UNL     1      -9.440   7.889  66.485  1.00  0.00    -0.214 A  
HETATM   36 CL   UNL     1      -8.906   9.495  66.125  1.00  0.00    -0.164 Cl 
ENDBRANCH  28  29
ENDBRANCH  27  28
ENDBRANCH  26  27
ENDBRANCH  25  26
ENDBRANCH  24  25
ENDBRANCH  23  24
ENDBRANCH  22  23
ENDBRANCH  21  22
ENDBRANCH  20  21
ENDBRANCH  19  20
ENDBRANCH  18  19
ENDBRANCH  16  18
ENDBRANCH  15  16
ENDBRANCH  12  15
ENDBRANCH  10  12
ENDBRANCH   2   4
TORSDOF 16
ENDMDL
MODEL      331
REMARK 921   NORMALIZED FREE ENERGY PREDICTED BY IDOCK:   -3.93 KCAL/MOL
REMARK 922        TOTAL FREE ENERGY PREDICTED BY IDOCK:   -9.67 KCAL/MOL
REMARK 923 INTER-LIGAND FREE ENERGY PREDICTED BY IDOCK:   -8.03 KCAL/MOL
REMARK 924 INTRA-LIGAND FREE ENERGY PREDICTED BY IDOCK:   -1.64 KCAL/MOL
REMARK 927      BINDING AFFINITY PREDICTED BY RF-SCORE:    0.00 PKD
ROOT
HETATM    1  O   UNL     1     -12.542   8.297  72.704  1.00  0.00    -0.582 OA 
HETATM    2  C   UNL     1     -11.153   8.180  72.391  1.00  0.00    -0.369 C  
HETATM    3  H   UNL     1     -12.696   8.162  73.631  1.00  0.00     0.000 HD 
ENDROOT
BRANCH   2   4
HETATM    4  C   UNL     1     -10.910   8.396  70.920  1.00  0.00    -0.267 A  
HETATM    5  C   UNL     1     -11.249   9.576  70.249  1.00  0.00    -0.261 A  
HETATM    6  O   UNL     1     -11.765  10.658  70.908  1.00  0.00    -0.328 OA 
HETATM    7  C   UNL     1     -11.073   9.707  68.875  1.00  0.00    -0.097 A  
HETATM    8  C   UNL     1     -10.541   8.650  68.139  1.00  0.00    -0.189 A  
HETATM    9  H   UNL     1     -11.995  11.459  70.453  1.00  0.00     0.000 HD 
HETATM   10  C   UNL     1     -10.187   7.451  68.773  1.00  0.00    -0.199 A  
HETATM   11  C   UNL     1     -10.390   7.334  70.160  1.00  0.00    -0.221 A  
BRANCH  10  12
HETATM   12  C   UNL     1      -9.675   6.290  67.946  1.00  0.00    -0.122 C  
HETATM   13  O   UNL     1     -10.773   5.514  67.449  1.00  0.00    -0.228 OA 
HETATM   14  H   UNL     1     -10.452   4.786  66.930  1.00  0.00     0.000 HD 
BRANCH  12  15
HETATM   15  C   UNL     1      -8.827   6.806  66.764  1.00  0.00    -0.124 C  
BRANCH  15  16
HETATM   16  N   UNL     1      -7.529   7.328  67.224  1.00  0.00    -0.097 NA 
HETATM   17  H   UNL     1      -6.846   6.583  67.365  1.00  0.00     0.000 HD 
BRANCH  16  18
HETATM   18  C   UNL     1      -7.041   8.346  66.299  1.00  0.00    -0.077 C  
BRANCH  18  19
HETATM   19  C   UNL     1      -7.001   9.707  66.989  1.00  0.00    -0.085 C  
BRANCH  19  20
HETATM   20  C   UNL     1      -7.509  10.793  66.041  1.00  0.00    -0.125 C  
BRANCH  20  21
HETATM   21  C   UNL     1      -8.953  10.532  65.629  1.00  0.00    -0.200 C  
BRANCH  21  22
HETATM   22  C   UNL     1      -9.860  11.688  66.038  1.00  0.00    -0.258 C  
BRANCH  22  23
HETATM   23  C   UNL     1     -10.820  12.040  64.913  1.00  0.00    -0.301 C  
BRANCH  23  24
HETATM   24  O   UNL     1     -10.348  13.212  64.257  1.00  0.00    -0.421 OA 
BRANCH  24  25
HETATM   25  C   UNL     1     -11.301  14.267  64.360  1.00  0.00    -0.273 C  
BRANCH  25  26
HETATM   26  C   UNL     1     -11.875  14.303  65.767  1.00  0.00    -0.374 C  
BRANCH  26  27
HETATM   27  O   UNL     1     -11.391  15.470  66.432  1.00  0.00    -0.177 OA 
BRANCH  27  28
HETATM   28  C   UNL     1     -10.310  16.059  65.724  1.00  0.00    -0.378 C  
BRANCH  28  29
HETATM   29  C   UNL     1      -9.437  16.796  66.702  1.00  0.00    -0.275 A  
HETATM   30  C   UNL     1      -8.535  16.112  67.537  1.00  0.00    -0.162 A  
HETATM   31 CL   UNL     1      -8.414  14.386  67.547  1.00  0.00    -0.185 Cl 
HETATM   32  C   UNL     1      -7.688  16.808  68.410  1.00  0.00    -0.208 A  
HETATM   33  C   UNL     1      -7.742  18.196  68.483  1.00  0.00    -0.307 A  
HETATM   34  C   UNL     1      -8.664  18.888  67.705  1.00  0.00    -0.312 A  
HETATM   35  C   UNL     1      -9.513  18.195  66.831  1.00  0.00    -0.286 A  
HETATM   36 CL   UNL     1     -10.646  19.144  65.931  1.00  0.00    -0.544 Cl 
ENDBRANCH  28  29
ENDBRANCH  27  28
ENDBRANCH  26  27
ENDBRANCH  25  26
ENDBRANCH  24  25
ENDBRANCH  23  24
ENDBRANCH  22  23
ENDBRANCH  21  22
ENDBRANCH  20  21
ENDBRANCH  19  20
ENDBRANCH  18  19
ENDBRANCH  16  18
ENDBRANCH  15  16
ENDBRANCH  12  15
ENDBRANCH  10  12
ENDBRANCH   2   4
TORSDOF 16
ENDMDL
MODEL      332
REMARK 921   NORMALIZED FREE ENERGY PREDICTED BY IDOCK:   -3.93 KCAL/MOL
REMARK 922        TOTAL FREE ENERGY PREDICTED BY IDOCK:   -9.67 KCAL/MOL
REMARK 923 INTER-LIGAND FREE ENERGY PREDICTED BY IDOCK:   -8.17 KCAL/MOL
REMARK 924 INTRA-LIGAND FREE ENERGY PREDICTED BY IDOCK:   -1.50 KCAL/MOL
REMARK 927      BINDING AFFINITY PREDICTED BY RF-SCORE:    0.00 PKD
ROOT
HETATM    1  O   UNL     1      -6.763  10.643  63.450  1.00  0.00    -0.343 OA 
HETATM    2  C   UNL     1      -6.363  10.091  64.705  1.00  0.00    -0.125 C  
HETATM    3  H   UNL     1      -6.261  11.422  63.244  1.00  0.00     0.000 HD 
ENDROOT
BRANCH   2   4
HETATM    4  C   UNL     1      -7.160   8.855  65.031  1.00  0.00    -0.083 A  
HETATM    5  C   UNL     1      -7.298   7.774  64.152  1.00  0.00    -0.090 A  
HETATM    6  O   UNL     1      -6.649   7.735  62.950  1.00  0.00    -0.073 OA 
HETATM    7  C   UNL     1      -8.103   6.682  64.464  1.00  0.00    -0.073 A  
HETATM    8  C   UNL     1      -8.786   6.647  65.677  1.00  0.00    -0.050 A  
HETATM    9  H   UNL     1      -6.742   7.001  62.353  1.00  0.00     0.000 HD 
HETATM   10  C   UNL     1      -8.674   7.708  66.586  1.00  0.00    -0.150 A  
HETATM   11  C   UNL     1      -7.870   8.810  66.244  1.00  0.00    -0.102 A  
BRANCH  10  12
HETATM   12  C   UNL     1      -9.478   7.683  67.869  1.00  0.00    -0.143 C  
HETATM   13  O   UNL     1      -9.920   9.007  68.203  1.00  0.00    -0.161 OA 
HETATM   14  H   UNL     1     -10.424   8.991  69.007  1.00  0.00     0.000 HD 
BRANCH  12  15
HETATM   15  C   UNL     1     -10.700   6.752  67.719  1.00  0.00    -0.268 C  
BRANCH  15  16
HETATM   16  N   UNL     1     -11.451   6.647  68.981  1.00  0.00    -0.615 NA 
HETATM   17  H   UNL     1     -12.458   6.593  68.823  1.00  0.00     0.000 HD 
BRANCH  16  18
HETATM   18  C   UNL     1     -10.961   5.518  69.764  1.00  0.00    -0.105 C  
BRANCH  18  19
HETATM   19  C   UNL     1     -10.199   6.018  70.988  1.00  0.00    -0.253 C  
BRANCH  19  20
HETATM   20  C   UNL     1     -11.106   5.998  72.218  1.00  0.00    -0.324 C  
BRANCH  20  21
HETATM   21  C   UNL     1     -10.942   7.270  73.042  1.00  0.00    -0.388 C  
BRANCH  21  22
HETATM   22  C   UNL     1     -10.788   8.493  72.144  1.00  0.00    -0.427 C  
BRANCH  22  23
HETATM   23  C   UNL     1     -12.134   8.915  71.577  1.00  0.00    -0.330 C  
BRANCH  23  24
HETATM   24  O   UNL     1     -12.180  10.336  71.513  1.00  0.00    -0.374 OA 
BRANCH  24  25
HETATM   25  C   UNL     1     -12.354  10.775  70.167  1.00  0.00    -0.325 C  
BRANCH  25  26
HETATM   26  C   UNL     1     -11.594  12.073  69.950  1.00  0.00    -0.238 C  
BRANCH  26  27
HETATM   27  O   UNL     1     -11.621  12.395  68.559  1.00  0.00    -0.268 OA 
BRANCH  27  28
HETATM   28  C   UNL     1     -12.276  13.633  68.326  1.00  0.00    -0.130 C  
BRANCH  28  29
HETATM   29  C   UNL     1     -11.460  14.434  67.349  1.00  0.00    -0.377 A  
HETATM   30  C   UNL     1     -10.535  15.399  67.787  1.00  0.00    -0.266 A  
HETATM   31 CL   UNL     1     -10.319  15.778  69.461  1.00  0.00    -0.252 Cl 
HETATM   32  C   UNL     1      -9.740  16.105  66.874  1.00  0.00    -0.246 A  
HETATM   33  C   UNL     1      -9.872  15.879  65.508  1.00  0.00    -0.265 A  
HETATM   34  C   UNL     1     -10.819  14.969  65.051  1.00  0.00    -0.439 A  
HETATM   35  C   UNL     1     -11.614  14.261  65.961  1.00  0.00    -0.360 A  
HETATM   36 CL   UNL     1     -12.784  13.175  65.293  1.00  0.00    -0.528 Cl 
ENDBRANCH  28  29
ENDBRANCH  27  28
ENDBRANCH  26  27
ENDBRANCH  25  26
ENDBRANCH  24  25
ENDBRANCH  23  24
ENDBRANCH  22  23
ENDBRANCH  21  22
ENDBRANCH  20  21
ENDBRANCH  19  20
ENDBRANCH  18  19
ENDBRANCH  16  18
ENDBRANCH  15  16
ENDBRANCH  12  15
ENDBRANCH  10  12
ENDBRANCH   2   4
TORSDOF 16
ENDMDL
MODEL      333
REMARK 921   NORMALIZED FREE ENERGY PREDICTED BY IDOCK:   -3.91 KCAL/MOL
REMARK 922        TOTAL FREE ENERGY PREDICTED BY IDOCK:   -9.64 KCAL/MOL
REMARK 923 INTER-LIGAND FREE ENERGY PREDICTED BY IDOCK:   -8.53 KCAL/MOL
REMARK 924 INTRA-LIGAND FREE ENERGY PREDICTED BY IDOCK:   -1.12 KCAL/MOL
REMARK 927      BINDING AFFINITY PREDICTED BY RF-SCORE:    0.00 PKD
ROOT
HETATM    1  O   UNL     1      -7.238   4.193  70.486  1.00  0.00    -0.040 OA 
HETATM    2  C   UNL     1      -8.599   3.801  70.304  1.00  0.00    -0.061 C  
HETATM    3  H   UNL     1      -6.725   4.019  69.705  1.00  0.00     0.000 HD 
ENDROOT
BRANCH   2   4
HETATM    4  C   UNL     1      -9.411   4.077  71.542  1.00  0.00    -0.222 A  
HETATM    5  C   UNL     1     -10.075   3.080  72.266  1.00  0.00    -0.148 A  
HETATM    6  O   UNL     1      -9.971   1.758  71.935  1.00  0.00    -0.136 OA 
HETATM    7  C   UNL     1     -10.874   3.389  73.363  1.00  0.00    -0.311 A  
HETATM    8  C   UNL     1     -11.019   4.714  73.767  1.00  0.00    -0.368 A  
HETATM    9  H   UNL     1     -10.421   1.081  72.425  1.00  0.00     0.000 HD 
HETATM   10  C   UNL     1     -10.369   5.743  73.071  1.00  0.00    -0.229 A  
HETATM   11  C   UNL     1      -9.581   5.411  71.954  1.00  0.00    -0.188 A  
BRANCH  10  12
HETATM   12  C   UNL     1     -10.593   7.183  73.482  1.00  0.00    -0.374 C  
HETATM   13  O   UNL     1      -9.576   7.598  74.404  1.00  0.00    -0.351 OA 
HETATM   14  H   UNL     1      -9.716   8.502  74.662  1.00  0.00     0.000 HD 
BRANCH  12  15
HETATM   15  C   UNL     1     -10.577   8.104  72.244  1.00  0.00    -0.309 C  
BRANCH  15  16
HETATM   16  N   UNL     1     -11.926   8.601  71.928  1.00  0.00    -0.331 NA 
HETATM   17  H   UNL     1     -12.545   8.568  72.739  1.00  0.00     0.000 HD 
BRANCH  16  18
HETATM   18  C   UNL     1     -11.847   9.942  71.358  1.00  0.00    -0.394 C  
BRANCH  18  19
HETATM   19  C   UNL     1     -13.234  10.576  71.310  1.00  0.00    -0.399 C  
BRANCH  19  20
HETATM   20  C   UNL     1     -13.215  11.937  72.006  1.00  0.00    -0.461 C  
BRANCH  20  21
HETATM   21  C   UNL     1     -12.616  13.008  71.102  1.00  0.00    -0.388 C  
BRANCH  21  22
HETATM   22  C   UNL     1     -13.073  14.402  71.520  1.00  0.00    -0.411 C  
BRANCH  22  23
HETATM   23  C   UNL     1     -12.414  15.464  70.655  1.00  0.00    -0.428 C  
BRANCH  23  24
HETATM   24  O   UNL     1     -12.664  15.159  69.287  1.00  0.00     0.069 OA 
BRANCH  24  25
HETATM   25  C   UNL     1     -11.605  15.641  68.462  1.00  0.00    -0.370 C  
BRANCH  25  26
HETATM   26  C   UNL     1     -10.269  15.178  69.021  1.00  0.00    -0.241 C  
BRANCH  26  27
HETATM   27  O   UNL     1      -9.960  13.896  68.474  1.00  0.00    -0.226 OA 
BRANCH  27  28
HETATM   28  C   UNL     1      -9.598  13.991  67.103  1.00  0.00    -0.245 C  
BRANCH  28  29
HETATM   29  C   UNL     1      -9.525  12.604  66.527  1.00  0.00    -0.247 A  
HETATM   30  C   UNL     1      -8.361  11.824  66.643  1.00  0.00    -0.136 A  
HETATM   31 CL   UNL     1      -6.920  12.423  67.392  1.00  0.00    -0.145 Cl 
HETATM   32  C   UNL     1      -8.316  10.513  66.149  1.00  0.00    -0.155 A  
HETATM   33  C   UNL     1      -9.422   9.967  65.509  1.00  0.00    -0.313 A  
HETATM   34  C   UNL     1     -10.566  10.739  65.335  1.00  0.00    -0.224 A  
HETATM   35  C   UNL     1     -10.614  12.050  65.828  1.00  0.00    -0.263 A  
HETATM   36 CL   UNL     1     -12.069  12.940  65.534  1.00  0.00    -0.481 Cl 
ENDBRANCH  28  29
ENDBRANCH  27  28
ENDBRANCH  26  27
ENDBRANCH  25  26
ENDBRANCH  24  25
ENDBRANCH  23  24
ENDBRANCH  22  23
ENDBRANCH  21  22
ENDBRANCH  20  21
ENDBRANCH  19  20
ENDBRANCH  18  19
ENDBRANCH  16  18
ENDBRANCH  15  16
ENDBRANCH  12  15
ENDBRANCH  10  12
ENDBRANCH   2   4
TORSDOF 16
ENDMDL
MODEL      334
REMARK 921   NORMALIZED FREE ENERGY PREDICTED BY IDOCK:   -3.90 KCAL/MOL
REMARK 922        TOTAL FREE ENERGY PREDICTED BY IDOCK:   -9.62 KCAL/MOL
REMARK 923 INTER-LIGAND FREE ENERGY PREDICTED BY IDOCK:   -7.41 KCAL/MOL
REMARK 924 INTRA-LIGAND FREE ENERGY PREDICTED BY IDOCK:   -2.21 KCAL/MOL
REMARK 927      BINDING AFFINITY PREDICTED BY RF-SCORE:    0.00 PKD
ROOT
HETATM    1  O   UNL     1      -7.490   6.284  68.906  1.00  0.00    -0.083 OA 
HETATM    2  C   UNL     1      -7.362   5.821  67.561  1.00  0.00    -0.077 C  
HETATM    3  H   UNL     1      -7.464   5.559  69.520  1.00  0.00     0.000 HD 
ENDROOT
BRANCH   2   4
HETATM    4  C   UNL     1      -7.404   6.971  66.588  1.00  0.00    -0.080 A  
HETATM    5  C   UNL     1      -8.144   6.946  65.400  1.00  0.00    -0.133 A  
HETATM    6  O   UNL     1      -8.948   5.891  65.072  1.00  0.00    -0.362 OA 
HETATM    7  C   UNL     1      -8.097   8.002  64.494  1.00  0.00    -0.132 A  
HETATM    8  C   UNL     1      -7.309   9.117  64.766  1.00  0.00    -0.098 A  
HETATM    9  H   UNL     1      -9.450   5.874  64.266  1.00  0.00     0.000 HD 
HETATM   10  C   UNL     1      -6.554   9.182  65.945  1.00  0.00    -0.071 A  
HETATM   11  C   UNL     1      -6.600   8.097  66.839  1.00  0.00    -0.057 A  
BRANCH  10  12
HETATM   12  C   UNL     1      -5.649  10.372  66.191  1.00  0.00    -0.074 C  
HETATM   13  O   UNL     1      -5.508  11.142  64.990  1.00  0.00    -0.475 OA 
HETATM   14  H   UNL     1      -4.941  11.889  65.144  1.00  0.00     0.000 HD 
BRANCH  12  15
HETATM   15  C   UNL     1      -6.226  11.261  67.312  1.00  0.00    -0.081 C  
BRANCH  15  16
HETATM   16  N   UNL     1      -7.243  12.189  66.790  1.00  0.00    -0.378 NA 
HETATM   17  H   UNL     1      -8.149  11.736  66.671  1.00  0.00     0.000 HD 
BRANCH  16  18
HETATM   18  C   UNL     1      -7.333  13.369  67.643  1.00  0.00    -0.168 C  
BRANCH  18  19
HETATM   19  C   UNL     1      -8.762  13.547  68.147  1.00  0.00    -0.174 C  
BRANCH  19  20
HETATM   20  C   UNL     1      -9.271  14.947  67.805  1.00  0.00    -0.186 C  
BRANCH  20  21
HETATM   21  C   UNL     1      -9.740  15.682  69.055  1.00  0.00    -0.241 C  
BRANCH  21  22
HETATM   22  C   UNL     1     -11.210  16.076  68.944  1.00  0.00    -0.353 C  
BRANCH  22  23
HETATM   23  C   UNL     1     -12.107  14.904  69.307  1.00  0.00    -0.251 C  
BRANCH  23  24
HETATM   24  O   UNL     1     -11.681  14.370  70.556  1.00  0.00    -0.286 OA 
BRANCH  24  25
HETATM   25  C   UNL     1     -12.268  13.091  70.784  1.00  0.00    -0.272 C  
BRANCH  25  26
HETATM   26  C   UNL     1     -11.907  12.151  69.645  1.00  0.00    -0.322 C  
BRANCH  26  27
HETATM   27  O   UNL     1     -12.018  10.805  70.106  1.00  0.00    -0.290 OA 
BRANCH  27  28
HETATM   28  C   UNL     1     -10.745  10.183  70.202  1.00  0.00    -0.300 C  
BRANCH  28  29
HETATM   29  C   UNL     1     -10.892   8.726  69.855  1.00  0.00    -0.211 A  
HETATM   30  C   UNL     1     -10.627   8.254  68.557  1.00  0.00    -0.100 A  
HETATM   31 CL   UNL     1     -10.181   9.312  67.262  1.00  0.00    -0.293 Cl 
HETATM   32  C   UNL     1     -10.715   6.889  68.253  1.00  0.00    -0.265 A  
HETATM   33  C   UNL     1     -11.094   5.975  69.231  1.00  0.00    -0.424 A  
HETATM   34  C   UNL     1     -11.413   6.428  70.506  1.00  0.00    -0.444 A  
HETATM   35  C   UNL     1     -11.325   7.792  70.813  1.00  0.00    -0.279 A  
HETATM   36 CL   UNL     1     -11.773   8.259  72.419  1.00  0.00    -0.450 Cl 
ENDBRANCH  28  29
ENDBRANCH  27  28
ENDBRANCH  26  27
ENDBRANCH  25  26
ENDBRANCH  24  25
ENDBRANCH  23  24
ENDBRANCH  22  23
ENDBRANCH  21  22
ENDBRANCH  20  21
ENDBRANCH  19  20
ENDBRANCH  18  19
ENDBRANCH  16  18
ENDBRANCH  15  16
ENDBRANCH  12  15
ENDBRANCH  10  12
ENDBRANCH   2   4
TORSDOF 16
ENDMDL
MODEL      335
REMARK 921   NORMALIZED FREE ENERGY PREDICTED BY IDOCK:   -3.90 KCAL/MOL
REMARK 922        TOTAL FREE ENERGY PREDICTED BY IDOCK:   -9.62 KCAL/MOL
REMARK 923 INTER-LIGAND FREE ENERGY PREDICTED BY IDOCK:   -7.88 KCAL/MOL
REMARK 924 INTRA-LIGAND FREE ENERGY PREDICTED BY IDOCK:   -1.74 KCAL/MOL
REMARK 927      BINDING AFFINITY PREDICTED BY RF-SCORE:    0.00 PKD
ROOT
HETATM    1  O   UNL     1      -7.490   5.962  73.023  1.00  0.00    -0.093 OA 
HETATM    2  C   UNL     1      -8.804   5.911  73.581  1.00  0.00    -0.124 C  
HETATM    3  H   UNL     1      -6.851   5.592  73.621  1.00  0.00     0.000 HD 
ENDROOT
BRANCH   2   4
HETATM    4  C   UNL     1      -9.817   6.497  72.633  1.00  0.00    -0.179 A  
HETATM    5  C   UNL     1     -11.169   6.136  72.631  1.00  0.00    -0.274 A  
HETATM    6  O   UNL     1     -11.684   5.266  73.552  1.00  0.00    -0.419 OA 
HETATM    7  C   UNL     1     -12.057   6.649  71.691  1.00  0.00    -0.404 A  
HETATM    8  C   UNL     1     -11.606   7.550  70.729  1.00  0.00    -0.300 A  
HETATM    9  H   UNL     1     -12.602   5.020  73.551  1.00  0.00     0.000 HD 
HETATM   10  C   UNL     1     -10.260   7.940  70.697  1.00  0.00    -0.199 A  
HETATM   11  C   UNL     1      -9.376   7.395  71.645  1.00  0.00    -0.162 A  
BRANCH  10  12
HETATM   12  C   UNL     1      -9.775   8.867  69.602  1.00  0.00    -0.174 C  
HETATM   13  O   UNL     1      -8.896   9.860  70.148  1.00  0.00    -0.291 OA 
HETATM   14  H   UNL     1      -8.591  10.442  69.461  1.00  0.00     0.000 HD 
BRANCH  12  15
HETATM   15  C   UNL     1      -9.035   8.066  68.510  1.00  0.00    -0.133 C  
BRANCH  15  16
HETATM   16  N   UNL     1      -7.629   8.489  68.394  1.00  0.00    -0.095 NA 
HETATM   17  H   UNL     1      -6.993   7.825  68.837  1.00  0.00     0.000 HD 
BRANCH  16  18
HETATM   18  C   UNL     1      -7.288   8.720  66.995  1.00  0.00    -0.080 C  
BRANCH  18  19
HETATM   19  C   UNL     1      -6.107   9.682  66.894  1.00  0.00    -0.063 C  
BRANCH  19  20
HETATM   20  C   UNL     1      -6.389  10.947  67.705  1.00  0.00    -0.055 C  
BRANCH  20  21
HETATM   21  C   UNL     1      -5.931  12.193  66.956  1.00  0.00    -0.095 C  
BRANCH  21  22
HETATM   22  C   UNL     1      -5.918  13.413  67.872  1.00  0.00    -0.140 C  
BRANCH  22  23
HETATM   23  C   UNL     1      -7.320  13.977  68.034  1.00  0.00    -0.141 C  
BRANCH  23  24
HETATM   24  O   UNL     1      -7.229  15.385  68.222  1.00  0.00    -0.109 OA 
BRANCH  24  25
HETATM   25  C   UNL     1      -8.410  15.888  68.845  1.00  0.00    -0.226 C  
BRANCH  25  26
HETATM   26  C   UNL     1      -9.408  14.758  69.037  1.00  0.00    -0.160 C  
BRANCH  26  27
HETATM   27  O   UNL     1     -10.540  15.259  69.747  1.00  0.00    -0.256 OA 
BRANCH  27  28
HETATM   28  C   UNL     1     -11.753  14.738  69.224  1.00  0.00    -0.316 C  
BRANCH  28  29
HETATM   29  C   UNL     1     -12.238  13.641  70.132  1.00  0.00    -0.413 A  
HETATM   30  C   UNL     1     -12.059  12.286  69.801  1.00  0.00    -0.229 A  
HETATM   31 CL   UNL     1     -11.336  11.787  68.310  1.00  0.00    -0.314 Cl 
HETATM   32  C   UNL     1     -12.467  11.269  70.675  1.00  0.00    -0.439 A  
HETATM   33  C   UNL     1     -13.081  11.585  71.881  1.00  0.00    -0.492 A  
HETATM   34  C   UNL     1     -13.317  12.917  72.203  1.00  0.00    -0.615 A  
HETATM   35  C   UNL     1     -12.910  13.936  71.332  1.00  0.00    -0.361 A  
HETATM   36 CL   UNL     1     -13.277  15.560  71.808  1.00  0.00    -0.527 Cl 
ENDBRANCH  28  29
ENDBRANCH  27  28
ENDBRANCH  26  27
ENDBRANCH  25  26
ENDBRANCH  24  25
ENDBRANCH  23  24
ENDBRANCH  22  23
ENDBRANCH  21  22
ENDBRANCH  20  21
ENDBRANCH  19  20
ENDBRANCH  18  19
ENDBRANCH  16  18
ENDBRANCH  15  16
ENDBRANCH  12  15
ENDBRANCH  10  12
ENDBRANCH   2   4
TORSDOF 16
ENDMDL
MODEL      336
REMARK 921   NORMALIZED FREE ENERGY PREDICTED BY IDOCK:   -3.89 KCAL/MOL
REMARK 922        TOTAL FREE ENERGY PREDICTED BY IDOCK:   -9.59 KCAL/MOL
REMARK 923 INTER-LIGAND FREE ENERGY PREDICTED BY IDOCK:   -8.06 KCAL/MOL
REMARK 924 INTRA-LIGAND FREE ENERGY PREDICTED BY IDOCK:   -1.54 KCAL/MOL
REMARK 927      BINDING AFFINITY PREDICTED BY RF-SCORE:    0.00 PKD
ROOT
HETATM    1  O   UNL     1     -10.406  15.743  69.941  1.00  0.00    -0.294 OA 
HETATM    2  C   UNL     1     -11.379  15.636  68.902  1.00  0.00    -0.339 C  
HETATM    3  H   UNL     1     -10.274  16.649  70.194  1.00  0.00     0.000 HD 
ENDROOT
BRANCH   2   4
HETATM    4  C   UNL     1     -11.588  14.199  68.502  1.00  0.00    -0.351 A  
HETATM    5  C   UNL     1     -11.586  13.138  69.415  1.00  0.00    -0.300 A  
HETATM    6  O   UNL     1     -11.465  13.345  70.761  1.00  0.00    -0.383 OA 
HETATM    7  C   UNL     1     -11.710  11.817  68.995  1.00  0.00    -0.390 A  
HETATM    8  C   UNL     1     -11.850  11.530  67.639  1.00  0.00    -0.194 A  
HETATM    9  H   UNL     1     -11.464  12.626  71.381  1.00  0.00     0.000 HD 
HETATM   10  C   UNL     1     -11.858  12.563  66.691  1.00  0.00    -0.422 A  
HETATM   11  C   UNL     1     -11.712  13.890  67.136  1.00  0.00    -0.419 A  
BRANCH  10  12
HETATM   12  C   UNL     1     -11.941  12.227  65.217  1.00  0.00    -0.331 C  
HETATM   13  O   UNL     1     -13.295  12.342  64.758  1.00  0.00    -0.718 OA 
HETATM   14  H   UNL     1     -13.347  12.132  63.834  1.00  0.00     0.000 HD 
BRANCH  12  15
HETATM   15  C   UNL     1     -11.035  13.171  64.400  1.00  0.00    -0.390 C  
BRANCH  15  16
HETATM   16  N   UNL     1      -9.684  12.608  64.236  1.00  0.00    -0.564 NA 
HETATM   17  H   UNL     1      -9.208  12.491  65.130  1.00  0.00     0.000 HD 
BRANCH  16  18
HETATM   18  C   UNL     1      -9.748  11.359  63.485  1.00  0.00    -0.339 C  
BRANCH  18  19
HETATM   19  C   UNL     1      -8.563  10.467  63.846  1.00  0.00    -0.146 C  
BRANCH  19  20
HETATM   20  C   UNL     1      -8.131   9.649  62.629  1.00  0.00    -0.131 C  
BRANCH  20  21
HETATM   21  C   UNL     1      -7.889   8.192  63.005  1.00  0.00    -0.148 C  
BRANCH  21  22
HETATM   22  C   UNL     1      -6.437   7.793  62.763  1.00  0.00    -0.076 C  
BRANCH  22  23
HETATM   23  C   UNL     1      -6.328   6.299  62.502  1.00  0.00    -0.030 C  
BRANCH  23  24
HETATM   24  O   UNL     1      -7.071   5.604  63.497  1.00  0.00    -0.047 OA 
BRANCH  24  25
HETATM   25  C   UNL     1      -6.199   4.894  64.374  1.00  0.00    -0.030 C  
BRANCH  25  26
HETATM   26  C   UNL     1      -6.769   4.904  65.782  1.00  0.00    -0.056 C  
BRANCH  26  27
HETATM   27  O   UNL     1      -7.736   5.950  65.881  1.00  0.00    -0.091 OA 
BRANCH  27  28
HETATM   28  C   UNL     1      -9.051   5.429  66.013  1.00  0.00    -0.154 C  
BRANCH  28  29
HETATM   29  C   UNL     1      -9.463   5.520  67.457  1.00  0.00    -0.123 A  
HETATM   30  C   UNL     1      -9.472   4.386  68.288  1.00  0.00    -0.153 A  
HETATM   31 CL   UNL     1      -9.078   2.807  67.699  1.00  0.00    -0.196 Cl 
HETATM   32  C   UNL     1      -9.807   4.487  69.645  1.00  0.00    -0.288 A  
HETATM   33  C   UNL     1     -10.162   5.716  70.191  1.00  0.00    -0.318 A  
HETATM   34  C   UNL     1     -10.212   6.840  69.374  1.00  0.00    -0.204 A  
HETATM   35  C   UNL     1      -9.877   6.742  68.017  1.00  0.00    -0.136 A  
HETATM   36 CL   UNL     1     -10.001   8.191  67.078  1.00  0.00    -0.298 Cl 
ENDBRANCH  28  29
ENDBRANCH  27  28
ENDBRANCH  26  27
ENDBRANCH  25  26
ENDBRANCH  24  25
ENDBRANCH  23  24
ENDBRANCH  22  23
ENDBRANCH  21  22
ENDBRANCH  20  21
ENDBRANCH  19  20
ENDBRANCH  18  19
ENDBRANCH  16  18
ENDBRANCH  15  16
ENDBRANCH  12  15
ENDBRANCH  10  12
ENDBRANCH   2   4
TORSDOF 16
ENDMDL
MODEL      337
REMARK 921   NORMALIZED FREE ENERGY PREDICTED BY IDOCK:   -3.89 KCAL/MOL
REMARK 922        TOTAL FREE ENERGY PREDICTED BY IDOCK:   -9.59 KCAL/MOL
REMARK 923 INTER-LIGAND FREE ENERGY PREDICTED BY IDOCK:   -7.92 KCAL/MOL
REMARK 924 INTRA-LIGAND FREE ENERGY PREDICTED BY IDOCK:   -1.68 KCAL/MOL
REMARK 927      BINDING AFFINITY PREDICTED BY RF-SCORE:    0.00 PKD
ROOT
HETATM    1  O   UNL     1      -6.732   5.257  66.380  1.00  0.00    -0.054 OA 
HETATM    2  C   UNL     1      -7.917   5.324  65.586  1.00  0.00    -0.106 C  
HETATM    3  H   UNL     1      -6.210   4.497  66.150  1.00  0.00     0.000 HD 
ENDROOT
BRANCH   2   4
HETATM    4  C   UNL     1      -8.745   6.529  65.951  1.00  0.00    -0.149 A  
HETATM    5  C   UNL     1      -9.876   6.464  66.773  1.00  0.00    -0.162 A  
HETATM    6  O   UNL     1     -10.270   5.298  67.369  1.00  0.00    -0.185 OA 
HETATM    7  C   UNL     1     -10.654   7.590  67.027  1.00  0.00    -0.409 A  
HETATM    8  C   UNL     1     -10.307   8.816  66.465  1.00  0.00    -0.254 A  
HETATM    9  H   UNL     1     -11.037   5.254  67.926  1.00  0.00     0.000 HD 
HETATM   10  C   UNL     1      -9.181   8.924  65.637  1.00  0.00    -0.268 A  
HETATM   11  C   UNL     1      -8.419   7.771  65.379  1.00  0.00    -0.124 A  
BRANCH  10  12
HETATM   12  C   UNL     1      -8.859  10.250  64.979  1.00  0.00    -0.187 C  
HETATM   13  O   UNL     1      -9.805  10.528  63.938  1.00  0.00    -0.300 OA 
HETATM   14  H   UNL     1      -9.603  11.360  63.526  1.00  0.00     0.000 HD 
BRANCH  12  15
HETATM   15  C   UNL     1      -8.888  11.387  66.022  1.00  0.00    -0.174 C  
BRANCH  15  16
HETATM   16  N   UNL     1      -9.615  12.562  65.514  1.00  0.00    -0.445 NA 
HETATM   17  H   UNL     1      -9.948  12.421  64.560  1.00  0.00     0.000 HD 
BRANCH  16  18
HETATM   18  C   UNL     1     -10.699  12.914  66.424  1.00  0.00    -0.270 C  
BRANCH  18  19
HETATM   19  C   UNL     1     -10.510  14.338  66.941  1.00  0.00    -0.272 C  
BRANCH  19  20
HETATM   20  C   UNL     1      -9.938  14.311  68.358  1.00  0.00    -0.240 C  
BRANCH  20  21
HETATM   21  C   UNL     1     -10.453  15.487  69.180  1.00  0.00    -0.232 C  
BRANCH  21  22
HETATM   22  C   UNL     1     -11.878  15.240  69.665  1.00  0.00    -0.363 C  
BRANCH  22  23
HETATM   23  C   UNL     1     -12.157  16.031  70.933  1.00  0.00    -0.295 C  
BRANCH  23  24
HETATM   24  O   UNL     1     -12.949  15.233  71.806  1.00  0.00    -0.337 OA 
BRANCH  24  25
HETATM   25  C   UNL     1     -13.031  13.892  71.328  1.00  0.00    -0.341 C  
BRANCH  25  26
HETATM   26  C   UNL     1     -14.033  13.111  72.162  1.00  0.00    -0.310 C  
BRANCH  26  27
HETATM   27  O   UNL     1     -13.517  11.801  72.396  1.00  0.00    -0.326 OA 
BRANCH  27  28
HETATM   28  C   UNL     1     -13.624  10.987  71.236  1.00  0.00     0.441 C  
BRANCH  28  29
HETATM   29  C   UNL     1     -12.522   9.964  71.262  1.00  0.00    -0.479 A  
HETATM   30  C   UNL     1     -11.326  10.159  70.548  1.00  0.00    -0.338 A  
HETATM   31 CL   UNL     1     -11.065  11.546  69.546  1.00  0.00    -0.283 Cl 
HETATM   32  C   UNL     1     -10.282   9.227  70.617  1.00  0.00    -0.335 A  
HETATM   33  C   UNL     1     -10.423   8.072  71.378  1.00  0.00    -0.257 A  
HETATM   34  C   UNL     1     -11.618   7.833  72.049  1.00  0.00    -0.347 A  
HETATM   35  C   UNL     1     -12.663   8.764  71.982  1.00  0.00    -0.387 A  
HETATM   36 CL   UNL     1     -14.120   8.359  72.824  1.00  0.00    -0.129 Cl 
ENDBRANCH  28  29
ENDBRANCH  27  28
ENDBRANCH  26  27
ENDBRANCH  25  26
ENDBRANCH  24  25
ENDBRANCH  23  24
ENDBRANCH  22  23
ENDBRANCH  21  22
ENDBRANCH  20  21
ENDBRANCH  19  20
ENDBRANCH  18  19
ENDBRANCH  16  18
ENDBRANCH  15  16
ENDBRANCH  12  15
ENDBRANCH  10  12
ENDBRANCH   2   4
TORSDOF 16
ENDMDL
MODEL      338
REMARK 921   NORMALIZED FREE ENERGY PREDICTED BY IDOCK:   -3.88 KCAL/MOL
REMARK 922        TOTAL FREE ENERGY PREDICTED BY IDOCK:   -9.59 KCAL/MOL
REMARK 923 INTER-LIGAND FREE ENERGY PREDICTED BY IDOCK:   -9.37 KCAL/MOL
REMARK 924 INTRA-LIGAND FREE ENERGY PREDICTED BY IDOCK:   -0.22 KCAL/MOL
REMARK 927      BINDING AFFINITY PREDICTED BY RF-SCORE:    0.00 PKD
ROOT
HETATM    1  O   UNL     1      -9.529   1.613  73.701  1.00  0.00    -0.071 OA 
HETATM    2  C   UNL     1     -10.435   2.680  73.984  1.00  0.00    -0.156 C  
HETATM    3  H   UNL     1      -9.504   0.988  74.416  1.00  0.00     0.000 HD 
ENDROOT
BRANCH   2   4
HETATM    4  C   UNL     1     -10.474   3.672  72.851  1.00  0.00    -0.239 A  
HETATM    5  C   UNL     1      -9.793   3.486  71.642  1.00  0.00    -0.157 A  
HETATM    6  O   UNL     1      -9.095   2.341  71.376  1.00  0.00    -0.079 OA 
HETATM    7  C   UNL     1      -9.797   4.461  70.649  1.00  0.00    -0.280 A  
HETATM    8  C   UNL     1     -10.497   5.649  70.845  1.00  0.00    -0.323 A  
HETATM    9  H   UNL     1      -8.633   2.214  70.556  1.00  0.00     0.000 HD 
HETATM   10  C   UNL     1     -11.193   5.875  72.040  1.00  0.00    -0.330 A  
HETATM   11  C   UNL     1     -11.161   4.884  73.038  1.00  0.00    -0.368 A  
BRANCH  10  12
HETATM   12  C   UNL     1     -11.890   7.200  72.262  1.00  0.00    -0.239 C  
HETATM   13  O   UNL     1     -11.315   7.880  73.387  1.00  0.00    -0.512 OA 
HETATM   14  H   UNL     1     -11.752   8.712  73.526  1.00  0.00     0.000 HD 
BRANCH  12  15
HETATM   15  C   UNL     1     -11.770   8.087  71.005  1.00  0.00    -0.277 C  
BRANCH  15  16
HETATM   16  N   UNL     1     -11.475   9.485  71.361  1.00  0.00    -0.370 NA 
HETATM   17  H   UNL     1     -10.477   9.689  71.312  1.00  0.00     0.000 HD 
BRANCH  16  18
HETATM   18  C   UNL     1     -12.258  10.391  70.528  1.00  0.00    -0.323 C  
BRANCH  18  19
HETATM   19  C   UNL     1     -11.336  11.373  69.809  1.00  0.00    -0.332 C  
BRANCH  19  20
HETATM   20  C   UNL     1     -11.547  11.282  68.298  1.00  0.00    -0.370 C  
BRANCH  20  21
HETATM   21  C   UNL     1     -10.748  12.354  67.566  1.00  0.00    -0.256 C  
BRANCH  21  22
HETATM   22  C   UNL     1     -11.545  12.940  66.405  1.00  0.00    -0.425 C  
BRANCH  22  23
HETATM   23  C   UNL     1     -11.828  14.415  66.640  1.00  0.00    -0.398 C  
BRANCH  23  24
HETATM   24  O   UNL     1     -10.669  15.165  66.291  1.00  0.00    -0.307 OA 
BRANCH  24  25
HETATM   25  C   UNL     1     -10.640  16.405  66.995  1.00  0.00    -0.260 C  
BRANCH  25  26
HETATM   26  C   UNL     1      -9.826  17.420  66.211  1.00  0.00    -0.279 C  
BRANCH  26  27
HETATM   27  O   UNL     1     -10.337  18.726  66.479  1.00  0.00    -0.377 OA 
BRANCH  27  28
HETATM   28  C   UNL     1      -9.368  19.728  66.206  1.00  0.00    -0.391 C  
BRANCH  28  29
HETATM   29  C   UNL     1      -8.176  19.501  67.095  1.00  0.00    -0.308 A  
HETATM   30  C   UNL     1      -8.313  19.403  68.491  1.00  0.00    -0.363 A  
HETATM   31 CL   UNL     1      -9.838  19.601  69.285  1.00  0.00    -0.434 Cl 
HETATM   32  C   UNL     1      -7.206  19.140  69.309  1.00  0.00    -0.283 A  
HETATM   33  C   UNL     1      -5.941  18.994  68.752  1.00  0.00    -0.236 A  
HETATM   34  C   UNL     1      -5.774  19.141  67.379  1.00  0.00    -0.165 A  
HETATM   35  C   UNL     1      -6.879  19.404  66.558  1.00  0.00    -0.194 A  
HETATM   36 CL   UNL     1      -6.564  19.601  64.868  1.00  0.00    -0.267 Cl 
ENDBRANCH  28  29
ENDBRANCH  27  28
ENDBRANCH  26  27
ENDBRANCH  25  26
ENDBRANCH  24  25
ENDBRANCH  23  24
ENDBRANCH  22  23
ENDBRANCH  21  22
ENDBRANCH  20  21
ENDBRANCH  19  20
ENDBRANCH  18  19
ENDBRANCH  16  18
ENDBRANCH  15  16
ENDBRANCH  12  15
ENDBRANCH  10  12
ENDBRANCH   2   4
TORSDOF 16
ENDMDL
MODEL      339
REMARK 921   NORMALIZED FREE ENERGY PREDICTED BY IDOCK:   -3.87 KCAL/MOL
REMARK 922        TOTAL FREE ENERGY PREDICTED BY IDOCK:   -9.57 KCAL/MOL
REMARK 923 INTER-LIGAND FREE ENERGY PREDICTED BY IDOCK:   -8.11 KCAL/MOL
REMARK 924 INTRA-LIGAND FREE ENERGY PREDICTED BY IDOCK:   -1.46 KCAL/MOL
REMARK 927      BINDING AFFINITY PREDICTED BY RF-SCORE:    0.00 PKD
ROOT
HETATM    1  O   UNL     1     -13.568   5.668  72.601  1.00  0.00    -0.318 OA 
HETATM    2  C   UNL     1     -12.179   5.513  72.310  1.00  0.00     0.339 C  
HETATM    3  H   UNL     1     -13.902   4.920  73.082  1.00  0.00     0.000 HD 
ENDROOT
BRANCH   2   4
HETATM    4  C   UNL     1     -11.651   6.700  71.547  1.00  0.00    -0.357 A  
HETATM    5  C   UNL     1     -11.946   8.026  71.886  1.00  0.00    -0.314 A  
HETATM    6  O   UNL     1     -12.686   8.341  72.991  1.00  0.00    -0.694 OA 
HETATM    7  C   UNL     1     -11.496   9.091  71.110  1.00  0.00    -0.376 A  
HETATM    8  C   UNL     1     -10.727   8.847  69.975  1.00  0.00    -0.241 A  
HETATM    9  H   UNL     1     -12.886   9.240  73.221  1.00  0.00     0.000 HD 
HETATM   10  C   UNL     1     -10.407   7.534  69.602  1.00  0.00    -0.225 A  
HETATM   11  C   UNL     1     -10.887   6.472  70.389  1.00  0.00    -0.326 A  
BRANCH  10  12
HETATM   12  C   UNL     1      -9.629   7.287  68.327  1.00  0.00    -0.148 C  
HETATM   13  O   UNL     1      -8.957   6.021  68.395  1.00  0.00    -0.115 OA 
HETATM   14  H   UNL     1      -8.469   5.865  67.595  1.00  0.00     0.000 HD 
BRANCH  12  15
HETATM   15  C   UNL     1     -10.575   7.306  67.108  1.00  0.00    -0.346 C  
BRANCH  15  16
HETATM   16  N   UNL     1     -10.080   8.215  66.060  1.00  0.00    -0.379 NA 
HETATM   17  H   UNL     1     -10.373   7.919  65.129  1.00  0.00     0.000 HD 
BRANCH  16  18
HETATM   18  C   UNL     1     -10.487   9.585  66.350  1.00  0.00    -0.098 C  
BRANCH  18  19
HETATM   19  C   UNL     1      -9.910  10.537  65.306  1.00  0.00    -0.345 C  
BRANCH  19  20
HETATM   20  C   UNL     1     -10.591  11.902  65.404  1.00  0.00    -0.315 C  
BRANCH  20  21
HETATM   21  C   UNL     1     -10.584  12.419  66.838  1.00  0.00    -0.251 C  
BRANCH  21  22
HETATM   22  C   UNL     1     -11.963  12.926  67.248  1.00  0.00    -0.371 C  
BRANCH  22  23
HETATM   23  C   UNL     1     -12.498  13.912  66.222  1.00  0.00    -0.409 C  
BRANCH  23  24
HETATM   24  O   UNL     1     -11.701  15.090  66.259  1.00  0.00    -0.246 OA 
BRANCH  24  25
HETATM   25  C   UNL     1     -11.344  15.499  64.940  1.00  0.00    -0.335 C  
BRANCH  25  26
HETATM   26  C   UNL     1     -10.662  16.856  64.991  1.00  0.00    -0.040 C  
BRANCH  26  27
HETATM   27  O   UNL     1      -9.325  16.683  65.460  1.00  0.00    -0.461 OA 
BRANCH  27  28
HETATM   28  C   UNL     1      -9.028  17.581  66.520  1.00  0.00    -0.261 C  
BRANCH  28  29
HETATM   29  C   UNL     1      -8.008  16.942  67.423  1.00  0.00    -0.190 A  
HETATM   30  C   UNL     1      -6.633  17.012  67.137  1.00  0.00    -0.182 A  
HETATM   31 CL   UNL     1      -6.024  17.773  65.707  1.00  0.00    -0.213 Cl 
HETATM   32  C   UNL     1      -5.685  16.459  68.009  1.00  0.00    -0.121 A  
HETATM   33  C   UNL     1      -6.093  15.806  69.167  1.00  0.00    -0.122 A  
HETATM   34  C   UNL     1      -7.451  15.679  69.440  1.00  0.00    -0.221 A  
HETATM   35  C   UNL     1      -8.401  16.231  68.571  1.00  0.00    -0.204 A  
HETATM   36 CL   UNL     1     -10.065  15.991  68.982  1.00  0.00    -0.225 Cl 
ENDBRANCH  28  29
ENDBRANCH  27  28
ENDBRANCH  26  27
ENDBRANCH  25  26
ENDBRANCH  24  25
ENDBRANCH  23  24
ENDBRANCH  22  23
ENDBRANCH  21  22
ENDBRANCH  20  21
ENDBRANCH  19  20
ENDBRANCH  18  19
ENDBRANCH  16  18
ENDBRANCH  15  16
ENDBRANCH  12  15
ENDBRANCH  10  12
ENDBRANCH   2   4
TORSDOF 16
ENDMDL
MODEL      340
REMARK 921   NORMALIZED FREE ENERGY PREDICTED BY IDOCK:   -3.87 KCAL/MOL
REMARK 922        TOTAL FREE ENERGY PREDICTED BY IDOCK:   -9.56 KCAL/MOL
REMARK 923 INTER-LIGAND FREE ENERGY PREDICTED BY IDOCK:   -8.65 KCAL/MOL
REMARK 924 INTRA-LIGAND FREE ENERGY PREDICTED BY IDOCK:   -0.91 KCAL/MOL
REMARK 927      BINDING AFFINITY PREDICTED BY RF-SCORE:    0.00 PKD
ROOT
HETATM    1  O   UNL     1      -9.897   2.218  67.099  1.00  0.00    -0.304 OA 
HETATM    2  C   UNL     1      -8.897   2.405  68.101  1.00  0.00    -0.122 C  
HETATM    3  H   UNL     1      -9.596   1.621  66.424  1.00  0.00     0.000 HD 
ENDROOT
BRANCH   2   4
HETATM    4  C   UNL     1      -9.375   3.352  69.172  1.00  0.00    -0.237 A  
HETATM    5  C   UNL     1      -9.286   3.074  70.540  1.00  0.00    -0.152 A  
HETATM    6  O   UNL     1      -8.684   1.939  71.008  1.00  0.00    -0.050 OA 
HETATM    7  C   UNL     1      -9.806   3.944  71.494  1.00  0.00    -0.247 A  
HETATM    8  C   UNL     1     -10.423   5.127  71.092  1.00  0.00    -0.240 A  
HETATM    9  H   UNL     1      -8.623   1.750  71.937  1.00  0.00     0.000 HD 
HETATM   10  C   UNL     1     -10.532   5.444  69.730  1.00  0.00    -0.378 A  
HETATM   11  C   UNL     1     -10.016   4.541  68.783  1.00  0.00    -0.120 A  
BRANCH  10  12
HETATM   12  C   UNL     1     -11.267   6.699  69.310  1.00  0.00    -0.266 C  
HETATM   13  O   UNL     1     -12.198   7.092  70.329  1.00  0.00    -0.610 OA 
HETATM   14  H   UNL     1     -12.659   7.880  70.065  1.00  0.00     0.000 HD 
BRANCH  12  15
HETATM   15  C   UNL     1     -10.267   7.846  69.053  1.00  0.00    -0.209 C  
BRANCH  15  16
HETATM   16  N   UNL     1     -10.570   8.548  67.794  1.00  0.00    -0.414 NA 
HETATM   17  H   UNL     1     -11.493   8.305  67.434  1.00  0.00     0.000 HD 
BRANCH  16  18
HETATM   18  C   UNL     1     -10.418   9.988  67.974  1.00  0.00    -0.218 C  
BRANCH  18  19
HETATM   19  C   UNL     1     -11.232  10.738  66.923  1.00  0.00    -0.109 C  
BRANCH  19  20
HETATM   20  C   UNL     1     -10.361  11.045  65.704  1.00  0.00    -0.311 C  
BRANCH  20  21
HETATM   21  C   UNL     1     -10.875  12.270  64.956  1.00  0.00    -0.337 C  
BRANCH  21  22
HETATM   22  C   UNL     1     -12.191  12.765  65.547  1.00  0.00    -0.519 C  
BRANCH  22  23
HETATM   23  C   UNL     1     -12.132  14.261  65.807  1.00  0.00    -0.405 C  
BRANCH  23  24
HETATM   24  O   UNL     1     -12.760  14.535  67.055  1.00  0.00     0.132 OA 
BRANCH  24  25
HETATM   25  C   UNL     1     -11.899  14.190  68.138  1.00  0.00    -0.352 C  
BRANCH  25  26
HETATM   26  C   UNL     1     -11.713  15.394  69.047  1.00  0.00    -0.361 C  
BRANCH  26  27
HETATM   27  O   UNL     1     -11.118  16.452  68.295  1.00  0.00    -0.347 OA 
BRANCH  27  28
HETATM   28  C   UNL     1      -9.890  16.872  68.872  1.00  0.00    -0.267 C  
BRANCH  28  29
HETATM   29  C   UNL     1      -9.289  17.941  68.001  1.00  0.00    -0.274 A  
HETATM   30  C   UNL     1      -9.370  19.300  68.352  1.00  0.00    -0.366 A  
HETATM   31 CL   UNL     1     -10.217  19.842  69.761  1.00  0.00    -0.061 Cl 
HETATM   32  C   UNL     1      -8.763  20.288  67.564  1.00  0.00    -0.401 A  
HETATM   33  C   UNL     1      -8.087  19.939  66.400  1.00  0.00    -0.357 A  
HETATM   34  C   UNL     1      -8.041  18.605  66.006  1.00  0.00    -0.122 A  
HETATM   35  C   UNL     1      -8.646  17.616  66.793  1.00  0.00    -0.255 A  
HETATM   36 CL   UNL     1      -8.562  15.992  66.201  1.00  0.00    -0.365 Cl 
ENDBRANCH  28  29
ENDBRANCH  27  28
ENDBRANCH  26  27
ENDBRANCH  25  26
ENDBRANCH  24  25
ENDBRANCH  23  24
ENDBRANCH  22  23
ENDBRANCH  21  22
ENDBRANCH  20  21
ENDBRANCH  19  20
ENDBRANCH  18  19
ENDBRANCH  16  18
ENDBRANCH  15  16
ENDBRANCH  12  15
ENDBRANCH  10  12
ENDBRANCH   2   4
TORSDOF 16
ENDMDL
MODEL      341
REMARK 921   NORMALIZED FREE ENERGY PREDICTED BY IDOCK:   -3.84 KCAL/MOL
REMARK 922        TOTAL FREE ENERGY PREDICTED BY IDOCK:   -9.51 KCAL/MOL
REMARK 923 INTER-LIGAND FREE ENERGY PREDICTED BY IDOCK:   -8.04 KCAL/MOL
REMARK 924 INTRA-LIGAND FREE ENERGY PREDICTED BY IDOCK:   -1.47 KCAL/MOL
REMARK 927      BINDING AFFINITY PREDICTED BY RF-SCORE:    0.00 PKD
ROOT
HETATM    1  O   UNL     1     -12.609  13.014  68.534  1.00  0.00     0.287 OA 
HETATM    2  C   UNL     1     -11.715  12.669  67.475  1.00  0.00    -0.368 C  
HETATM    3  H   UNL     1     -12.833  12.251  69.054  1.00  0.00     0.000 HD 
ENDROOT
BRANCH   2   4
HETATM    4  C   UNL     1     -11.361  13.879  66.650  1.00  0.00    -0.342 A  
HETATM    5  C   UNL     1     -12.065  14.261  65.503  1.00  0.00    -0.394 A  
HETATM    6  O   UNL     1     -13.184  13.594  65.087  1.00  0.00    -0.739 OA 
HETATM    7  C   UNL     1     -11.660  15.345  64.729  1.00  0.00    -0.286 A  
HETATM    8  C   UNL     1     -10.536  16.080  65.098  1.00  0.00    -0.331 A  
HETATM    9  H   UNL     1     -13.662  13.854  64.309  1.00  0.00     0.000 HD 
HETATM   10  C   UNL     1      -9.803  15.731  66.241  1.00  0.00    -0.320 A  
HETATM   11  C   UNL     1     -10.219  14.621  66.998  1.00  0.00    -0.261 A  
BRANCH  10  12
HETATM   12  C   UNL     1      -8.544  16.499  66.587  1.00  0.00    -0.254 C  
HETATM   13  O   UNL     1      -8.280  17.492  65.587  1.00  0.00    -0.505 OA 
HETATM   14  H   UNL     1      -7.491  17.974  65.804  1.00  0.00     0.000 HD 
BRANCH  12  15
HETATM   15  C   UNL     1      -8.692  17.178  67.965  1.00  0.00    -0.221 C  
BRANCH  15  16
HETATM   16  N   UNL     1      -7.533  16.896  68.828  1.00  0.00    -0.226 NA 
HETATM   17  H   UNL     1      -7.793  16.849  69.813  1.00  0.00     0.000 HD 
BRANCH  16  18
HETATM   18  C   UNL     1      -6.859  15.681  68.383  1.00  0.00    -0.115 C  
BRANCH  18  19
HETATM   19  C   UNL     1      -6.988  14.591  69.444  1.00  0.00    -0.151 C  
BRANCH  19  20
HETATM   20  C   UNL     1      -6.615  13.232  68.850  1.00  0.00    -0.107 C  
BRANCH  20  21
HETATM   21  C   UNL     1      -7.286  13.020  67.498  1.00  0.00    -0.154 C  
BRANCH  21  22
HETATM   22  C   UNL     1      -8.089  11.723  67.479  1.00  0.00    -0.152 C  
BRANCH  22  23
HETATM   23  C   UNL     1      -8.072  11.104  66.091  1.00  0.00    -0.111 C  
BRANCH  23  24
HETATM   24  O   UNL     1      -9.312  10.439  65.871  1.00  0.00    -0.167 OA 
BRANCH  24  25
HETATM   25  C   UNL     1     -10.001  10.236  67.102  1.00  0.00    -0.197 C  
BRANCH  25  26
HETATM   26  C   UNL     1      -9.863   8.786  67.535  1.00  0.00    -0.179 C  
BRANCH  26  27
HETATM   27  O   UNL     1     -10.622   8.586  68.727  1.00  0.00    -0.208 OA 
BRANCH  27  28
HETATM   28  C   UNL     1     -10.334   9.582  69.698  1.00  0.00    -0.221 C  
BRANCH  28  29
HETATM   29  C   UNL     1     -10.120   8.911  71.028  1.00  0.00    -0.324 A  
HETATM   30  C   UNL     1     -11.201   8.431  71.787  1.00  0.00    -0.293 A  
HETATM   31 CL   UNL     1     -12.845   8.636  71.284  1.00  0.00    -0.263 Cl 
HETATM   32  C   UNL     1     -10.992   7.761  73.000  1.00  0.00    -0.442 A  
HETATM   33  C   UNL     1      -9.703   7.580  73.488  1.00  0.00    -0.358 A  
HETATM   34  C   UNL     1      -8.622   8.094  72.779  1.00  0.00    -0.269 A  
HETATM   35  C   UNL     1      -8.828   8.764  71.566  1.00  0.00    -0.225 A  
HETATM   36 CL   UNL     1      -7.423   9.394  70.777  1.00  0.00    -0.144 Cl 
ENDBRANCH  28  29
ENDBRANCH  27  28
ENDBRANCH  26  27
ENDBRANCH  25  26
ENDBRANCH  24  25
ENDBRANCH  23  24
ENDBRANCH  22  23
ENDBRANCH  21  22
ENDBRANCH  20  21
ENDBRANCH  19  20
ENDBRANCH  18  19
ENDBRANCH  16  18
ENDBRANCH  15  16
ENDBRANCH  12  15
ENDBRANCH  10  12
ENDBRANCH   2   4
TORSDOF 16
ENDMDL
MODEL      342
REMARK 921   NORMALIZED FREE ENERGY PREDICTED BY IDOCK:   -3.84 KCAL/MOL
REMARK 922        TOTAL FREE ENERGY PREDICTED BY IDOCK:   -9.50 KCAL/MOL
REMARK 923 INTER-LIGAND FREE ENERGY PREDICTED BY IDOCK:   -8.42 KCAL/MOL
REMARK 924 INTRA-LIGAND FREE ENERGY PREDICTED BY IDOCK:   -1.08 KCAL/MOL
REMARK 927      BINDING AFFINITY PREDICTED BY RF-SCORE:    0.00 PKD
ROOT
HETATM    1  O   UNL     1     -10.237   5.054  68.686  1.00  0.00    -0.155 OA 
HETATM    2  C   UNL     1      -9.945   4.501  69.970  1.00  0.00    -0.210 C  
HETATM    3  H   UNL     1     -10.067   4.423  67.996  1.00  0.00     0.000 HD 
ENDROOT
BRANCH   2   4
HETATM    4  C   UNL     1     -10.215   5.502  71.063  1.00  0.00    -0.287 A  
HETATM    5  C   UNL     1     -10.698   5.149  72.328  1.00  0.00    -0.203 A  
HETATM    6  O   UNL     1     -10.892   3.844  72.688  1.00  0.00    -0.096 OA 
HETATM    7  C   UNL     1     -11.002   6.113  73.285  1.00  0.00    -0.230 A  
HETATM    8  C   UNL     1     -10.819   7.462  72.994  1.00  0.00    -0.423 A  
HETATM    9  H   UNL     1     -11.219   3.604  73.546  1.00  0.00     0.000 HD 
HETATM   10  C   UNL     1     -10.335   7.859  71.739  1.00  0.00    -0.260 A  
HETATM   11  C   UNL     1     -10.052   6.870  70.781  1.00  0.00    -0.208 A  
BRANCH  10  12
HETATM   12  C   UNL     1     -10.208   9.333  71.418  1.00  0.00    -0.301 C  
HETATM   13  O   UNL     1      -8.852   9.650  71.075  1.00  0.00    -0.340 OA 
HETATM   14  H   UNL     1      -8.772  10.575  70.873  1.00  0.00     0.000 HD 
BRANCH  12  15
HETATM   15  C   UNL     1     -11.139   9.709  70.246  1.00  0.00    -0.276 C  
BRANCH  15  16
HETATM   16  N   UNL     1     -11.607  11.101  70.359  1.00  0.00    -0.434 NA 
HETATM   17  H   UNL     1     -11.252  11.557  71.200  1.00  0.00     0.000 HD 
BRANCH  16  18
HETATM   18  C   UNL     1     -11.265  11.845  69.151  1.00  0.00    -0.255 C  
BRANCH  18  19
HETATM   19  C   UNL     1     -10.940  10.880  68.014  1.00  0.00    -0.317 C  
BRANCH  19  20
HETATM   20  C   UNL     1      -9.964  11.531  67.034  1.00  0.00    -0.225 C  
BRANCH  20  21
HETATM   21  C   UNL     1     -10.541  11.564  65.623  1.00  0.00    -0.326 C  
BRANCH  21  22
HETATM   22  C   UNL     1     -11.606  12.648  65.489  1.00  0.00    -0.409 C  
BRANCH  22  23
HETATM   23  C   UNL     1     -11.105  13.964  66.062  1.00  0.00    -0.289 C  
BRANCH  23  24
HETATM   24  O   UNL     1     -11.057  14.931  65.017  1.00  0.00    -0.368 OA 
BRANCH  24  25
HETATM   25  C   UNL     1     -10.224  16.028  65.384  1.00  0.00    -0.302 C  
BRANCH  25  26
HETATM   26  C   UNL     1      -8.973  15.513  66.076  1.00  0.00    -0.215 C  
BRANCH  26  27
HETATM   27  O   UNL     1      -8.341  16.599  66.753  1.00  0.00    -0.189 OA 
BRANCH  27  28
HETATM   28  C   UNL     1      -8.614  16.570  68.147  1.00  0.00    -0.193 C  
BRANCH  28  29
HETATM   29  C   UNL     1      -7.418  17.110  68.884  1.00  0.00    -0.241 A  
HETATM   30  C   UNL     1      -6.556  16.260  69.599  1.00  0.00    -0.175 A  
HETATM   31 CL   UNL     1      -6.842  14.559  69.737  1.00  0.00    -0.149 Cl 
HETATM   32  C   UNL     1      -5.415  16.761  70.240  1.00  0.00    -0.209 A  
HETATM   33  C   UNL     1      -5.129  18.122  70.200  1.00  0.00    -0.220 A  
HETATM   34  C   UNL     1      -5.998  18.987  69.544  1.00  0.00    -0.279 A  
HETATM   35  C   UNL     1      -7.139  18.488  68.902  1.00  0.00    -0.282 A  
HETATM   36 CL   UNL     1      -8.173  19.649  68.141  1.00  0.00    -0.348 Cl 
ENDBRANCH  28  29
ENDBRANCH  27  28
ENDBRANCH  26  27
ENDBRANCH  25  26
ENDBRANCH  24  25
ENDBRANCH  23  24
ENDBRANCH  22  23
ENDBRANCH  21  22
ENDBRANCH  20  21
ENDBRANCH  19  20
ENDBRANCH  18  19
ENDBRANCH  16  18
ENDBRANCH  15  16
ENDBRANCH  12  15
ENDBRANCH  10  12
ENDBRANCH   2   4
TORSDOF 16
ENDMDL
MODEL      343
REMARK 921   NORMALIZED FREE ENERGY PREDICTED BY IDOCK:   -3.83 KCAL/MOL
REMARK 922        TOTAL FREE ENERGY PREDICTED BY IDOCK:   -9.48 KCAL/MOL
REMARK 923 INTER-LIGAND FREE ENERGY PREDICTED BY IDOCK:   -7.22 KCAL/MOL
REMARK 924 INTRA-LIGAND FREE ENERGY PREDICTED BY IDOCK:   -2.25 KCAL/MOL
REMARK 927      BINDING AFFINITY PREDICTED BY RF-SCORE:    0.00 PKD
ROOT
HETATM    1  O   UNL     1     -12.848  14.213  63.231  1.00  0.00    -0.676 OA 
HETATM    2  C   UNL     1     -11.716  13.360  63.407  1.00  0.00    -0.160 C  
HETATM    3  H   UNL     1     -13.346  13.964  62.461  1.00  0.00     0.000 HD 
ENDROOT
BRANCH   2   4
HETATM    4  C   UNL     1     -10.926  13.755  64.628  1.00  0.00    -0.406 A  
HETATM    5  C   UNL     1     -10.612  15.082  64.944  1.00  0.00    -0.374 A  
HETATM    6  O   UNL     1     -11.070  16.130  64.196  1.00  0.00    -1.113 OA 
HETATM    7  C   UNL     1      -9.819  15.398  66.043  1.00  0.00    -0.355 A  
HETATM    8  C   UNL     1      -9.326  14.382  66.860  1.00  0.00    -0.269 A  
HETATM    9  H   UNL     1     -10.857  17.030  64.411  1.00  0.00     0.000 HD 
HETATM   10  C   UNL     1      -9.619  13.040  66.578  1.00  0.00    -0.260 A  
HETATM   11  C   UNL     1     -10.407  12.742  65.453  1.00  0.00    -0.310 A  
BRANCH  10  12
HETATM   12  C   UNL     1      -9.018  11.947  67.437  1.00  0.00    -0.173 C  
HETATM   13  O   UNL     1      -8.260  12.521  68.510  1.00  0.00    -0.236 OA 
HETATM   14  H   UNL     1      -7.883  11.835  69.049  1.00  0.00     0.000 HD 
BRANCH  12  15
HETATM   15  C   UNL     1     -10.129  11.045  68.012  1.00  0.00    -0.179 C  
BRANCH  15  16
HETATM   16  N   UNL     1      -9.972  10.861  69.465  1.00  0.00    -0.437 NA 
HETATM   17  H   UNL     1     -10.792  11.179  69.981  1.00  0.00     0.000 HD 
BRANCH  16  18
HETATM   18  C   UNL     1      -9.646   9.471  69.763  1.00  0.00    -0.216 C  
BRANCH  18  19
HETATM   19  C   UNL     1      -8.148   9.325  70.019  1.00  0.00    -0.140 C  
BRANCH  19  20
HETATM   20  C   UNL     1      -7.608   8.091  69.296  1.00  0.00    -0.096 C  
BRANCH  20  21
HETATM   21  C   UNL     1      -8.693   7.426  68.458  1.00  0.00    -0.127 C  
BRANCH  21  22
HETATM   22  C   UNL     1      -8.390   5.948  68.236  1.00  0.00    -0.112 C  
BRANCH  22  23
HETATM   23  C   UNL     1      -9.660   5.119  68.341  1.00  0.00    -0.139 C  
BRANCH  23  24
HETATM   24  O   UNL     1      -9.324   3.825  68.830  1.00  0.00    -0.145 OA 
BRANCH  24  25
HETATM   25  C   UNL     1      -8.201   3.893  69.705  1.00  0.00    -0.053 C  
BRANCH  25  26
HETATM   26  C   UNL     1      -8.507   3.144  70.992  1.00  0.00    -0.066 C  
BRANCH  26  27
HETATM   27  O   UNL     1      -8.016   3.905  72.096  1.00  0.00    -0.076 OA 
BRANCH  27  28
HETATM   28  C   UNL     1      -7.446   5.133  71.666  1.00  0.00    -0.096 C  
BRANCH  28  29
HETATM   29  C   UNL     1      -7.885   6.223  72.606  1.00  0.00    -0.105 A  
HETATM   30  C   UNL     1      -9.208   6.697  72.609  1.00  0.00    -0.139 A  
HETATM   31 CL   UNL     1     -10.400   6.115  71.497  1.00  0.00    -0.242 Cl 
HETATM   32  C   UNL     1      -9.624   7.676  73.522  1.00  0.00    -0.348 A  
HETATM   33  C   UNL     1      -8.720   8.216  74.431  1.00  0.00     0.116 A  
HETATM   34  C   UNL     1      -7.393   7.800  74.409  1.00  0.00    -0.177 A  
HETATM   35  C   UNL     1      -6.975   6.821  73.497  1.00  0.00    -0.075 A  
HETATM   36 CL   UNL     1      -5.298   6.394  73.528  1.00  0.00    -0.040 Cl 
ENDBRANCH  28  29
ENDBRANCH  27  28
ENDBRANCH  26  27
ENDBRANCH  25  26
ENDBRANCH  24  25
ENDBRANCH  23  24
ENDBRANCH  22  23
ENDBRANCH  21  22
ENDBRANCH  20  21
ENDBRANCH  19  20
ENDBRANCH  18  19
ENDBRANCH  16  18
ENDBRANCH  15  16
ENDBRANCH  12  15
ENDBRANCH  10  12
ENDBRANCH   2   4
TORSDOF 16
ENDMDL
MODEL      344
REMARK 921   NORMALIZED FREE ENERGY PREDICTED BY IDOCK:   -3.83 KCAL/MOL
REMARK 922        TOTAL FREE ENERGY PREDICTED BY IDOCK:   -9.48 KCAL/MOL
REMARK 923 INTER-LIGAND FREE ENERGY PREDICTED BY IDOCK:   -7.57 KCAL/MOL
REMARK 924 INTRA-LIGAND FREE ENERGY PREDICTED BY IDOCK:   -1.90 KCAL/MOL
REMARK 927      BINDING AFFINITY PREDICTED BY RF-SCORE:    0.00 PKD
ROOT
HETATM    1  O   UNL     1     -10.278  16.022  66.553  1.00  0.00    -0.273 OA 
HETATM    2  C   UNL     1     -10.975  15.701  65.349  1.00  0.00    -0.333 C  
HETATM    3  H   UNL     1     -10.335  16.951  66.743  1.00  0.00     0.000 HD 
ENDROOT
BRANCH   2   4
HETATM    4  C   UNL     1     -10.884  14.227  65.049  1.00  0.00    -0.414 A  
HETATM    5  C   UNL     1     -11.668  13.590  64.080  1.00  0.00    -0.395 A  
HETATM    6  O   UNL     1     -12.529  14.285  63.277  1.00  0.00    -1.133 OA 
HETATM    7  C   UNL     1     -11.604  12.213  63.885  1.00  0.00    -0.532 A  
HETATM    8  C   UNL     1     -10.740  11.441  64.658  1.00  0.00    -0.378 A  
HETATM    9  H   UNL     1     -13.061  13.853  62.620  1.00  0.00     0.000 HD 
HETATM   10  C   UNL     1      -9.937  12.041  65.638  1.00  0.00    -0.270 A  
HETATM   11  C   UNL     1     -10.030  13.431  65.831  1.00  0.00    -0.287 A  
BRANCH  10  12
HETATM   12  C   UNL     1      -9.055  11.177  66.514  1.00  0.00    -0.182 C  
HETATM   13  O   UNL     1      -9.860  10.379  67.394  1.00  0.00    -0.170 OA 
HETATM   14  H   UNL     1      -9.307   9.837  67.943  1.00  0.00     0.000 HD 
BRANCH  12  15
HETATM   15  C   UNL     1      -8.171  10.257  65.646  1.00  0.00    -0.153 C  
BRANCH  15  16
HETATM   16  N   UNL     1      -8.269   8.854  66.079  1.00  0.00    -0.114 NA 
HETATM   17  H   UNL     1      -9.222   8.600  66.340  1.00  0.00     0.000 HD 
BRANCH  16  18
HETATM   18  C   UNL     1      -7.733   7.971  65.049  1.00  0.00    -0.112 C  
BRANCH  18  19
HETATM   19  C   UNL     1      -6.848   6.900  65.683  1.00  0.00    -0.052 C  
BRANCH  19  20
HETATM   20  C   UNL     1      -7.136   6.798  67.180  1.00  0.00    -0.079 C  
BRANCH  20  21
HETATM   21  C   UNL     1      -5.847   6.642  67.979  1.00  0.00    -0.016 C  
BRANCH  21  22
HETATM   22  C   UNL     1      -5.900   7.445  69.274  1.00  0.00    -0.026 C  
BRANCH  22  23
HETATM   23  C   UNL     1      -7.330   7.846  69.599  1.00  0.00    -0.090 C  
BRANCH  23  24
HETATM   24  O   UNL     1      -7.651   7.382  70.906  1.00  0.00    -0.080 OA 
BRANCH  24  25
HETATM   25  C   UNL     1      -6.900   6.212  71.224  1.00  0.00    -0.067 C  
BRANCH  25  26
HETATM   26  C   UNL     1      -7.845   5.043  71.449  1.00  0.00    -0.109 C  
BRANCH  26  27
HETATM   27  O   UNL     1      -9.179   5.541  71.550  1.00  0.00    -0.144 OA 
BRANCH  27  28
HETATM   28  C   UNL     1     -10.099   4.696  70.875  1.00  0.00    -0.187 C  
BRANCH  28  29
HETATM   29  C   UNL     1     -10.307   5.223  69.482  1.00  0.00    -0.333 A  
HETATM   30  C   UNL     1      -9.774   4.561  68.362  1.00  0.00    -0.122 A  
HETATM   31 CL   UNL     1      -8.792   3.143  68.509  1.00  0.00    -0.146 Cl 
HETATM   32  C   UNL     1     -10.014   5.029  67.063  1.00  0.00    -0.231 A  
HETATM   33  C   UNL     1     -10.770   6.178  66.860  1.00  0.00    -0.413 A  
HETATM   34  C   UNL     1     -11.262   6.878  67.956  1.00  0.00    -0.087 A  
HETATM   35  C   UNL     1     -11.024   6.413  69.256  1.00  0.00    -0.356 A  
HETATM   36 CL   UNL     1     -11.651   7.372  70.553  1.00  0.00    -0.287 Cl 
ENDBRANCH  28  29
ENDBRANCH  27  28
ENDBRANCH  26  27
ENDBRANCH  25  26
ENDBRANCH  24  25
ENDBRANCH  23  24
ENDBRANCH  22  23
ENDBRANCH  21  22
ENDBRANCH  20  21
ENDBRANCH  19  20
ENDBRANCH  18  19
ENDBRANCH  16  18
ENDBRANCH  15  16
ENDBRANCH  12  15
ENDBRANCH  10  12
ENDBRANCH   2   4
TORSDOF 16
ENDMDL
MODEL      345
REMARK 921   NORMALIZED FREE ENERGY PREDICTED BY IDOCK:   -3.81 KCAL/MOL
REMARK 922        TOTAL FREE ENERGY PREDICTED BY IDOCK:   -9.45 KCAL/MOL
REMARK 923 INTER-LIGAND FREE ENERGY PREDICTED BY IDOCK:   -7.98 KCAL/MOL
REMARK 924 INTRA-LIGAND FREE ENERGY PREDICTED BY IDOCK:   -1.47 KCAL/MOL
REMARK 927      BINDING AFFINITY PREDICTED BY RF-SCORE:    0.00 PKD
ROOT
HETATM    1  O   UNL     1      -8.154  19.233  68.124  1.00  0.00    -0.291 OA 
HETATM    2  C   UNL     1      -7.966  17.980  67.465  1.00  0.00    -0.222 C  
HETATM    3  H   UNL     1      -7.416  19.812  67.973  1.00  0.00     0.000 HD 
ENDROOT
BRANCH   2   4
HETATM    4  C   UNL     1      -9.135  17.062  67.706  1.00  0.00    -0.228 A  
HETATM    5  C   UNL     1     -10.257  17.426  68.460  1.00  0.00    -0.369 A  
HETATM    6  O   UNL     1     -10.403  18.683  68.975  1.00  0.00    -0.483 OA 
HETATM    7  C   UNL     1     -11.283  16.522  68.718  1.00  0.00    -0.277 A  
HETATM    8  C   UNL     1     -11.210  15.225  68.215  1.00  0.00    -0.318 A  
HETATM    9  H   UNL     1     -11.163  18.931  69.487  1.00  0.00     0.000 HD 
HETATM   10  C   UNL     1     -10.104  14.820  67.453  1.00  0.00    -0.231 A  
HETATM   11  C   UNL     1      -9.070  15.744  67.219  1.00  0.00    -0.219 A  
BRANCH  10  12
HETATM   12  C   UNL     1     -10.010  13.387  66.973  1.00  0.00    -0.246 C  
HETATM   13  O   UNL     1      -9.283  13.326  65.738  1.00  0.00    -0.451 OA 
HETATM   14  H   UNL     1      -9.223  12.427  65.437  1.00  0.00     0.000 HD 
BRANCH  12  15
HETATM   15  C   UNL     1      -9.307  12.512  68.032  1.00  0.00    -0.205 C  
BRANCH  15  16
HETATM   16  N   UNL     1      -9.301  11.093  67.636  1.00  0.00    -0.163 NA 
HETATM   17  H   UNL     1      -8.410  10.815  67.225  1.00  0.00     0.000 HD 
BRANCH  16  18
HETATM   18  C   UNL     1      -9.663  10.253  68.773  1.00  0.00    -0.177 C  
BRANCH  18  19
HETATM   19  C   UNL     1      -8.482  10.132  69.733  1.00  0.00    -0.147 C  
BRANCH  19  20
HETATM   20  C   UNL     1      -8.685   8.940  70.669  1.00  0.00    -0.230 C  
BRANCH  20  21
HETATM   21  C   UNL     1      -7.673   7.837  70.381  1.00  0.00    -0.088 C  
BRANCH  21  22
HETATM   22  C   UNL     1      -7.382   7.015  71.632  1.00  0.00    -0.083 C  
BRANCH  22  23
HETATM   23  C   UNL     1      -6.846   7.903  72.744  1.00  0.00    -0.081 C  
BRANCH  23  24
HETATM   24  O   UNL     1      -7.324   7.414  73.992  1.00  0.00    -0.095 OA 
BRANCH  24  25
HETATM   25  C   UNL     1      -8.698   7.750  74.173  1.00  0.00    -0.238 C  
BRANCH  25  26
HETATM   26  C   UNL     1      -9.502   6.490  74.446  1.00  0.00    -0.249 C  
BRANCH  26  27
HETATM   27  O   UNL     1     -10.691   6.523  73.657  1.00  0.00    -0.285 OA 
BRANCH  27  28
HETATM   28  C   UNL     1     -10.946   5.264  73.051  1.00  0.00    -0.298 C  
BRANCH  28  29
HETATM   29  C   UNL     1     -10.769   5.400  71.563  1.00  0.00    -0.262 A  
HETATM   30  C   UNL     1     -11.493   6.352  70.825  1.00  0.00    -0.353 A  
HETATM   31 CL   UNL     1     -12.678   7.381  71.556  1.00  0.00    -0.390 Cl 
HETATM   32  C   UNL     1     -11.286   6.510  69.448  1.00  0.00    -0.395 A  
HETATM   33  C   UNL     1     -10.371   5.703  68.779  1.00  0.00    -0.288 A  
HETATM   34  C   UNL     1      -9.684   4.718  69.481  1.00  0.00    -0.271 A  
HETATM   35  C   UNL     1      -9.888   4.559  70.858  1.00  0.00    -0.199 A  
HETATM   36 CL   UNL     1      -9.010   3.286  71.633  1.00  0.00    -0.141 Cl 
ENDBRANCH  28  29
ENDBRANCH  27  28
ENDBRANCH  26  27
ENDBRANCH  25  26
ENDBRANCH  24  25
ENDBRANCH  23  24
ENDBRANCH  22  23
ENDBRANCH  21  22
ENDBRANCH  20  21
ENDBRANCH  19  20
ENDBRANCH  18  19
ENDBRANCH  16  18
ENDBRANCH  15  16
ENDBRANCH  12  15
ENDBRANCH  10  12
ENDBRANCH   2   4
TORSDOF 16
ENDMDL
MODEL      346
REMARK 921   NORMALIZED FREE ENERGY PREDICTED BY IDOCK:   -3.80 KCAL/MOL
REMARK 922        TOTAL FREE ENERGY PREDICTED BY IDOCK:   -9.42 KCAL/MOL
REMARK 923 INTER-LIGAND FREE ENERGY PREDICTED BY IDOCK:   -8.35 KCAL/MOL
REMARK 924 INTRA-LIGAND FREE ENERGY PREDICTED BY IDOCK:   -1.07 KCAL/MOL
REMARK 927      BINDING AFFINITY PREDICTED BY RF-SCORE:    0.00 PKD
ROOT
HETATM    1  O   UNL     1      -8.388   3.579  68.519  1.00  0.00    -0.075 OA 
HETATM    2  C   UNL     1      -9.387   4.491  68.978  1.00  0.00    -0.148 C  
HETATM    3  H   UNL     1      -8.240   3.677  67.586  1.00  0.00     0.000 HD 
ENDROOT
BRANCH   2   4
HETATM    4  C   UNL     1      -9.622   4.335  70.458  1.00  0.00    -0.267 A  
HETATM    5  C   UNL     1      -9.599   3.100  71.115  1.00  0.00    -0.160 A  
HETATM    6  O   UNL     1      -9.286   1.941  70.461  1.00  0.00    -0.086 OA 
HETATM    7  C   UNL     1      -9.892   2.992  72.472  1.00  0.00    -0.219 A  
HETATM    8  C   UNL     1     -10.209   4.133  73.206  1.00  0.00    -0.217 A  
HETATM    9  H   UNL     1      -9.270   1.102  70.907  1.00  0.00     0.000 HD 
HETATM   10  C   UNL     1     -10.241   5.390  72.587  1.00  0.00    -0.225 A  
HETATM   11  C   UNL     1      -9.959   5.474  71.211  1.00  0.00    -0.249 A  
BRANCH  10  12
HETATM   12  C   UNL     1     -10.654   6.608  73.386  1.00  0.00    -0.309 C  
HETATM   13  O   UNL     1      -9.508   7.204  74.008  1.00  0.00    -0.231 OA 
HETATM   14  H   UNL     1      -9.767   7.969  74.510  1.00  0.00     0.000 HD 
BRANCH  12  15
HETATM   15  C   UNL     1     -11.342   7.643  72.470  1.00  0.00    -0.355 C  
BRANCH  15  16
HETATM   16  N   UNL     1     -12.790   7.393  72.374  1.00  0.00    -0.493 NA 
HETATM   17  H   UNL     1     -13.233   7.355  73.293  1.00  0.00     0.000 HD 
BRANCH  16  18
HETATM   18  C   UNL     1     -13.415   8.389  71.510  1.00  0.00    -0.286 C  
BRANCH  18  19
HETATM   19  C   UNL     1     -13.375   9.762  72.176  1.00  0.00    -0.527 C  
BRANCH  19  20
HETATM   20  C   UNL     1     -12.746  10.786  71.231  1.00  0.00    -0.546 C  
BRANCH  20  21
HETATM   21  C   UNL     1     -12.187  10.113  69.983  1.00  0.00    -0.120 C  
BRANCH  21  22
HETATM   22  C   UNL     1     -11.156  11.001  69.293  1.00  0.00    -0.312 C  
BRANCH  22  23
HETATM   23  C   UNL     1     -11.473  11.137  67.812  1.00  0.00    -0.272 C  
BRANCH  23  24
HETATM   24  O   UNL     1     -11.726  12.508  67.522  1.00  0.00    -0.355 OA 
BRANCH  24  25
HETATM   25  C   UNL     1     -11.495  13.318  68.672  1.00  0.00    -0.304 C  
BRANCH  25  26
HETATM   26  C   UNL     1     -11.042  14.703  68.242  1.00  0.00    -0.271 C  
BRANCH  26  27
HETATM   27  O   UNL     1      -9.617  14.762  68.309  1.00  0.00    -0.203 OA 
BRANCH  27  28
HETATM   28  C   UNL     1      -9.180  15.901  69.038  1.00  0.00    -0.242 C  
BRANCH  28  29
HETATM   29  C   UNL     1      -8.431  16.813  68.104  1.00  0.00    -0.213 A  
HETATM   30  C   UNL     1      -9.054  17.927  67.515  1.00  0.00    -0.245 A  
HETATM   31 CL   UNL     1     -10.728  18.288  67.765  1.00  0.00    -0.411 Cl 
HETATM   32  C   UNL     1      -8.337  18.802  66.687  1.00  0.00    -0.296 A  
HETATM   33  C   UNL     1      -6.994  18.567  66.414  1.00  0.00    -0.257 A  
HETATM   34  C   UNL     1      -6.373  17.441  66.944  1.00  0.00    -0.217 A  
HETATM   35  C   UNL     1      -7.087  16.564  67.771  1.00  0.00    -0.137 A  
HETATM   36 CL   UNL     1      -6.234  15.176  68.354  1.00  0.00    -0.101 Cl 
ENDBRANCH  28  29
ENDBRANCH  27  28
ENDBRANCH  26  27
ENDBRANCH  25  26
ENDBRANCH  24  25
ENDBRANCH  23  24
ENDBRANCH  22  23
ENDBRANCH  21  22
ENDBRANCH  20  21
ENDBRANCH  19  20
ENDBRANCH  18  19
ENDBRANCH  16  18
ENDBRANCH  15  16
ENDBRANCH  12  15
ENDBRANCH  10  12
ENDBRANCH   2   4
TORSDOF 16
ENDMDL
MODEL      347
REMARK 921   NORMALIZED FREE ENERGY PREDICTED BY IDOCK:   -3.79 KCAL/MOL
REMARK 922        TOTAL FREE ENERGY PREDICTED BY IDOCK:   -9.41 KCAL/MOL
REMARK 923 INTER-LIGAND FREE ENERGY PREDICTED BY IDOCK:   -7.52 KCAL/MOL
REMARK 924 INTRA-LIGAND FREE ENERGY PREDICTED BY IDOCK:   -1.89 KCAL/MOL
REMARK 927      BINDING AFFINITY PREDICTED BY RF-SCORE:    0.00 PKD
ROOT
HETATM    1  O   UNL     1     -12.794   8.599  71.449  1.00  0.00    -0.357 OA 
HETATM    2  C   UNL     1     -11.502   9.192  71.579  1.00  0.00    -0.367 C  
HETATM    3  H   UNL     1     -13.199   8.473  72.299  1.00  0.00     0.000 HD 
ENDROOT
BRANCH   2   4
HETATM    4  C   UNL     1     -10.861   9.392  70.230  1.00  0.00    -0.303 A  
HETATM    5  C   UNL     1     -11.492  10.052  69.169  1.00  0.00    -0.033 A  
HETATM    6  O   UNL     1     -12.722  10.632  69.309  1.00  0.00    -0.689 OA 
HETATM    7  C   UNL     1     -10.892  10.152  67.917  1.00  0.00    -0.336 A  
HETATM    8  C   UNL     1      -9.633   9.595  67.703  1.00  0.00    -0.167 A  
HETATM    9  H   UNL     1     -13.150  11.080  68.589  1.00  0.00     0.000 HD 
HETATM   10  C   UNL     1      -8.967   8.927  68.740  1.00  0.00    -0.134 A  
HETATM   11  C   UNL     1      -9.598   8.822  69.992  1.00  0.00    -0.177 A  
BRANCH  10  12
HETATM   12  C   UNL     1      -7.630   8.269  68.469  1.00  0.00    -0.100 C  
HETATM   13  O   UNL     1      -7.822   6.906  68.065  1.00  0.00    -0.110 OA 
HETATM   14  H   UNL     1      -6.984   6.493  67.895  1.00  0.00     0.000 HD 
BRANCH  12  15
HETATM   15  C   UNL     1      -6.870   9.033  67.365  1.00  0.00    -0.077 C  
BRANCH  15  16
HETATM   16  N   UNL     1      -6.058  10.124  67.930  1.00  0.00    -0.052 NA 
HETATM   17  H   UNL     1      -5.108   9.821  68.145  1.00  0.00     0.000 HD 
BRANCH  16  18
HETATM   18  C   UNL     1      -6.074  11.277  67.037  1.00  0.00    -0.108 C  
BRANCH  18  19
HETATM   19  C   UNL     1      -5.634  12.531  67.789  1.00  0.00    -0.113 C  
BRANCH  19  20
HETATM   20  C   UNL     1      -6.662  13.646  67.598  1.00  0.00    -0.185 C  
BRANCH  20  21
HETATM   21  C   UNL     1      -8.026  13.079  67.226  1.00  0.00    -0.143 C  
BRANCH  21  22
HETATM   22  C   UNL     1      -9.052  13.343  68.324  1.00  0.00    -0.181 C  
BRANCH  22  23
HETATM   23  C   UNL     1     -10.314  13.959  67.742  1.00  0.00    -0.240 C  
BRANCH  23  24
HETATM   24  O   UNL     1      -9.956  14.769  66.627  1.00  0.00    -0.250 OA 
BRANCH  24  25
HETATM   25  C   UNL     1     -10.768  15.939  66.573  1.00  0.00    -0.258 C  
BRANCH  25  26
HETATM   26  C   UNL     1     -10.844  16.574  67.952  1.00  0.00    -0.326 C  
BRANCH  26  27
HETATM   27  O   UNL     1      -9.540  17.019  68.327  1.00  0.00    -0.255 OA 
BRANCH  27  28
HETATM   28  C   UNL     1      -9.493  18.432  68.459  1.00  0.00    -0.334 C  
BRANCH  28  29
HETATM   29  C   UNL     1      -8.372  18.959  67.605  1.00  0.00    -0.296 A  
HETATM   30  C   UNL     1      -8.625  19.599  66.379  1.00  0.00    -0.361 A  
HETATM   31 CL   UNL     1     -10.224  19.766  65.738  1.00  0.00    -0.520 Cl 
HETATM   32  C   UNL     1      -7.580  20.134  65.613  1.00  0.00    -0.188 A  
HETATM   33  C   UNL     1      -6.263  20.017  66.045  1.00  0.00    -0.208 A  
HETATM   34  C   UNL     1      -5.986  19.340  67.228  1.00  0.00    -0.180 A  
HETATM   35  C   UNL     1      -7.029  18.806  67.996  1.00  0.00    -0.239 A  
HETATM   36 CL   UNL     1      -6.579  17.954  69.434  1.00  0.00    -0.236 Cl 
ENDBRANCH  28  29
ENDBRANCH  27  28
ENDBRANCH  26  27
ENDBRANCH  25  26
ENDBRANCH  24  25
ENDBRANCH  23  24
ENDBRANCH  22  23
ENDBRANCH  21  22
ENDBRANCH  20  21
ENDBRANCH  19  20
ENDBRANCH  18  19
ENDBRANCH  16  18
ENDBRANCH  15  16
ENDBRANCH  12  15
ENDBRANCH  10  12
ENDBRANCH   2   4
TORSDOF 16
ENDMDL
MODEL      348
REMARK 921   NORMALIZED FREE ENERGY PREDICTED BY IDOCK:   -3.78 KCAL/MOL
REMARK 922        TOTAL FREE ENERGY PREDICTED BY IDOCK:   -9.39 KCAL/MOL
REMARK 923 INTER-LIGAND FREE ENERGY PREDICTED BY IDOCK:   -8.58 KCAL/MOL
REMARK 924 INTRA-LIGAND FREE ENERGY PREDICTED BY IDOCK:   -0.81 KCAL/MOL
REMARK 927      BINDING AFFINITY PREDICTED BY RF-SCORE:    0.00 PKD
ROOT
HETATM    1  O   UNL     1      -9.031   3.995  68.334  1.00  0.00    -0.102 OA 
HETATM    2  C   UNL     1      -9.850   4.935  69.030  1.00  0.00    -0.180 C  
HETATM    3  H   UNL     1      -9.043   4.159  67.399  1.00  0.00     0.000 HD 
ENDROOT
BRANCH   2   4
HETATM    4  C   UNL     1      -9.832   4.674  70.514  1.00  0.00    -0.301 A  
HETATM    5  C   UNL     1      -9.894   3.392  71.070  1.00  0.00    -0.066 A  
HETATM    6  O   UNL     1      -9.902   2.267  70.293  1.00  0.00     0.007 OA 
HETATM    7  C   UNL     1      -9.947   3.199  72.448  1.00  0.00    -0.234 A  
HETATM    8  C   UNL     1      -9.929   4.298  73.304  1.00  0.00    -0.184 A  
HETATM    9  H   UNL     1      -9.945   1.397  70.670  1.00  0.00     0.000 HD 
HETATM   10  C   UNL     1      -9.866   5.600  72.787  1.00  0.00    -0.183 A  
HETATM   11  C   UNL     1      -9.832   5.773  71.392  1.00  0.00    -0.213 A  
BRANCH  10  12
HETATM   12  C   UNL     1      -9.918   6.783  73.731  1.00  0.00    -0.289 C  
HETATM   13  O   UNL     1      -8.595   7.129  74.164  1.00  0.00    -0.161 OA 
HETATM   14  H   UNL     1      -8.627   7.872  74.756  1.00  0.00     0.000 HD 
BRANCH  12  15
HETATM   15  C   UNL     1     -10.568   7.997  73.034  1.00  0.00    -0.262 C  
BRANCH  15  16
HETATM   16  N   UNL     1     -11.987   7.744  72.731  1.00  0.00    -0.608 NA 
HETATM   17  H   UNL     1     -12.587   7.920  73.537  1.00  0.00     0.000 HD 
BRANCH  16  18
HETATM   18  C   UNL     1     -12.398   8.519  71.565  1.00  0.00    -0.314 C  
BRANCH  18  19
HETATM   19  C   UNL     1     -13.046   9.829  72.007  1.00  0.00    -0.546 C  
BRANCH  19  20
HETATM   20  C   UNL     1     -12.758  10.929  70.986  1.00  0.00    -0.505 C  
BRANCH  20  21
HETATM   21  C   UNL     1     -11.815  10.434  69.896  1.00  0.00    -0.314 C  
BRANCH  21  22
HETATM   22  C   UNL     1     -11.122  11.599  69.196  1.00  0.00    -0.302 C  
BRANCH  22  23
HETATM   23  C   UNL     1     -11.609  11.728  67.761  1.00  0.00    -0.304 C  
BRANCH  23  24
HETATM   24  O   UNL     1     -12.409  12.901  67.653  1.00  0.00    -0.220 OA 
BRANCH  24  25
HETATM   25  C   UNL     1     -11.782  14.002  68.307  1.00  0.00    -0.357 C  
BRANCH  25  26
HETATM   26  C   UNL     1     -11.459  15.085  67.292  1.00  0.00    -0.304 C  
BRANCH  26  27
HETATM   27  O   UNL     1     -10.173  14.821  66.730  1.00  0.00    -0.259 OA 
BRANCH  27  28
HETATM   28  C   UNL     1     -10.256  14.604  65.329  1.00  0.00    -0.391 C  
BRANCH  28  29
HETATM   29  C   UNL     1     -10.049  13.139  65.054  1.00  0.00    -0.240 A  
HETATM   30  C   UNL     1     -10.862  12.445  64.141  1.00  0.00    -0.372 A  
HETATM   31 CL   UNL     1     -12.189  13.201  63.325  1.00  0.00    -0.575 Cl 
HETATM   32  C   UNL     1     -10.633  11.093  63.851  1.00  0.00    -0.431 A  
HETATM   33  C   UNL     1      -9.604  10.405  64.485  1.00  0.00    -0.369 A  
HETATM   34  C   UNL     1      -8.822  11.059  65.431  1.00  0.00    -0.157 A  
HETATM   35  C   UNL     1      -9.049  12.410  65.723  1.00  0.00     0.178 A  
HETATM   36 CL   UNL     1      -8.044  13.124  66.938  1.00  0.00    -0.019 Cl 
ENDBRANCH  28  29
ENDBRANCH  27  28
ENDBRANCH  26  27
ENDBRANCH  25  26
ENDBRANCH  24  25
ENDBRANCH  23  24
ENDBRANCH  22  23
ENDBRANCH  21  22
ENDBRANCH  20  21
ENDBRANCH  19  20
ENDBRANCH  18  19
ENDBRANCH  16  18
ENDBRANCH  15  16
ENDBRANCH  12  15
ENDBRANCH  10  12
ENDBRANCH   2   4
TORSDOF 16
ENDMDL
MODEL      349
REMARK 921   NORMALIZED FREE ENERGY PREDICTED BY IDOCK:   -3.78 KCAL/MOL
REMARK 922        TOTAL FREE ENERGY PREDICTED BY IDOCK:   -9.39 KCAL/MOL
REMARK 923 INTER-LIGAND FREE ENERGY PREDICTED BY IDOCK:   -7.77 KCAL/MOL
REMARK 924 INTRA-LIGAND FREE ENERGY PREDICTED BY IDOCK:   -1.61 KCAL/MOL
REMARK 927      BINDING AFFINITY PREDICTED BY RF-SCORE:    0.00 PKD
ROOT
HETATM    1  O   UNL     1      -8.947  14.170  69.192  1.00  0.00    -0.382 OA 
HETATM    2  C   UNL     1      -9.292  15.519  69.508  1.00  0.00    -0.276 C  
HETATM    3  H   UNL     1      -9.673  13.582  69.367  1.00  0.00     0.000 HD 
ENDROOT
BRANCH   2   4
HETATM    4  C   UNL     1      -8.142  16.451  69.229  1.00  0.00    -0.121 A  
HETATM    5  C   UNL     1      -6.823  16.180  69.611  1.00  0.00    -0.139 A  
HETATM    6  O   UNL     1      -6.472  15.002  70.208  1.00  0.00    -0.159 OA 
HETATM    7  C   UNL     1      -5.801  17.101  69.398  1.00  0.00    -0.212 A  
HETATM    8  C   UNL     1      -6.082  18.320  68.784  1.00  0.00    -0.207 A  
HETATM    9  H   UNL     1      -5.577  14.818  70.467  1.00  0.00     0.000 HD 
HETATM   10  C   UNL     1      -7.389  18.629  68.384  1.00  0.00    -0.309 A  
HETATM   11  C   UNL     1      -8.410  17.692  68.625  1.00  0.00    -0.267 A  
BRANCH  10  12
HETATM   12  C   UNL     1      -7.687  19.986  67.781  1.00  0.00    -0.292 C  
HETATM   13  O   UNL     1      -6.575  20.871  67.980  1.00  0.00    -0.314 OA 
HETATM   14  H   UNL     1      -6.762  21.722  67.601  1.00  0.00     0.000 HD 
BRANCH  12  15
HETATM   15  C   UNL     1      -7.977  19.850  66.271  1.00  0.00    -0.327 C  
BRANCH  15  16
HETATM   16  N   UNL     1      -9.292  20.416  65.926  1.00  0.00    -0.601 NA 
HETATM   17  H   UNL     1      -9.427  20.479  64.917  1.00  0.00     0.000 HD 
BRANCH  16  18
HETATM   18  C   UNL     1     -10.353  19.652  66.571  1.00  0.00    -0.493 C  
BRANCH  18  19
HETATM   19  C   UNL     1     -10.900  18.598  65.612  1.00  0.00    -0.016 C  
BRANCH  19  20
HETATM   20  C   UNL     1     -10.909  17.226  66.286  1.00  0.00     0.051 C  
BRANCH  20  21
HETATM   21  C   UNL     1      -9.824  16.324  65.711  1.00  0.00    -0.332 C  
BRANCH  21  22
HETATM   22  C   UNL     1     -10.421  15.049  65.124  1.00  0.00    -0.438 C  
BRANCH  22  23
HETATM   23  C   UNL     1     -10.482  13.953  66.175  1.00  0.00    -0.297 C  
BRANCH  23  24
HETATM   24  O   UNL     1     -10.204  12.703  65.552  1.00  0.00    -0.275 OA 
BRANCH  24  25
HETATM   25  C   UNL     1     -11.184  11.732  65.911  1.00  0.00    -0.290 C  
BRANCH  25  26
HETATM   26  C   UNL     1     -10.850  11.148  67.274  1.00  0.00    -0.274 C  
BRANCH  26  27
HETATM   27  O   UNL     1     -10.915   9.724  67.194  1.00  0.00    -0.202 OA 
BRANCH  27  28
HETATM   28  C   UNL     1      -9.640   9.135  67.408  1.00  0.00    -0.151 C  
BRANCH  28  29
HETATM   29  C   UNL     1      -9.591   8.586  68.808  1.00  0.00    -0.150 A  
HETATM   30  C   UNL     1     -10.325   7.443  69.172  1.00  0.00    -0.208 A  
HETATM   31 CL   UNL     1     -11.378   6.632  68.065  1.00  0.00    -0.197 Cl 
HETATM   32  C   UNL     1     -10.235   6.907  70.464  1.00  0.00    -0.209 A  
HETATM   33  C   UNL     1      -9.431   7.516  71.421  1.00  0.00    -0.159 A  
HETATM   34  C   UNL     1      -8.739   8.679  71.098  1.00  0.00    -0.244 A  
HETATM   35  C   UNL     1      -8.827   9.217  69.808  1.00  0.00    -0.160 A  
HETATM   36 CL   UNL     1      -7.955  10.683  69.514  1.00  0.00    -0.124 Cl 
ENDBRANCH  28  29
ENDBRANCH  27  28
ENDBRANCH  26  27
ENDBRANCH  25  26
ENDBRANCH  24  25
ENDBRANCH  23  24
ENDBRANCH  22  23
ENDBRANCH  21  22
ENDBRANCH  20  21
ENDBRANCH  19  20
ENDBRANCH  18  19
ENDBRANCH  16  18
ENDBRANCH  15  16
ENDBRANCH  12  15
ENDBRANCH  10  12
ENDBRANCH   2   4
TORSDOF 16
ENDMDL
MODEL      350
REMARK 921   NORMALIZED FREE ENERGY PREDICTED BY IDOCK:   -3.78 KCAL/MOL
REMARK 922        TOTAL FREE ENERGY PREDICTED BY IDOCK:   -9.38 KCAL/MOL
REMARK 923 INTER-LIGAND FREE ENERGY PREDICTED BY IDOCK:   -7.31 KCAL/MOL
REMARK 924 INTRA-LIGAND FREE ENERGY PREDICTED BY IDOCK:   -2.07 KCAL/MOL
REMARK 927      BINDING AFFINITY PREDICTED BY RF-SCORE:    0.00 PKD
ROOT
HETATM    1  O   UNL     1     -10.613   4.029  72.319  1.00  0.00    -0.107 OA 
HETATM    2  C   UNL     1     -10.132   5.174  71.615  1.00  0.00    -0.200 C  
HETATM    3  H   UNL     1     -11.265   4.274  72.965  1.00  0.00     0.000 HD 
ENDROOT
BRANCH   2   4
HETATM    4  C   UNL     1      -9.098   4.785  70.591  1.00  0.00    -0.177 A  
HETATM    5  C   UNL     1      -7.960   5.552  70.316  1.00  0.00    -0.101 A  
HETATM    6  O   UNL     1      -7.668   6.687  71.020  1.00  0.00    -0.094 OA 
HETATM    7  C   UNL     1      -7.067   5.192  69.311  1.00  0.00    -0.056 A  
HETATM    8  C   UNL     1      -7.293   4.041  68.560  1.00  0.00    -0.055 A  
HETATM    9  H   UNL     1      -6.896   7.208  70.833  1.00  0.00     0.000 HD 
HETATM   10  C   UNL     1      -8.420   3.243  68.805  1.00  0.00    -0.098 A  
HETATM   11  C   UNL     1      -9.319   3.635  69.812  1.00  0.00    -0.243 A  
BRANCH  10  12
HETATM   12  C   UNL     1      -8.685   2.034  67.932  1.00  0.00    -0.098 C  
HETATM   13  O   UNL     1      -9.987   1.500  68.209  1.00  0.00    -0.279 OA 
HETATM   14  H   UNL     1     -10.153   0.742  67.661  1.00  0.00     0.000 HD 
BRANCH  12  15
HETATM   15  C   UNL     1      -8.588   2.417  66.441  1.00  0.00    -0.114 C  
BRANCH  15  16
HETATM   16  N   UNL     1      -9.773   3.175  66.004  1.00  0.00    -0.399 NA 
HETATM   17  H   UNL     1     -10.353   3.464  66.792  1.00  0.00     0.000 HD 
BRANCH  16  18
HETATM   18  C   UNL     1      -9.368   4.309  65.180  1.00  0.00    -0.165 C  
BRANCH  18  19
HETATM   19  C   UNL     1      -9.392   5.593  66.005  1.00  0.00    -0.150 C  
BRANCH  19  20
HETATM   20  C   UNL     1     -10.676   5.664  66.831  1.00  0.00    -0.350 C  
BRANCH  20  21
HETATM   21  C   UNL     1     -10.946   7.087  67.305  1.00  0.00    -0.372 C  
BRANCH  21  22
HETATM   22  C   UNL     1      -9.756   7.647  68.077  1.00  0.00    -0.173 C  
BRANCH  22  23
HETATM   23  C   UNL     1      -9.431   9.058  67.613  1.00  0.00    -0.140 C  
BRANCH  23  24
HETATM   24  O   UNL     1     -10.625   9.668  67.134  1.00  0.00    -0.256 OA 
BRANCH  24  25
HETATM   25  C   UNL     1     -10.329  10.628  66.121  1.00  0.00    -0.227 C  
BRANCH  25  26
HETATM   26  C   UNL     1      -9.695  11.858  66.750  1.00  0.00    -0.204 C  
BRANCH  26  27
HETATM   27  O   UNL     1     -10.138  13.017  66.044  1.00  0.00    -0.275 OA 
BRANCH  27  28
HETATM   28  C   UNL     1     -11.404  13.457  66.514  1.00  0.00    -0.320 C  
BRANCH  28  29
HETATM   29  C   UNL     1     -11.188  14.484  67.592  1.00  0.00    -0.335 A  
HETATM   30  C   UNL     1     -11.417  14.182  68.946  1.00  0.00    -0.293 A  
HETATM   31 CL   UNL     1     -12.023  12.645  69.459  1.00  0.00    -0.355 Cl 
HETATM   32  C   UNL     1     -11.165  15.127  69.950  1.00  0.00    -0.305 A  
HETATM   33  C   UNL     1     -10.702  16.396  69.619  1.00  0.00    -0.337 A  
HETATM   34  C   UNL     1     -10.520  16.733  68.282  1.00  0.00    -0.341 A  
HETATM   35  C   UNL     1     -10.771  15.790  67.276  1.00  0.00    -0.313 A  
HETATM   36 CL   UNL     1     -10.545  16.316  65.642  1.00  0.00    -0.375 Cl 
ENDBRANCH  28  29
ENDBRANCH  27  28
ENDBRANCH  26  27
ENDBRANCH  25  26
ENDBRANCH  24  25
ENDBRANCH  23  24
ENDBRANCH  22  23
ENDBRANCH  21  22
ENDBRANCH  20  21
ENDBRANCH  19  20
ENDBRANCH  18  19
ENDBRANCH  16  18
ENDBRANCH  15  16
ENDBRANCH  12  15
ENDBRANCH  10  12
ENDBRANCH   2   4
TORSDOF 16
ENDMDL
MODEL      351
REMARK 921   NORMALIZED FREE ENERGY PREDICTED BY IDOCK:   -3.76 KCAL/MOL
REMARK 922        TOTAL FREE ENERGY PREDICTED BY IDOCK:   -9.35 KCAL/MOL
REMARK 923 INTER-LIGAND FREE ENERGY PREDICTED BY IDOCK:   -7.24 KCAL/MOL
REMARK 924 INTRA-LIGAND FREE ENERGY PREDICTED BY IDOCK:   -2.11 KCAL/MOL
REMARK 927      BINDING AFFINITY PREDICTED BY RF-SCORE:    0.00 PKD
ROOT
HETATM    1  O   UNL     1     -10.763   9.599  71.165  1.00  0.00    -0.329 OA 
HETATM    2  C   UNL     1     -10.084   8.601  70.401  1.00  0.00    -0.188 C  
HETATM    3  H   UNL     1     -11.231   9.211  71.894  1.00  0.00     0.000 HD 
ENDROOT
BRANCH   2   4
HETATM    4  C   UNL     1      -9.343   9.218  69.244  1.00  0.00    -0.160 A  
HETATM    5  C   UNL     1      -9.381   8.703  67.943  1.00  0.00    -0.142 A  
HETATM    6  O   UNL     1     -10.164   7.632  67.614  1.00  0.00    -0.183 OA 
HETATM    7  C   UNL     1      -8.623   9.262  66.918  1.00  0.00    -0.132 A  
HETATM    8  C   UNL     1      -7.810  10.363  67.176  1.00  0.00    -0.110 A  
HETATM    9  H   UNL     1     -10.191   7.283  66.731  1.00  0.00     0.000 HD 
HETATM   10  C   UNL     1      -7.744  10.911  68.465  1.00  0.00    -0.119 A  
HETATM   11  C   UNL     1      -8.504  10.320  69.490  1.00  0.00    -0.156 A  
BRANCH  10  12
HETATM   12  C   UNL     1      -6.803  12.064  68.741  1.00  0.00    -0.094 C  
HETATM   13  O   UNL     1      -5.721  11.631  69.578  1.00  0.00    -0.059 OA 
HETATM   14  H   UNL     1      -5.131  12.355  69.751  1.00  0.00     0.000 HD 
BRANCH  12  15
HETATM   15  C   UNL     1      -6.241  12.627  67.418  1.00  0.00    -0.148 C  
BRANCH  15  16
HETATM   16  N   UNL     1      -6.828  13.940  67.103  1.00  0.00    -0.403 NA 
HETATM   17  H   UNL     1      -7.809  13.866  66.833  1.00  0.00     0.000 HD 
BRANCH  16  18
HETATM   18  C   UNL     1      -6.638  14.857  68.222  1.00  0.00    -0.115 C  
BRANCH  18  19
HETATM   19  C   UNL     1      -5.810  16.061  67.782  1.00  0.00    -0.162 C  
BRANCH  19  20
HETATM   20  C   UNL     1      -6.582  16.880  66.747  1.00  0.00    -0.260 C  
BRANCH  20  21
HETATM   21  C   UNL     1      -5.664  17.861  66.028  1.00  0.00    -0.244 C  
BRANCH  21  22
HETATM   22  C   UNL     1      -6.025  19.304  66.369  1.00  0.00    -0.178 C  
BRANCH  22  23
HETATM   23  C   UNL     1      -6.748  19.374  67.704  1.00  0.00    -0.215 C  
BRANCH  23  24
HETATM   24  O   UNL     1      -7.538  20.558  67.736  1.00  0.00    -0.283 OA 
BRANCH  24  25
HETATM   25  C   UNL     1      -8.873  20.285  67.317  1.00  0.00    -0.355 C  
BRANCH  25  26
HETATM   26  C   UNL     1      -9.446  19.145  68.143  1.00  0.00    -0.342 C  
BRANCH  26  27
HETATM   27  O   UNL     1      -9.647  18.016  67.293  1.00  0.00    -0.261 OA 
BRANCH  27  28
HETATM   28  C   UNL     1     -10.895  17.390  67.550  1.00  0.00    -0.203 C  
BRANCH  28  29
HETATM   29  C   UNL     1     -10.730  15.902  67.394  1.00  0.00    -0.313 A  
HETATM   30  C   UNL     1     -10.792  15.289  66.131  1.00  0.00    -0.320 A  
HETATM   31 CL   UNL     1     -11.125  16.182  64.686  1.00  0.00    -0.421 Cl 
HETATM   32  C   UNL     1     -10.586  13.910  65.985  1.00  0.00    -0.293 A  
HETATM   33  C   UNL     1     -10.340  13.117  67.101  1.00  0.00    -0.247 A  
HETATM   34  C   UNL     1     -10.329  13.695  68.366  1.00  0.00    -0.248 A  
HETATM   35  C   UNL     1     -10.534  15.073  68.513  1.00  0.00    -0.232 A  
HETATM   36 CL   UNL     1     -10.533  15.691  70.130  1.00  0.00    -0.326 Cl 
ENDBRANCH  28  29
ENDBRANCH  27  28
ENDBRANCH  26  27
ENDBRANCH  25  26
ENDBRANCH  24  25
ENDBRANCH  23  24
ENDBRANCH  22  23
ENDBRANCH  21  22
ENDBRANCH  20  21
ENDBRANCH  19  20
ENDBRANCH  18  19
ENDBRANCH  16  18
ENDBRANCH  15  16
ENDBRANCH  12  15
ENDBRANCH  10  12
ENDBRANCH   2   4
TORSDOF 16
ENDMDL
MODEL      352
REMARK 921   NORMALIZED FREE ENERGY PREDICTED BY IDOCK:   -3.76 KCAL/MOL
REMARK 922        TOTAL FREE ENERGY PREDICTED BY IDOCK:   -9.35 KCAL/MOL
REMARK 923 INTER-LIGAND FREE ENERGY PREDICTED BY IDOCK:   -6.82 KCAL/MOL
REMARK 924 INTRA-LIGAND FREE ENERGY PREDICTED BY IDOCK:   -2.53 KCAL/MOL
REMARK 927      BINDING AFFINITY PREDICTED BY RF-SCORE:    0.00 PKD
ROOT
HETATM    1  O   UNL     1     -10.330   4.007  66.130  1.00  0.00    -0.423 OA 
HETATM    2  C   UNL     1     -10.501   5.317  66.672  1.00  0.00    -0.290 C  
HETATM    3  H   UNL     1     -10.364   4.023  65.181  1.00  0.00     0.000 HD 
ENDROOT
BRANCH   2   4
HETATM    4  C   UNL     1     -10.448   5.291  68.177  1.00  0.00    -0.140 A  
HETATM    5  C   UNL     1      -9.675   4.377  68.904  1.00  0.00    -0.141 A  
HETATM    6  O   UNL     1      -8.848   3.481  68.287  1.00  0.00    -0.099 OA 
HETATM    7  C   UNL     1      -9.710   4.341  70.295  1.00  0.00    -0.280 A  
HETATM    8  C   UNL     1     -10.521   5.233  70.993  1.00  0.00    -0.274 A  
HETATM    9  H   UNL     1      -8.324   2.861  68.779  1.00  0.00     0.000 HD 
HETATM   10  C   UNL     1     -11.309   6.165  70.303  1.00  0.00    -0.414 A  
HETATM   11  C   UNL     1     -11.273   6.173  68.897  1.00  0.00    -0.338 A  
BRANCH  10  12
HETATM   12  C   UNL     1     -12.236   7.079  71.076  1.00  0.00    -0.374 C  
HETATM   13  O   UNL     1     -12.651   6.448  72.296  1.00  0.00    -0.547 OA 
HETATM   14  H   UNL     1     -13.232   7.022  72.781  1.00  0.00     0.000 HD 
BRANCH  12  15
HETATM   15  C   UNL     1     -11.528   8.412  71.399  1.00  0.00    -0.277 C  
BRANCH  15  16
HETATM   16  N   UNL     1     -10.684   8.294  72.600  1.00  0.00    -0.346 NA 
HETATM   17  H   UNL     1     -10.656   7.337  72.954  1.00  0.00     0.000 HD 
BRANCH  16  18
HETATM   18  C   UNL     1      -9.348   8.813  72.328  1.00  0.00    -0.153 C  
BRANCH  18  19
HETATM   19  C   UNL     1      -8.310   7.707  72.493  1.00  0.00    -0.153 C  
BRANCH  19  20
HETATM   20  C   UNL     1      -7.656   7.393  71.148  1.00  0.00    -0.082 C  
BRANCH  20  21
HETATM   21  C   UNL     1      -7.752   8.583  70.200  1.00  0.00    -0.086 C  
BRANCH  21  22
HETATM   22  C   UNL     1      -6.847   8.395  68.986  1.00  0.00    -0.056 C  
BRANCH  22  23
HETATM   23  C   UNL     1      -7.202   7.115  68.246  1.00  0.00    -0.091 C  
BRANCH  23  24
HETATM   24  O   UNL     1      -7.926   7.453  67.068  1.00  0.00    -0.112 OA 
BRANCH  24  25
HETATM   25  C   UNL     1      -7.177   7.116  65.902  1.00  0.00    -0.074 C  
BRANCH  25  26
HETATM   26  C   UNL     1      -7.274   8.243  64.887  1.00  0.00    -0.081 C  
BRANCH  26  27
HETATM   27  O   UNL     1      -7.090   9.488  65.562  1.00  0.00    -0.085 OA 
BRANCH  27  28
HETATM   28  C   UNL     1      -7.351  10.587  64.701  1.00  0.00     0.063 C  
BRANCH  28  29
HETATM   29  C   UNL     1      -8.758  11.063  64.940  1.00  0.00    -0.002 A  
HETATM   30  C   UNL     1      -9.140  11.631  66.168  1.00  0.00    -0.203 A  
HETATM   31 CL   UNL     1      -8.047  11.762  67.504  1.00  0.00    -0.143 Cl 
HETATM   32  C   UNL     1     -10.438  12.120  66.366  1.00  0.00    -0.261 A  
HETATM   33  C   UNL     1     -11.385  12.028  65.351  1.00  0.00    -0.375 A  
HETATM   34  C   UNL     1     -11.044  11.421  64.148  1.00  0.00    -0.382 A  
HETATM   35  C   UNL     1      -9.746  10.932  63.947  1.00  0.00    -0.303 A  
HETATM   36 CL   UNL     1      -9.430  10.165  62.427  1.00  0.00    -0.297 Cl 
ENDBRANCH  28  29
ENDBRANCH  27  28
ENDBRANCH  26  27
ENDBRANCH  25  26
ENDBRANCH  24  25
ENDBRANCH  23  24
ENDBRANCH  22  23
ENDBRANCH  21  22
ENDBRANCH  20  21
ENDBRANCH  19  20
ENDBRANCH  18  19
ENDBRANCH  16  18
ENDBRANCH  15  16
ENDBRANCH  12  15
ENDBRANCH  10  12
ENDBRANCH   2   4
TORSDOF 16
ENDMDL
MODEL      353
REMARK 921   NORMALIZED FREE ENERGY PREDICTED BY IDOCK:   -3.75 KCAL/MOL
REMARK 922        TOTAL FREE ENERGY PREDICTED BY IDOCK:   -9.34 KCAL/MOL
REMARK 923 INTER-LIGAND FREE ENERGY PREDICTED BY IDOCK:   -7.33 KCAL/MOL
REMARK 924 INTRA-LIGAND FREE ENERGY PREDICTED BY IDOCK:   -2.01 KCAL/MOL
REMARK 927      BINDING AFFINITY PREDICTED BY RF-SCORE:    0.00 PKD
ROOT
HETATM    1  O   UNL     1     -10.104   4.716  64.373  1.00  0.00    -0.381 OA 
HETATM    2  C   UNL     1     -10.546   4.907  65.718  1.00  0.00    -0.182 C  
HETATM    3  H   UNL     1     -10.740   4.218  63.873  1.00  0.00     0.000 HD 
ENDROOT
BRANCH   2   4
HETATM    4  C   UNL     1      -9.537   5.697  66.511  1.00  0.00    -0.171 A  
HETATM    5  C   UNL     1      -8.935   6.869  66.039  1.00  0.00    -0.105 A  
HETATM    6  O   UNL     1      -9.281   7.426  64.839  1.00  0.00     0.017 OA 
HETATM    7  C   UNL     1      -7.954   7.528  66.774  1.00  0.00    -0.115 A  
HETATM    8  C   UNL     1      -7.559   7.026  68.012  1.00  0.00    -0.111 A  
HETATM    9  H   UNL     1      -8.873   8.221  64.519  1.00  0.00     0.000 HD 
HETATM   10  C   UNL     1      -8.138   5.856  68.521  1.00  0.00    -0.106 A  
HETATM   11  C   UNL     1      -9.114   5.195  67.754  1.00  0.00    -0.119 A  
BRANCH  10  12
HETATM   12  C   UNL     1      -7.646   5.288  69.836  1.00  0.00    -0.065 C  
HETATM   13  O   UNL     1      -6.219   5.143  69.811  1.00  0.00    -0.024 OA 
HETATM   14  H   UNL     1      -5.911   4.787  70.636  1.00  0.00     0.000 HD 
BRANCH  12  15
HETATM   15  C   UNL     1      -8.052   6.211  71.004  1.00  0.00    -0.121 C  
BRANCH  15  16
HETATM   16  N   UNL     1      -9.435   5.949  71.439  1.00  0.00    -0.150 NA 
HETATM   17  H   UNL     1      -9.487   5.726  72.433  1.00  0.00     0.000 HD 
BRANCH  16  18
HETATM   18  C   UNL     1     -10.293   7.075  71.087  1.00  0.00    -0.206 C  
BRANCH  18  19
HETATM   19  C   UNL     1      -9.658   8.384  71.547  1.00  0.00    -0.273 C  
BRANCH  19  20
HETATM   20  C   UNL     1     -10.006   9.509  70.572  1.00  0.00    -0.335 C  
BRANCH  20  21
HETATM   21  C   UNL     1     -11.515   9.664  70.428  1.00  0.00    -0.325 C  
BRANCH  21  22
HETATM   22  C   UNL     1     -11.930  11.130  70.514  1.00  0.00    -0.475 C  
BRANCH  22  23
HETATM   23  C   UNL     1     -11.589  11.859  69.224  1.00  0.00    -0.315 C  
BRANCH  23  24
HETATM   24  O   UNL     1     -11.178  13.185  69.542  1.00  0.00    -0.192 OA 
BRANCH  24  25
HETATM   25  C   UNL     1     -12.072  14.139  68.973  1.00  0.00    -0.313 C  
BRANCH  25  26
HETATM   26  C   UNL     1     -11.293  15.363  68.521  1.00  0.00    -0.335 C  
BRANCH  26  27
HETATM   27  O   UNL     1     -11.352  15.447  67.097  1.00  0.00    -0.305 OA 
BRANCH  27  28
HETATM   28  C   UNL     1     -10.100  15.129  66.507  1.00  0.00    -0.269 C  
BRANCH  28  29
HETATM   29  C   UNL     1     -10.101  13.673  66.129  1.00  0.00    -0.311 A  
HETATM   30  C   UNL     1     -11.024  13.158  65.202  1.00  0.00    -0.298 A  
HETATM   31 CL   UNL     1     -12.258  14.139  64.486  1.00  0.00    -0.469 Cl 
HETATM   32  C   UNL     1     -10.987  11.812  64.815  1.00  0.00    -0.360 A  
HETATM   33  C   UNL     1     -10.044  10.950  65.365  1.00  0.00    -0.336 A  
HETATM   34  C   UNL     1      -9.156  11.426  66.323  1.00  0.00    -0.211 A  
HETATM   35  C   UNL     1      -9.191  12.772  66.711  1.00  0.00    -0.225 A  
HETATM   36 CL   UNL     1      -8.066  13.259  67.934  1.00  0.00    -0.145 Cl 
ENDBRANCH  28  29
ENDBRANCH  27  28
ENDBRANCH  26  27
ENDBRANCH  25  26
ENDBRANCH  24  25
ENDBRANCH  23  24
ENDBRANCH  22  23
ENDBRANCH  21  22
ENDBRANCH  20  21
ENDBRANCH  19  20
ENDBRANCH  18  19
ENDBRANCH  16  18
ENDBRANCH  15  16
ENDBRANCH  12  15
ENDBRANCH  10  12
ENDBRANCH   2   4
TORSDOF 16
ENDMDL
MODEL      354
REMARK 921   NORMALIZED FREE ENERGY PREDICTED BY IDOCK:   -3.72 KCAL/MOL
REMARK 922        TOTAL FREE ENERGY PREDICTED BY IDOCK:   -9.27 KCAL/MOL
REMARK 923 INTER-LIGAND FREE ENERGY PREDICTED BY IDOCK:   -8.59 KCAL/MOL
REMARK 924 INTRA-LIGAND FREE ENERGY PREDICTED BY IDOCK:   -0.68 KCAL/MOL
REMARK 927      BINDING AFFINITY PREDICTED BY RF-SCORE:    0.00 PKD
ROOT
HETATM    1  O   UNL     1     -13.060   6.406  72.408  1.00  0.00    -0.527 OA 
HETATM    2  C   UNL     1     -11.753   6.154  71.892  1.00  0.00    -0.279 C  
HETATM    3  H   UNL     1     -13.333   5.715  72.999  1.00  0.00     0.000 HD 
ENDROOT
BRANCH   2   4
HETATM    4  C   UNL     1     -11.321   7.251  70.954  1.00  0.00    -0.308 A  
HETATM    5  C   UNL     1     -11.382   8.610  71.279  1.00  0.00    -0.281 A  
HETATM    6  O   UNL     1     -11.774   9.039  72.517  1.00  0.00    -0.207 OA 
HETATM    7  C   UNL     1     -11.040   9.594  70.356  1.00  0.00    -0.346 A  
HETATM    8  C   UNL     1     -10.619   9.232  69.079  1.00  0.00    -0.225 A  
HETATM    9  H   UNL     1     -11.815   9.962  72.738  1.00  0.00     0.000 HD 
HETATM   10  C   UNL     1     -10.543   7.881  68.713  1.00  0.00    -0.154 A  
HETATM   11  C   UNL     1     -10.909   6.904  69.655  1.00  0.00    -0.294 A  
BRANCH  10  12
HETATM   12  C   UNL     1     -10.149   7.510  67.298  1.00  0.00    -0.231 C  
HETATM   13  O   UNL     1     -11.253   6.890  66.624  1.00  0.00    -0.526 OA 
HETATM   14  H   UNL     1     -11.006   6.657  65.737  1.00  0.00     0.000 HD 
BRANCH  12  15
HETATM   15  C   UNL     1      -9.705   8.765  66.518  1.00  0.00    -0.259 C  
BRANCH  15  16
HETATM   16  N   UNL     1      -9.022   8.402  65.264  1.00  0.00    -0.397 NA 
HETATM   17  H   UNL     1      -9.444   7.585  64.822  1.00  0.00     0.000 HD 
BRANCH  16  18
HETATM   18  C   UNL     1      -8.983   9.549  64.364  1.00  0.00    -0.212 C  
BRANCH  18  19
HETATM   19  C   UNL     1      -9.695  10.741  64.999  1.00  0.00    -0.323 C  
BRANCH  19  20
HETATM   20  C   UNL     1     -10.081  11.757  63.925  1.00  0.00    -0.399 C  
BRANCH  20  21
HETATM   21  C   UNL     1     -11.442  12.378  64.220  1.00  0.00    -0.427 C  
BRANCH  21  22
HETATM   22  C   UNL     1     -11.323  13.509  65.237  1.00  0.00    -0.304 C  
BRANCH  22  23
HETATM   23  C   UNL     1     -11.363  12.961  66.654  1.00  0.00    -0.317 C  
BRANCH  23  24
HETATM   24  O   UNL     1     -10.042  12.966  67.186  1.00  0.00    -0.237 OA 
BRANCH  24  25
HETATM   25  C   UNL     1      -9.313  14.096  66.712  1.00  0.00    -0.282 C  
BRANCH  25  26
HETATM   26  C   UNL     1      -7.970  14.171  67.419  1.00  0.00    -0.184 C  
BRANCH  26  27
HETATM   27  O   UNL     1      -7.749  15.515  67.846  1.00  0.00    -0.119 OA 
BRANCH  27  28
HETATM   28  C   UNL     1      -8.644  15.882  68.886  1.00  0.00    -0.221 C  
BRANCH  28  29
HETATM   29  C   UNL     1      -9.064  17.312  68.678  1.00  0.00    -0.260 A  
HETATM   30  C   UNL     1      -8.118  18.325  68.443  1.00  0.00    -0.307 A  
HETATM   31 CL   UNL     1      -6.415  18.015  68.442  1.00  0.00    -0.198 Cl 
HETATM   32  C   UNL     1      -8.518  19.646  68.200  1.00  0.00    -0.357 A  
HETATM   33  C   UNL     1      -9.867  19.983  68.211  1.00  0.00    -0.475 A  
HETATM   34  C   UNL     1     -10.816  19.007  68.495  1.00  0.00     0.371 A  
HETATM   35  C   UNL     1     -10.419  17.686  68.738  1.00  0.00    -0.287 A  
HETATM   36 CL   UNL     1     -11.672  16.553  69.114  1.00  0.00    -0.020 Cl 
ENDBRANCH  28  29
ENDBRANCH  27  28
ENDBRANCH  26  27
ENDBRANCH  25  26
ENDBRANCH  24  25
ENDBRANCH  23  24
ENDBRANCH  22  23
ENDBRANCH  21  22
ENDBRANCH  20  21
ENDBRANCH  19  20
ENDBRANCH  18  19
ENDBRANCH  16  18
ENDBRANCH  15  16
ENDBRANCH  12  15
ENDBRANCH  10  12
ENDBRANCH   2   4
TORSDOF 16
ENDMDL
MODEL      355
REMARK 921   NORMALIZED FREE ENERGY PREDICTED BY IDOCK:   -3.71 KCAL/MOL
REMARK 922        TOTAL FREE ENERGY PREDICTED BY IDOCK:   -9.25 KCAL/MOL
REMARK 923 INTER-LIGAND FREE ENERGY PREDICTED BY IDOCK:   -8.40 KCAL/MOL
REMARK 924 INTRA-LIGAND FREE ENERGY PREDICTED BY IDOCK:   -0.84 KCAL/MOL
REMARK 927      BINDING AFFINITY PREDICTED BY RF-SCORE:    0.00 PKD
ROOT
HETATM    1  O   UNL     1      -7.833   2.439  69.678  1.00  0.00    -0.043 OA 
HETATM    2  C   UNL     1      -9.202   2.679  70.006  1.00  0.00    -0.132 C  
HETATM    3  H   UNL     1      -7.559   1.576  69.965  1.00  0.00     0.000 HD 
ENDROOT
BRANCH   2   4
HETATM    4  C   UNL     1      -9.635   4.048  69.550  1.00  0.00    -0.265 A  
HETATM    5  C   UNL     1      -9.270   4.600  68.316  1.00  0.00    -0.128 A  
HETATM    6  O   UNL     1      -8.545   3.894  67.397  1.00  0.00    -0.098 OA 
HETATM    7  C   UNL     1      -9.632   5.897  67.965  1.00  0.00    -0.122 A  
HETATM    8  C   UNL     1     -10.382   6.672  68.847  1.00  0.00    -0.216 A  
HETATM    9  H   UNL     1      -8.298   4.268  66.560  1.00  0.00     0.000 HD 
HETATM   10  C   UNL     1     -10.769   6.157  70.092  1.00  0.00    -0.366 A  
HETATM   11  C   UNL     1     -10.377   4.851  70.435  1.00  0.00    -0.248 A  
BRANCH  10  12
HETATM   12  C   UNL     1     -11.524   7.038  71.065  1.00  0.00    -0.303 C  
HETATM   13  O   UNL     1     -11.912   6.282  72.220  1.00  0.00    -0.404 OA 
HETATM   14  H   UNL     1     -12.385   6.835  72.830  1.00  0.00     0.000 HD 
BRANCH  12  15
HETATM   15  C   UNL     1     -10.648   8.232  71.498  1.00  0.00    -0.235 C  
BRANCH  15  16
HETATM   16  N   UNL     1     -11.270   9.515  71.128  1.00  0.00    -0.346 NA 
HETATM   17  H   UNL     1     -11.291  10.169  71.911  1.00  0.00     0.000 HD 
BRANCH  16  18
HETATM   18  C   UNL     1     -10.598  10.082  69.964  1.00  0.00    -0.293 C  
BRANCH  18  19
HETATM   19  C   UNL     1     -11.620  10.423  68.882  1.00  0.00    -0.208 C  
BRANCH  19  20
HETATM   20  C   UNL     1     -10.927  11.096  67.697  1.00  0.00    -0.323 C  
BRANCH  20  21
HETATM   21  C   UNL     1     -11.604  12.414  67.341  1.00  0.00    -0.433 C  
BRANCH  21  22
HETATM   22  C   UNL     1     -11.985  12.457  65.865  1.00  0.00    -0.434 C  
BRANCH  22  23
HETATM   23  C   UNL     1     -12.204  13.891  65.409  1.00  0.00    -0.444 C  
BRANCH  23  24
HETATM   24  O   UNL     1     -11.248  14.727  66.053  1.00  0.00    -0.337 OA 
BRANCH  24  25
HETATM   25  C   UNL     1      -9.939  14.483  65.541  1.00  0.00    -0.342 C  
BRANCH  25  26
HETATM   26  C   UNL     1      -8.912  15.206  66.396  1.00  0.00    -0.279 C  
BRANCH  26  27
HETATM   27  O   UNL     1      -9.322  16.564  66.560  1.00  0.00    -0.237 OA 
BRANCH  27  28
HETATM   28  C   UNL     1      -8.298  17.465  66.164  1.00  0.00    -0.182 C  
BRANCH  28  29
HETATM   29  C   UNL     1      -7.778  18.171  67.387  1.00  0.00    -0.223 A  
HETATM   30  C   UNL     1      -6.493  17.907  67.893  1.00  0.00    -0.183 A  
HETATM   31 CL   UNL     1      -5.452  16.715  67.193  1.00  0.00    -0.179 Cl 
HETATM   32  C   UNL     1      -5.995  18.606  69.001  1.00  0.00    -0.235 A  
HETATM   33  C   UNL     1      -6.779  19.561  69.638  1.00  0.00    -0.314 A  
HETATM   34  C   UNL     1      -8.073  19.799  69.187  1.00  0.00    -0.055 A  
HETATM   35  C   UNL     1      -8.574  19.103  68.079  1.00  0.00    -0.310 A  
HETATM   36 CL   UNL     1     -10.205  19.447  67.616  1.00  0.00    -0.488 Cl 
ENDBRANCH  28  29
ENDBRANCH  27  28
ENDBRANCH  26  27
ENDBRANCH  25  26
ENDBRANCH  24  25
ENDBRANCH  23  24
ENDBRANCH  22  23
ENDBRANCH  21  22
ENDBRANCH  20  21
ENDBRANCH  19  20
ENDBRANCH  18  19
ENDBRANCH  16  18
ENDBRANCH  15  16
ENDBRANCH  12  15
ENDBRANCH  10  12
ENDBRANCH   2   4
TORSDOF 16
ENDMDL
MODEL      356
REMARK 921   NORMALIZED FREE ENERGY PREDICTED BY IDOCK:   -3.70 KCAL/MOL
REMARK 922        TOTAL FREE ENERGY PREDICTED BY IDOCK:   -9.23 KCAL/MOL
REMARK 923 INTER-LIGAND FREE ENERGY PREDICTED BY IDOCK:   -7.15 KCAL/MOL
REMARK 924 INTRA-LIGAND FREE ENERGY PREDICTED BY IDOCK:   -2.09 KCAL/MOL
REMARK 927      BINDING AFFINITY PREDICTED BY RF-SCORE:    0.00 PKD
ROOT
HETATM    1  O   UNL     1     -12.800  10.731  68.999  1.00  0.00    -0.549 OA 
HETATM    2  C   UNL     1     -11.460  11.191  69.183  1.00  0.00    -0.298 C  
HETATM    3  H   UNL     1     -13.288  11.319  68.435  1.00  0.00     0.000 HD 
ENDROOT
BRANCH   2   4
HETATM    4  C   UNL     1     -10.687  10.259  70.078  1.00  0.00    -0.345 A  
HETATM    5  C   UNL     1      -9.306  10.059  69.971  1.00  0.00    -0.119 A  
HETATM    6  O   UNL     1      -8.542  10.761  69.081  1.00  0.00    -0.240 OA 
HETATM    7  C   UNL     1      -8.641   9.134  70.771  1.00  0.00    -0.265 A  
HETATM    8  C   UNL     1      -9.353   8.390  71.710  1.00  0.00    -0.293 A  
HETATM    9  H   UNL     1      -7.605  10.626  69.008  1.00  0.00     0.000 HD 
HETATM   10  C   UNL     1     -10.737   8.561  71.850  1.00  0.00    -0.394 A  
HETATM   11  C   UNL     1     -11.391   9.488  71.019  1.00  0.00    -0.423 A  
BRANCH  10  12
HETATM   12  C   UNL     1     -11.503   7.694  72.827  1.00  0.00    -0.332 C  
HETATM   13  O   UNL     1     -12.253   6.696  72.121  1.00  0.00    -0.432 OA 
HETATM   14  H   UNL     1     -12.734   6.152  72.734  1.00  0.00     0.000 HD 
BRANCH  12  15
HETATM   15  C   UNL     1     -10.532   7.011  73.813  1.00  0.00    -0.354 C  
BRANCH  15  16
HETATM   16  N   UNL     1     -10.669   5.545  73.770  1.00  0.00    -0.314 NA 
HETATM   17  H   UNL     1     -11.350   5.245  73.073  1.00  0.00     0.000 HD 
BRANCH  16  18
HETATM   18  C   UNL     1      -9.365   4.925  73.561  1.00  0.00    -0.125 C  
BRANCH  18  19
HETATM   19  C   UNL     1      -8.925   5.104  72.110  1.00  0.00    -0.139 C  
BRANCH  19  20
HETATM   20  C   UNL     1      -9.850   4.321  71.179  1.00  0.00    -0.250 C  
BRANCH  20  21
HETATM   21  C   UNL     1      -9.382   2.879  71.025  1.00  0.00    -0.218 C  
BRANCH  21  22
HETATM   22  C   UNL     1      -9.110   2.540  69.562  1.00  0.00    -0.185 C  
BRANCH  22  23
HETATM   23  C   UNL     1      -7.714   2.987  69.159  1.00  0.00    -0.047 C  
BRANCH  23  24
HETATM   24  O   UNL     1      -7.796   4.287  68.585  1.00  0.00    -0.072 OA 
BRANCH  24  25
HETATM   25  C   UNL     1      -6.734   5.114  69.055  1.00  0.00    -0.053 C  
BRANCH  25  26
HETATM   26  C   UNL     1      -7.246   6.527  69.279  1.00  0.00    -0.090 C  
BRANCH  26  27
HETATM   27  O   UNL     1      -7.025   7.291  68.093  1.00  0.00    -0.071 OA 
BRANCH  27  28
HETATM   28  C   UNL     1      -8.251   7.723  67.520  1.00  0.00    -0.124 C  
BRANCH  28  29
HETATM   29  C   UNL     1      -8.776   6.633  66.626  1.00  0.00    -0.126 A  
HETATM   30  C   UNL     1      -8.153   6.327  65.403  1.00  0.00    -0.131 A  
HETATM   31 CL   UNL     1      -6.791   7.217  64.812  1.00  0.00    -0.049 Cl 
HETATM   32  C   UNL     1      -8.615   5.276  64.599  1.00  0.00    -0.125 A  
HETATM   33  C   UNL     1      -9.722   4.529  64.989  1.00  0.00    -0.135 A  
HETATM   34  C   UNL     1     -10.385   4.850  66.168  1.00  0.00    -0.329 A  
HETATM   35  C   UNL     1      -9.925   5.899  66.974  1.00  0.00    -0.166 A  
HETATM   36 CL   UNL     1     -10.838   6.241  68.405  1.00  0.00    -0.354 Cl 
ENDBRANCH  28  29
ENDBRANCH  27  28
ENDBRANCH  26  27
ENDBRANCH  25  26
ENDBRANCH  24  25
ENDBRANCH  23  24
ENDBRANCH  22  23
ENDBRANCH  21  22
ENDBRANCH  20  21
ENDBRANCH  19  20
ENDBRANCH  18  19
ENDBRANCH  16  18
ENDBRANCH  15  16
ENDBRANCH  12  15
ENDBRANCH  10  12
ENDBRANCH   2   4
TORSDOF 16
ENDMDL
MODEL      357
REMARK 921   NORMALIZED FREE ENERGY PREDICTED BY IDOCK:   -3.70 KCAL/MOL
REMARK 922        TOTAL FREE ENERGY PREDICTED BY IDOCK:   -9.23 KCAL/MOL
REMARK 923 INTER-LIGAND FREE ENERGY PREDICTED BY IDOCK:   -8.14 KCAL/MOL
REMARK 924 INTRA-LIGAND FREE ENERGY PREDICTED BY IDOCK:   -1.08 KCAL/MOL
REMARK 927      BINDING AFFINITY PREDICTED BY RF-SCORE:    0.00 PKD
ROOT
HETATM    1  O   UNL     1     -10.290   7.827  71.365  1.00  0.00    -0.196 OA 
HETATM    2  C   UNL     1      -9.625   9.022  70.954  1.00  0.00    -0.262 C  
HETATM    3  H   UNL     1     -11.000   8.021  71.966  1.00  0.00     0.000 HD 
ENDROOT
BRANCH   2   4
HETATM    4  C   UNL     1      -8.500   8.714  70.001  1.00  0.00    -0.130 A  
HETATM    5  C   UNL     1      -7.343   9.495  69.898  1.00  0.00    -0.103 A  
HETATM    6  O   UNL     1      -7.120  10.566  70.718  1.00  0.00    -0.426 OA 
HETATM    7  C   UNL     1      -6.360   9.216  68.953  1.00  0.00    -0.044 A  
HETATM    8  C   UNL     1      -6.512   8.133  68.091  1.00  0.00    -0.056 A  
HETATM    9  H   UNL     1      -6.336  11.097  70.648  1.00  0.00     0.000 HD 
HETATM   10  C   UNL     1      -7.655   7.324  68.163  1.00  0.00    -0.115 A  
HETATM   11  C   UNL     1      -8.645   7.634  69.112  1.00  0.00    -0.139 A  
BRANCH  10  12
HETATM   12  C   UNL     1      -7.835   6.193  67.171  1.00  0.00    -0.102 C  
HETATM   13  O   UNL     1      -7.902   4.937  67.860  1.00  0.00    -0.086 OA 
HETATM   14  H   UNL     1      -8.015   4.227  67.239  1.00  0.00     0.000 HD 
BRANCH  12  15
HETATM   15  C   UNL     1      -9.123   6.401  66.348  1.00  0.00    -0.154 C  
BRANCH  15  16
HETATM   16  N   UNL     1      -8.954   7.471  65.350  1.00  0.00    -0.379 NA 
HETATM   17  H   UNL     1      -9.225   7.168  64.415  1.00  0.00     0.000 HD 
BRANCH  16  18
HETATM   18  C   UNL     1      -9.680   8.666  65.767  1.00  0.00     0.017 C  
BRANCH  18  19
HETATM   19  C   UNL     1      -8.774   9.891  65.672  1.00  0.00    -0.168 C  
BRANCH  19  20
HETATM   20  C   UNL     1      -9.592  11.121  65.280  1.00  0.00    -0.268 C  
BRANCH  20  21
HETATM   21  C   UNL     1     -10.830  11.261  66.158  1.00  0.00    -0.281 C  
BRANCH  21  22
HETATM   22  C   UNL     1     -11.882  12.142  65.491  1.00  0.00    -0.350 C  
BRANCH  22  23
HETATM   23  C   UNL     1     -11.345  12.731  64.197  1.00  0.00    -0.390 C  
BRANCH  23  24
HETATM   24  O   UNL     1     -11.847  14.056  64.054  1.00  0.00    -0.390 OA 
BRANCH  24  25
HETATM   25  C   UNL     1     -11.580  14.825  65.225  1.00  0.00    -0.338 C  
BRANCH  25  26
HETATM   26  C   UNL     1     -10.086  14.836  65.501  1.00  0.00    -0.380 C  
BRANCH  26  27
HETATM   27  O   UNL     1      -9.594  16.165  65.321  1.00  0.00    -0.375 OA 
BRANCH  27  28
HETATM   28  C   UNL     1      -8.672  16.518  66.342  1.00  0.00    -0.322 C  
BRANCH  28  29
HETATM   29  C   UNL     1      -8.974  17.919  66.801  1.00  0.00    -0.272 A  
HETATM   30  C   UNL     1     -10.057  18.189  67.657  1.00  0.00    -0.359 A  
HETATM   31 CL   UNL     1     -11.148  16.954  68.185  1.00  0.00    -0.293 Cl 
HETATM   32  C   UNL     1     -10.303  19.488  68.123  1.00  0.00    -0.550 A  
HETATM   33  C   UNL     1      -9.488  20.542  67.724  1.00  0.00    -0.385 A  
HETATM   34  C   UNL     1      -8.445  20.305  66.835  1.00  0.00    -0.354 A  
HETATM   35  C   UNL     1      -8.197  19.008  66.368  1.00  0.00    -0.305 A  
HETATM   36 CL   UNL     1      -6.896  18.822  65.241  1.00  0.00    -0.192 Cl 
ENDBRANCH  28  29
ENDBRANCH  27  28
ENDBRANCH  26  27
ENDBRANCH  25  26
ENDBRANCH  24  25
ENDBRANCH  23  24
ENDBRANCH  22  23
ENDBRANCH  21  22
ENDBRANCH  20  21
ENDBRANCH  19  20
ENDBRANCH  18  19
ENDBRANCH  16  18
ENDBRANCH  15  16
ENDBRANCH  12  15
ENDBRANCH  10  12
ENDBRANCH   2   4
TORSDOF 16
ENDMDL
MODEL      358
REMARK 921   NORMALIZED FREE ENERGY PREDICTED BY IDOCK:   -3.68 KCAL/MOL
REMARK 922        TOTAL FREE ENERGY PREDICTED BY IDOCK:   -9.20 KCAL/MOL
REMARK 923 INTER-LIGAND FREE ENERGY PREDICTED BY IDOCK:   -8.23 KCAL/MOL
REMARK 924 INTRA-LIGAND FREE ENERGY PREDICTED BY IDOCK:   -0.97 KCAL/MOL
REMARK 927      BINDING AFFINITY PREDICTED BY RF-SCORE:    0.00 PKD
ROOT
HETATM    1  O   UNL     1     -10.435   3.300  64.483  1.00  0.00    -0.403 OA 
HETATM    2  C   UNL     1     -10.893   4.298  65.396  1.00  0.00     0.057 C  
HETATM    3  H   UNL     1     -11.162   2.905  64.017  1.00  0.00     0.000 HD 
ENDROOT
BRANCH   2   4
HETATM    4  C   UNL     1      -9.740   4.925  66.135  1.00  0.00    -0.200 A  
HETATM    5  C   UNL     1      -8.684   5.585  65.496  1.00  0.00    -0.154 A  
HETATM    6  O   UNL     1      -8.665   5.773  64.142  1.00  0.00    -0.346 OA 
HETATM    7  C   UNL     1      -7.602   6.088  66.212  1.00  0.00    -0.090 A  
HETATM    8  C   UNL     1      -7.559   5.945  67.597  1.00  0.00    -0.089 A  
HETATM    9  H   UNL     1      -7.949   6.221  63.708  1.00  0.00     0.000 HD 
HETATM   10  C   UNL     1      -8.597   5.292  68.276  1.00  0.00    -0.099 A  
HETATM   11  C   UNL     1      -9.672   4.775  67.532  1.00  0.00    -0.209 A  
BRANCH  10  12
HETATM   12  C   UNL     1      -8.499   5.085  69.773  1.00  0.00    -0.088 C  
HETATM   13  O   UNL     1      -7.131   4.886  70.157  1.00  0.00    -0.047 OA 
HETATM   14  H   UNL     1      -7.070   4.757  71.097  1.00  0.00     0.000 HD 
BRANCH  12  15
HETATM   15  C   UNL     1      -9.074   6.306  70.522  1.00  0.00    -0.154 C  
BRANCH  15  16
HETATM   16  N   UNL     1     -10.487   6.098  70.880  1.00  0.00    -0.218 NA 
HETATM   17  H   UNL     1     -10.614   5.981  71.885  1.00  0.00     0.000 HD 
BRANCH  16  18
HETATM   18  C   UNL     1     -11.305   7.185  70.351  1.00  0.00    -0.289 C  
BRANCH  18  19
HETATM   19  C   UNL     1     -12.370   7.584  71.368  1.00  0.00    -0.374 C  
BRANCH  19  20
HETATM   20  C   UNL     1     -12.145   9.024  71.829  1.00  0.00    -0.438 C  
BRANCH  20  21
HETATM   21  C   UNL     1     -13.100   9.982  71.127  1.00  0.00    -0.472 C  
BRANCH  21  22
HETATM   22  C   UNL     1     -13.180  11.317  71.859  1.00  0.00    -0.491 C  
BRANCH  22  23
HETATM   23  C   UNL     1     -12.521  12.417  71.042  1.00  0.00    -0.256 C  
BRANCH  23  24
HETATM   24  O   UNL     1     -12.309  13.547  71.880  1.00  0.00    -0.084 OA 
BRANCH  24  25
HETATM   25  C   UNL     1     -13.218  14.596  71.552  1.00  0.00    -0.355 C  
BRANCH  25  26
HETATM   26  C   UNL     1     -12.783  15.264  70.259  1.00  0.00    -0.314 C  
BRANCH  26  27
HETATM   27  O   UNL     1     -11.665  16.109  70.530  1.00  0.00    -0.352 OA 
BRANCH  27  28
HETATM   28  C   UNL     1     -10.467  15.574  69.985  1.00  0.00    -0.309 C  
BRANCH  28  29
HETATM   29  C   UNL     1     -10.457  15.823  68.502  1.00  0.00    -0.236 A  
HETATM   30  C   UNL     1     -10.599  14.769  67.582  1.00  0.00    -0.262 A  
HETATM   31 CL   UNL     1     -10.727  13.118  68.083  1.00  0.00    -0.247 Cl 
HETATM   32  C   UNL     1     -10.641  15.014  66.203  1.00  0.00    -0.314 A  
HETATM   33  C   UNL     1     -10.518  16.311  65.717  1.00  0.00    -0.379 A  
HETATM   34  C   UNL     1     -10.323  17.362  66.606  1.00  0.00    -0.306 A  
HETATM   35  C   UNL     1     -10.280  17.120  67.986  1.00  0.00    -0.332 A  
HETATM   36 CL   UNL     1     -10.001  18.489  69.008  1.00  0.00    -0.381 Cl 
ENDBRANCH  28  29
ENDBRANCH  27  28
ENDBRANCH  26  27
ENDBRANCH  25  26
ENDBRANCH  24  25
ENDBRANCH  23  24
ENDBRANCH  22  23
ENDBRANCH  21  22
ENDBRANCH  20  21
ENDBRANCH  19  20
ENDBRANCH  18  19
ENDBRANCH  16  18
ENDBRANCH  15  16
ENDBRANCH  12  15
ENDBRANCH  10  12
ENDBRANCH   2   4
TORSDOF 16
ENDMDL
MODEL      359
REMARK 921   NORMALIZED FREE ENERGY PREDICTED BY IDOCK:   -3.68 KCAL/MOL
REMARK 922        TOTAL FREE ENERGY PREDICTED BY IDOCK:   -9.20 KCAL/MOL
REMARK 923 INTER-LIGAND FREE ENERGY PREDICTED BY IDOCK:   -7.50 KCAL/MOL
REMARK 924 INTRA-LIGAND FREE ENERGY PREDICTED BY IDOCK:   -1.70 KCAL/MOL
REMARK 927      BINDING AFFINITY PREDICTED BY RF-SCORE:    0.00 PKD
ROOT
HETATM    1  O   UNL     1     -10.861  13.619  63.636  1.00  0.00    -0.392 OA 
HETATM    2  C   UNL     1     -11.079  12.226  63.410  1.00  0.00    -0.418 C  
HETATM    3  H   UNL     1     -11.083  14.129  62.866  1.00  0.00     0.000 HD 
ENDROOT
BRANCH   2   4
HETATM    4  C   UNL     1     -10.728  11.418  64.632  1.00  0.00    -0.378 A  
HETATM    5  C   UNL     1     -11.301  11.638  65.890  1.00  0.00    -0.199 A  
HETATM    6  O   UNL     1     -12.285  12.567  66.083  1.00  0.00    -0.609 OA 
HETATM    7  C   UNL     1     -10.895  10.917  67.009  1.00  0.00    -0.323 A  
HETATM    8  C   UNL     1      -9.904   9.945  66.887  1.00  0.00    -0.252 A  
HETATM    9  H   UNL     1     -12.674  12.716  66.936  1.00  0.00     0.000 HD 
HETATM   10  C   UNL     1      -9.306   9.692  65.645  1.00  0.00    -0.296 A  
HETATM   11  C   UNL     1      -9.718  10.445  64.531  1.00  0.00    -0.393 A  
BRANCH  10  12
HETATM   12  C   UNL     1      -8.184   8.681  65.546  1.00  0.00    -0.135 C  
HETATM   13  O   UNL     1      -8.420   7.589  66.446  1.00  0.00    -0.119 OA 
HETATM   14  H   UNL     1      -7.716   6.955  66.384  1.00  0.00     0.000 HD 
BRANCH  12  15
HETATM   15  C   UNL     1      -8.069   8.147  64.103  1.00  0.00    -0.128 C  
BRANCH  15  16
HETATM   16  N   UNL     1      -8.617   6.784  63.991  1.00  0.00    -0.254 NA 
HETATM   17  H   UNL     1      -9.573   6.785  63.635  1.00  0.00     0.000 HD 
BRANCH  16  18
HETATM   18  C   UNL     1      -7.734   5.953  63.179  1.00  0.00    -0.094 C  
BRANCH  18  19
HETATM   19  C   UNL     1      -8.052   4.477  63.401  1.00  0.00    -0.093 C  
BRANCH  19  20
HETATM   20  C   UNL     1      -7.877   4.116  64.876  1.00  0.00    -0.092 C  
BRANCH  20  21
HETATM   21  C   UNL     1      -9.100   3.380  65.410  1.00  0.00    -0.147 C  
BRANCH  21  22
HETATM   22  C   UNL     1      -9.608   4.017  66.700  1.00  0.00    -0.228 C  
BRANCH  22  23
HETATM   23  C   UNL     1     -10.678   5.054  66.399  1.00  0.00    -0.178 C  
BRANCH  23  24
HETATM   24  O   UNL     1     -10.851   5.880  67.546  1.00  0.00    -0.276 OA 
BRANCH  24  25
HETATM   25  C   UNL     1     -10.111   5.369  68.652  1.00  0.00    -0.179 C  
BRANCH  25  26
HETATM   26  C   UNL     1     -10.745   5.833  69.952  1.00  0.00    -0.342 C  
BRANCH  26  27
HETATM   27  O   UNL     1     -10.348   4.950  71.001  1.00  0.00    -0.208 OA 
BRANCH  27  28
HETATM   28  C   UNL     1     -10.782   5.421  72.268  1.00  0.00    -0.231 C  
BRANCH  28  29
HETATM   29  C   UNL     1      -9.658   6.190  72.908  1.00  0.00    -0.155 A  
HETATM   30  C   UNL     1      -8.558   5.531  73.485  1.00  0.00    -0.114 A  
HETATM   31 CL   UNL     1      -8.450   3.805  73.559  1.00  0.00    -0.087 Cl 
HETATM   32  C   UNL     1      -7.490   6.253  74.034  1.00  0.00    -0.086 A  
HETATM   33  C   UNL     1      -7.512   7.644  74.039  1.00  0.00    -0.154 A  
HETATM   34  C   UNL     1      -8.616   8.314  73.522  1.00  0.00    -0.269 A  
HETATM   35  C   UNL     1      -9.685   7.595  72.972  1.00  0.00    -0.244 A  
HETATM   36 CL   UNL     1     -11.025   8.520  72.385  1.00  0.00    -0.427 Cl 
ENDBRANCH  28  29
ENDBRANCH  27  28
ENDBRANCH  26  27
ENDBRANCH  25  26
ENDBRANCH  24  25
ENDBRANCH  23  24
ENDBRANCH  22  23
ENDBRANCH  21  22
ENDBRANCH  20  21
ENDBRANCH  19  20
ENDBRANCH  18  19
ENDBRANCH  16  18
ENDBRANCH  15  16
ENDBRANCH  12  15
ENDBRANCH  10  12
ENDBRANCH   2   4
TORSDOF 16
ENDMDL
MODEL      360
REMARK 921   NORMALIZED FREE ENERGY PREDICTED BY IDOCK:   -3.68 KCAL/MOL
REMARK 922        TOTAL FREE ENERGY PREDICTED BY IDOCK:   -9.19 KCAL/MOL
REMARK 923 INTER-LIGAND FREE ENERGY PREDICTED BY IDOCK:   -8.13 KCAL/MOL
REMARK 924 INTRA-LIGAND FREE ENERGY PREDICTED BY IDOCK:   -1.06 KCAL/MOL
REMARK 927      BINDING AFFINITY PREDICTED BY RF-SCORE:    0.00 PKD
ROOT
HETATM    1  O   UNL     1     -13.348  15.885  70.084  1.00  0.00    -0.643 OA 
HETATM    2  C   UNL     1     -12.400  14.836  70.286  1.00  0.00    -0.345 C  
HETATM    3  H   UNL     1     -14.042  15.846  70.731  1.00  0.00     0.000 HD 
ENDROOT
BRANCH   2   4
HETATM    4  C   UNL     1     -11.298  14.899  69.260  1.00  0.00    -0.315 A  
HETATM    5  C   UNL     1     -10.748  16.098  68.794  1.00  0.00    -0.294 A  
HETATM    6  O   UNL     1     -11.129  17.311  69.298  1.00  0.00    -0.232 OA 
HETATM    7  C   UNL     1      -9.782  16.113  67.792  1.00  0.00    -0.229 A  
HETATM    8  C   UNL     1      -9.336  14.915  67.239  1.00  0.00    -0.210 A  
HETATM    9  H   UNL     1     -10.756  18.125  68.981  1.00  0.00     0.000 HD 
HETATM   10  C   UNL     1      -9.859  13.692  67.679  1.00  0.00    -0.228 A  
HETATM   11  C   UNL     1     -10.848  13.700  68.679  1.00  0.00    -0.283 A  
BRANCH  10  12
HETATM   12  C   UNL     1      -9.412  12.405  67.018  1.00  0.00    -0.211 C  
HETATM   13  O   UNL     1      -9.204  12.615  65.615  1.00  0.00    -0.445 OA 
HETATM   14  H   UNL     1      -8.924  11.808  65.200  1.00  0.00     0.000 HD 
BRANCH  12  15
HETATM   15  C   UNL     1      -8.107  11.895  67.664  1.00  0.00    -0.148 C  
BRANCH  15  16
HETATM   16  N   UNL     1      -8.371  11.231  68.952  1.00  0.00    -0.311 NA 
HETATM   17  H   UNL     1      -8.795  11.865  69.629  1.00  0.00     0.000 HD 
BRANCH  16  18
HETATM   18  C   UNL     1      -9.179  10.035  68.745  1.00  0.00    -0.159 C  
BRANCH  18  19
HETATM   19  C   UNL     1      -9.788   9.576  70.067  1.00  0.00    -0.269 C  
BRANCH  19  20
HETATM   20  C   UNL     1     -11.109  10.304  70.319  1.00  0.00    -0.388 C  
BRANCH  20  21
HETATM   21  C   UNL     1     -12.147   9.366  70.923  1.00  0.00    -0.327 C  
BRANCH  21  22
HETATM   22  C   UNL     1     -11.728   7.907  70.769  1.00  0.00    -0.230 C  
BRANCH  22  23
HETATM   23  C   UNL     1     -11.992   7.135  72.052  1.00  0.00    -0.295 C  
BRANCH  23  24
HETATM   24  O   UNL     1     -10.966   7.443  72.991  1.00  0.00    -0.335 OA 
BRANCH  24  25
HETATM   25  C   UNL     1     -10.632   6.295  73.766  1.00  0.00    -0.245 C  
BRANCH  25  26
HETATM   26  C   UNL     1     -11.307   5.066  73.180  1.00  0.00    -0.321 C  
BRANCH  26  27
HETATM   27  O   UNL     1     -10.301   4.127  72.797  1.00  0.00    -0.166 OA 
BRANCH  27  28
HETATM   28  C   UNL     1      -9.426   4.674  71.822  1.00  0.00    -0.150 C  
BRANCH  28  29
HETATM   29  C   UNL     1      -9.481   3.815  70.588  1.00  0.00    -0.240 A  
HETATM   30  C   UNL     1      -9.605   4.382  69.308  1.00  0.00    -0.191 A  
HETATM   31 CL   UNL     1      -9.770   6.087  69.065  1.00  0.00    -0.151 Cl 
HETATM   32  C   UNL     1      -9.604   3.579  68.159  1.00  0.00    -0.164 A  
HETATM   33  C   UNL     1      -9.503   2.197  68.269  1.00  0.00    -0.232 A  
HETATM   34  C   UNL     1      -9.433   1.612  69.529  1.00  0.00    -0.126 A  
HETATM   35  C   UNL     1      -9.434   2.411  70.679  1.00  0.00    -0.122 A  
HETATM   36 CL   UNL     1      -9.376   1.587  72.200  1.00  0.00    -0.121 Cl 
ENDBRANCH  28  29
ENDBRANCH  27  28
ENDBRANCH  26  27
ENDBRANCH  25  26
ENDBRANCH  24  25
ENDBRANCH  23  24
ENDBRANCH  22  23
ENDBRANCH  21  22
ENDBRANCH  20  21
ENDBRANCH  19  20
ENDBRANCH  18  19
ENDBRANCH  16  18
ENDBRANCH  15  16
ENDBRANCH  12  15
ENDBRANCH  10  12
ENDBRANCH   2   4
TORSDOF 16
ENDMDL
MODEL      361
REMARK 921   NORMALIZED FREE ENERGY PREDICTED BY IDOCK:   -3.67 KCAL/MOL
REMARK 922        TOTAL FREE ENERGY PREDICTED BY IDOCK:   -9.17 KCAL/MOL
REMARK 923 INTER-LIGAND FREE ENERGY PREDICTED BY IDOCK:   -8.42 KCAL/MOL
REMARK 924 INTRA-LIGAND FREE ENERGY PREDICTED BY IDOCK:   -0.74 KCAL/MOL
REMARK 927      BINDING AFFINITY PREDICTED BY RF-SCORE:    0.00 PKD
ROOT
HETATM    1  O   UNL     1      -8.771   3.329  71.063  1.00  0.00    -0.069 OA 
HETATM    2  C   UNL     1      -9.633   3.887  72.054  1.00  0.00    -0.145 C  
HETATM    3  H   UNL     1      -8.309   2.571  71.400  1.00  0.00     0.000 HD 
ENDROOT
BRANCH   2   4
HETATM    4  C   UNL     1     -10.366   5.089  71.519  1.00  0.00    -0.252 A  
HETATM    5  C   UNL     1     -11.411   5.722  72.203  1.00  0.00    -0.258 A  
HETATM    6  O   UNL     1     -11.795   5.330  73.455  1.00  0.00    -0.463 OA 
HETATM    7  C   UNL     1     -12.109   6.786  71.639  1.00  0.00    -0.404 A  
HETATM    8  C   UNL     1     -11.765   7.248  70.371  1.00  0.00    -0.219 A  
HETATM    9  H   UNL     1     -12.504   5.758  73.919  1.00  0.00     0.000 HD 
HETATM   10  C   UNL     1     -10.724   6.644  69.653  1.00  0.00    -0.306 A  
HETATM   11  C   UNL     1     -10.044   5.558  70.233  1.00  0.00    -0.305 A  
BRANCH  10  12
HETATM   12  C   UNL     1     -10.411   7.116  68.248  1.00  0.00    -0.195 C  
HETATM   13  O   UNL     1     -11.310   6.508  67.310  1.00  0.00    -0.704 OA 
HETATM   14  H   UNL     1     -11.114   6.804  66.429  1.00  0.00     0.000 HD 
BRANCH  12  15
HETATM   15  C   UNL     1     -10.529   8.652  68.159  1.00  0.00    -0.187 C  
BRANCH  15  16
HETATM   16  N   UNL     1      -9.335   9.314  68.710  1.00  0.00    -0.138 NA 
HETATM   17  H   UNL     1      -8.682   9.594  67.979  1.00  0.00     0.000 HD 
BRANCH  16  18
HETATM   18  C   UNL     1      -9.728  10.440  69.550  1.00  0.00    -0.170 C  
BRANCH  18  19
HETATM   19  C   UNL     1     -11.117  10.933  69.152  1.00  0.00    -0.301 C  
BRANCH  19  20
HETATM   20  C   UNL     1     -11.624  11.955  70.170  1.00  0.00    -0.252 C  
BRANCH  20  21
HETATM   21  C   UNL     1     -12.112  13.223  69.479  1.00  0.00    -0.315 C  
BRANCH  21  22
HETATM   22  C   UNL     1     -10.942  14.060  68.971  1.00  0.00    -0.287 C  
BRANCH  22  23
HETATM   23  C   UNL     1     -11.125  14.398  67.500  1.00  0.00    -0.302 C  
BRANCH  23  24
HETATM   24  O   UNL     1     -10.199  13.632  66.735  1.00  0.00    -0.260 OA 
BRANCH  24  25
HETATM   25  C   UNL     1      -8.954  14.316  66.619  1.00  0.00    -0.186 C  
BRANCH  25  26
HETATM   26  C   UNL     1      -9.194  15.744  66.157  1.00  0.00    -0.350 C  
BRANCH  26  27
HETATM   27  O   UNL     1      -8.242  16.600  66.789  1.00  0.00    -0.190 OA 
BRANCH  27  28
HETATM   28  C   UNL     1      -8.214  17.882  66.180  1.00  0.00    -0.150 C  
BRANCH  28  29
HETATM   29  C   UNL     1      -7.295  18.772  66.973  1.00  0.00    -0.224 A  
HETATM   30  C   UNL     1      -6.025  18.332  67.382  1.00  0.00    -0.156 A  
HETATM   31 CL   UNL     1      -5.458  16.727  67.066  1.00  0.00    -0.179 Cl 
HETATM   32  C   UNL     1      -5.153  19.183  68.075  1.00  0.00    -0.173 A  
HETATM   33  C   UNL     1      -5.543  20.479  68.393  1.00  0.00    -0.312 A  
HETATM   34  C   UNL     1      -6.817  20.917  68.044  1.00  0.00    -0.238 A  
HETATM   35  C   UNL     1      -7.690  20.069  67.351  1.00  0.00    -0.295 A  
HETATM   36 CL   UNL     1      -9.263  20.696  66.991  1.00  0.00    -0.437 Cl 
ENDBRANCH  28  29
ENDBRANCH  27  28
ENDBRANCH  26  27
ENDBRANCH  25  26
ENDBRANCH  24  25
ENDBRANCH  23  24
ENDBRANCH  22  23
ENDBRANCH  21  22
ENDBRANCH  20  21
ENDBRANCH  19  20
ENDBRANCH  18  19
ENDBRANCH  16  18
ENDBRANCH  15  16
ENDBRANCH  12  15
ENDBRANCH  10  12
ENDBRANCH   2   4
TORSDOF 16
ENDMDL
MODEL      362
REMARK 921   NORMALIZED FREE ENERGY PREDICTED BY IDOCK:   -3.63 KCAL/MOL
REMARK 922        TOTAL FREE ENERGY PREDICTED BY IDOCK:   -9.09 KCAL/MOL
REMARK 923 INTER-LIGAND FREE ENERGY PREDICTED BY IDOCK:   -7.66 KCAL/MOL
REMARK 924 INTRA-LIGAND FREE ENERGY PREDICTED BY IDOCK:   -1.43 KCAL/MOL
REMARK 927      BINDING AFFINITY PREDICTED BY RF-SCORE:    0.00 PKD
ROOT
HETATM    1  O   UNL     1     -12.306   5.414  73.083  1.00  0.00    -0.433 OA 
HETATM    2  C   UNL     1     -11.008   5.226  72.519  1.00  0.00    -0.240 C  
HETATM    3  H   UNL     1     -12.434   4.854  73.839  1.00  0.00     0.000 HD 
ENDROOT
BRANCH   2   4
HETATM    4  C   UNL     1     -10.806   6.115  71.319  1.00  0.00    -0.322 A  
HETATM    5  C   UNL     1     -10.736   7.510  71.399  1.00  0.00    -0.223 A  
HETATM    6  O   UNL     1     -10.775   8.167  72.597  1.00  0.00    -0.326 OA 
HETATM    7  C   UNL     1     -10.621   8.298  70.257  1.00  0.00    -0.230 A  
HETATM    8  C   UNL     1     -10.563   7.698  69.002  1.00  0.00    -0.186 A  
HETATM    9  H   UNL     1     -10.728   9.114  72.651  1.00  0.00     0.000 HD 
HETATM   10  C   UNL     1     -10.627   6.303  68.878  1.00  0.00    -0.321 A  
HETATM   11  C   UNL     1     -10.762   5.526  70.043  1.00  0.00    -0.356 A  
BRANCH  10  12
HETATM   12  C   UNL     1     -10.632   5.673  67.501  1.00  0.00    -0.221 C  
HETATM   13  O   UNL     1     -11.546   6.368  66.642  1.00  0.00    -0.671 OA 
HETATM   14  H   UNL     1     -11.549   5.973  65.778  1.00  0.00     0.000 HD 
BRANCH  12  15
HETATM   15  C   UNL     1      -9.216   5.710  66.889  1.00  0.00    -0.120 C  
BRANCH  15  16
HETATM   16  N   UNL     1      -9.255   5.487  65.434  1.00  0.00    -0.336 NA 
HETATM   17  H   UNL     1     -10.160   5.734  65.034  1.00  0.00     0.000 HD 
BRANCH  16  18
HETATM   18  C   UNL     1      -8.160   6.201  64.787  1.00  0.00    -0.132 C  
BRANCH  18  19
HETATM   19  C   UNL     1      -8.235   7.689  65.116  1.00  0.00    -0.130 C  
BRANCH  19  20
HETATM   20  C   UNL     1      -6.915   8.374  64.764  1.00  0.00    -0.072 C  
BRANCH  20  21
HETATM   21  C   UNL     1      -7.073   9.889  64.732  1.00  0.00    -0.133 C  
BRANCH  21  22
HETATM   22  C   UNL     1      -5.984  10.575  65.552  1.00  0.00    -0.134 C  
BRANCH  22  23
HETATM   23  C   UNL     1      -6.212  10.350  67.038  1.00  0.00    -0.067 C  
BRANCH  23  24
HETATM   24  O   UNL     1      -5.959  11.569  67.730  1.00  0.00    -0.044 OA 
BRANCH  24  25
HETATM   25  C   UNL     1      -6.870  12.583  67.313  1.00  0.00    -0.114 C  
BRANCH  25  26
HETATM   26  C   UNL     1      -7.916  12.807  68.393  1.00  0.00    -0.137 C  
BRANCH  26  27
HETATM   27  O   UNL     1      -9.182  12.362  67.908  1.00  0.00    -0.178 OA 
BRANCH  27  28
HETATM   28  C   UNL     1     -10.108  13.435  67.814  1.00  0.00    -0.232 C  
BRANCH  28  29
HETATM   29  C   UNL     1     -10.996  13.414  69.028  1.00  0.00    -0.265 A  
HETATM   30  C   UNL     1     -11.052  14.507  69.910  1.00  0.00    -0.163 A  
HETATM   31 CL   UNL     1     -10.065  15.914  69.703  1.00  0.00    -0.275 Cl 
HETATM   32  C   UNL     1     -11.920  14.503  71.011  1.00  0.00    -0.394 A  
HETATM   33  C   UNL     1     -12.727  13.400  71.264  1.00  0.00    -0.424 A  
HETATM   34  C   UNL     1     -12.647  12.286  70.434  1.00  0.00    -0.106 A  
HETATM   35  C   UNL     1     -11.781  12.288  69.333  1.00  0.00    -0.330 A  
HETATM   36 CL   UNL     1     -11.731  10.843  68.381  1.00  0.00    -0.349 Cl 
ENDBRANCH  28  29
ENDBRANCH  27  28
ENDBRANCH  26  27
ENDBRANCH  25  26
ENDBRANCH  24  25
ENDBRANCH  23  24
ENDBRANCH  22  23
ENDBRANCH  21  22
ENDBRANCH  20  21
ENDBRANCH  19  20
ENDBRANCH  18  19
ENDBRANCH  16  18
ENDBRANCH  15  16
ENDBRANCH  12  15
ENDBRANCH  10  12
ENDBRANCH   2   4
TORSDOF 16
ENDMDL
MODEL      363
REMARK 921   NORMALIZED FREE ENERGY PREDICTED BY IDOCK:   -3.63 KCAL/MOL
REMARK 922        TOTAL FREE ENERGY PREDICTED BY IDOCK:   -9.09 KCAL/MOL
REMARK 923 INTER-LIGAND FREE ENERGY PREDICTED BY IDOCK:   -7.60 KCAL/MOL
REMARK 924 INTRA-LIGAND FREE ENERGY PREDICTED BY IDOCK:   -1.49 KCAL/MOL
REMARK 927      BINDING AFFINITY PREDICTED BY RF-SCORE:    0.00 PKD
ROOT
HETATM    1  O   UNL     1     -11.718   9.234  70.191  1.00  0.00    -0.455 OA 
HETATM    2  C   UNL     1     -10.967   8.123  70.682  1.00  0.00    -0.244 C  
HETATM    3  H   UNL     1     -12.611   9.212  70.515  1.00  0.00     0.000 HD 
ENDROOT
BRANCH   2   4
HETATM    4  C   UNL     1      -9.551   8.159  70.168  1.00  0.00    -0.168 A  
HETATM    5  C   UNL     1      -8.861   7.021  69.735  1.00  0.00    -0.142 A  
HETATM    6  O   UNL     1      -9.458   5.792  69.681  1.00  0.00    -0.135 OA 
HETATM    7  C   UNL     1      -7.530   7.087  69.336  1.00  0.00    -0.097 A  
HETATM    8  C   UNL     1      -6.859   8.308  69.353  1.00  0.00    -0.043 A  
HETATM    9  H   UNL     1      -8.990   5.020  69.387  1.00  0.00     0.000 HD 
HETATM   10  C   UNL     1      -7.515   9.472  69.778  1.00  0.00    -0.098 A  
HETATM   11  C   UNL     1      -8.854   9.380  70.195  1.00  0.00    -0.249 A  
BRANCH  10  12
HETATM   12  C   UNL     1      -6.749  10.777  69.855  1.00  0.00    -0.156 C  
HETATM   13  O   UNL     1      -6.131  10.912  71.142  1.00  0.00    -0.356 OA 
HETATM   14  H   UNL     1      -5.650  11.730  71.191  1.00  0.00     0.000 HD 
BRANCH  12  15
HETATM   15  C   UNL     1      -5.670  10.832  68.754  1.00  0.00    -0.040 C  
BRANCH  15  16
HETATM   16  N   UNL     1      -5.864  11.996  67.872  1.00  0.00    -0.055 NA 
HETATM   17  H   UNL     1      -6.513  11.795  67.111  1.00  0.00     0.000 HD 
BRANCH  16  18
HETATM   18  C   UNL     1      -6.282  13.154  68.654  1.00  0.00    -0.083 C  
BRANCH  18  19
HETATM   19  C   UNL     1      -5.663  14.426  68.082  1.00  0.00    -0.130 C  
BRANCH  19  20
HETATM   20  C   UNL     1      -6.743  15.484  67.861  1.00  0.00    -0.172 C  
BRANCH  20  21
HETATM   21  C   UNL     1      -7.050  16.235  69.151  1.00  0.00    -0.214 C  
BRANCH  21  22
HETATM   22  C   UNL     1      -8.486  16.749  69.162  1.00  0.00    -0.084 C  
BRANCH  22  23
HETATM   23  C   UNL     1      -9.451  15.634  69.531  1.00  0.00    -0.275 C  
BRANCH  23  24
HETATM   24  O   UNL     1     -10.750  16.191  69.707  1.00  0.00    -0.292 OA 
BRANCH  24  25
HETATM   25  C   UNL     1     -11.589  15.874  68.599  1.00  0.00    -0.380 C  
BRANCH  25  26
HETATM   26  C   UNL     1     -11.748  14.366  68.493  1.00  0.00    -0.335 C  
BRANCH  26  27
HETATM   27  O   UNL     1     -11.494  13.970  67.145  1.00  0.00    -0.318 OA 
BRANCH  27  28
HETATM   28  C   UNL     1     -12.155  12.753  66.829  1.00  0.00    -0.220 C  
BRANCH  28  29
HETATM   29  C   UNL     1     -11.441  12.102  65.676  1.00  0.00    -0.408 A  
HETATM   30  C   UNL     1     -11.457  12.670  64.391  1.00  0.00    -0.349 A  
HETATM   31 CL   UNL     1     -12.347  14.110  64.029  1.00  0.00    -0.417 Cl 
HETATM   32  C   UNL     1     -10.748  12.086  63.332  1.00  0.00    -0.475 A  
HETATM   33  C   UNL     1     -10.030  10.912  63.533  1.00  0.00    -0.419 A  
HETATM   34  C   UNL     1     -10.044  10.304  64.784  1.00  0.00    -0.336 A  
HETATM   35  C   UNL     1     -10.752  10.886  65.843  1.00  0.00    -0.124 A  
HETATM   36 CL   UNL     1     -10.735  10.036  67.351  1.00  0.00    -0.338 Cl 
ENDBRANCH  28  29
ENDBRANCH  27  28
ENDBRANCH  26  27
ENDBRANCH  25  26
ENDBRANCH  24  25
ENDBRANCH  23  24
ENDBRANCH  22  23
ENDBRANCH  21  22
ENDBRANCH  20  21
ENDBRANCH  19  20
ENDBRANCH  18  19
ENDBRANCH  16  18
ENDBRANCH  15  16
ENDBRANCH  12  15
ENDBRANCH  10  12
ENDBRANCH   2   4
TORSDOF 16
ENDMDL
MODEL      364
REMARK 921   NORMALIZED FREE ENERGY PREDICTED BY IDOCK:   -3.62 KCAL/MOL
REMARK 922        TOTAL FREE ENERGY PREDICTED BY IDOCK:   -9.07 KCAL/MOL
REMARK 923 INTER-LIGAND FREE ENERGY PREDICTED BY IDOCK:   -7.71 KCAL/MOL
REMARK 924 INTRA-LIGAND FREE ENERGY PREDICTED BY IDOCK:   -1.36 KCAL/MOL
REMARK 927      BINDING AFFINITY PREDICTED BY RF-SCORE:    0.00 PKD
ROOT
HETATM    1  O   UNL     1      -6.798   2.624  67.352  1.00  0.00    -0.043 OA 
HETATM    2  C   UNL     1      -7.403   3.408  68.380  1.00  0.00    -0.050 C  
HETATM    3  H   UNL     1      -6.212   1.973  67.719  1.00  0.00     0.000 HD 
ENDROOT
BRANCH   2   4
HETATM    4  C   UNL     1      -8.332   4.441  67.797  1.00  0.00    -0.098 A  
HETATM    5  C   UNL     1      -9.410   4.122  66.963  1.00  0.00    -0.175 A  
HETATM    6  O   UNL     1      -9.742   2.827  66.676  1.00  0.00    -0.396 OA 
HETATM    7  C   UNL     1     -10.200   5.112  66.388  1.00  0.00    -0.303 A  
HETATM    8  C   UNL     1      -9.930   6.454  66.645  1.00  0.00    -0.207 A  
HETATM    9  H   UNL     1     -10.473   2.611  66.110  1.00  0.00     0.000 HD 
HETATM   10  C   UNL     1      -8.860   6.816  67.476  1.00  0.00    -0.117 A  
HETATM   11  C   UNL     1      -8.063   5.801  68.033  1.00  0.00    -0.104 A  
BRANCH  10  12
HETATM   12  C   UNL     1      -8.540   8.281  67.688  1.00  0.00    -0.130 C  
HETATM   13  O   UNL     1      -7.128   8.502  67.561  1.00  0.00    -0.077 OA 
HETATM   14  H   UNL     1      -6.927   9.421  67.694  1.00  0.00     0.000 HD 
BRANCH  12  15
HETATM   15  C   UNL     1      -9.294   9.150  66.660  1.00  0.00    -0.177 C  
BRANCH  15  16
HETATM   16  N   UNL     1      -9.920  10.318  67.303  1.00  0.00    -0.182 NA 
HETATM   17  H   UNL     1     -10.318  10.962  66.620  1.00  0.00     0.000 HD 
BRANCH  16  18
HETATM   18  C   UNL     1     -10.910   9.882  68.282  1.00  0.00    -0.230 C  
BRANCH  18  19
HETATM   19  C   UNL     1     -10.816  10.739  69.542  1.00  0.00    -0.288 C  
BRANCH  19  20
HETATM   20  C   UNL     1     -12.043  11.643  69.656  1.00  0.00    -0.345 C  
BRANCH  20  21
HETATM   21  C   UNL     1     -11.657  13.112  69.523  1.00  0.00    -0.347 C  
BRANCH  21  22
HETATM   22  C   UNL     1     -11.919  13.625  68.111  1.00  0.00    -0.390 C  
BRANCH  22  23
HETATM   23  C   UNL     1     -10.614  13.786  67.348  1.00  0.00    -0.260 C  
BRANCH  23  24
HETATM   24  O   UNL     1      -9.546  13.892  68.284  1.00  0.00    -0.209 OA 
BRANCH  24  25
HETATM   25  C   UNL     1      -8.286  13.812  67.621  1.00  0.00    -0.182 C  
BRANCH  25  26
HETATM   26  C   UNL     1      -7.677  15.200  67.511  1.00  0.00    -0.181 C  
BRANCH  26  27
HETATM   27  O   UNL     1      -8.082  15.784  66.273  1.00  0.00    -0.197 OA 
BRANCH  27  28
HETATM   28  C   UNL     1      -7.624  17.124  66.158  1.00  0.00    -0.269 C  
BRANCH  28  29
HETATM   29  C   UNL     1      -8.556  18.020  66.926  1.00  0.00    -0.262 A  
HETATM   30  C   UNL     1      -8.100  18.795  68.006  1.00  0.00    -0.283 A  
HETATM   31 CL   UNL     1      -6.464  18.725  68.567  1.00  0.00    -0.230 Cl 
HETATM   32  C   UNL     1      -8.961  19.667  68.686  1.00  0.00    -0.335 A  
HETATM   33  C   UNL     1     -10.298  19.762  68.315  1.00  0.00    -0.536 A  
HETATM   34  C   UNL     1     -10.783  18.964  67.285  1.00  0.00    -0.523 A  
HETATM   35  C   UNL     1      -9.924  18.092  66.604  1.00  0.00    -0.362 A  
HETATM   36 CL   UNL     1     -10.630  17.118  65.359  1.00  0.00    -0.223 Cl 
ENDBRANCH  28  29
ENDBRANCH  27  28
ENDBRANCH  26  27
ENDBRANCH  25  26
ENDBRANCH  24  25
ENDBRANCH  23  24
ENDBRANCH  22  23
ENDBRANCH  21  22
ENDBRANCH  20  21
ENDBRANCH  19  20
ENDBRANCH  18  19
ENDBRANCH  16  18
ENDBRANCH  15  16
ENDBRANCH  12  15
ENDBRANCH  10  12
ENDBRANCH   2   4
TORSDOF 16
ENDMDL
MODEL      365
REMARK 921   NORMALIZED FREE ENERGY PREDICTED BY IDOCK:   -3.60 KCAL/MOL
REMARK 922        TOTAL FREE ENERGY PREDICTED BY IDOCK:   -9.03 KCAL/MOL
REMARK 923 INTER-LIGAND FREE ENERGY PREDICTED BY IDOCK:   -8.69 KCAL/MOL
REMARK 924 INTRA-LIGAND FREE ENERGY PREDICTED BY IDOCK:   -0.34 KCAL/MOL
REMARK 927      BINDING AFFINITY PREDICTED BY RF-SCORE:    0.00 PKD
ROOT
HETATM    1  O   UNL     1      -9.718   5.592  67.401  1.00  0.00    -0.123 OA 
HETATM    2  C   UNL     1      -9.770   4.924  68.662  1.00  0.00    -0.160 C  
HETATM    3  H   UNL     1      -9.538   4.978  66.698  1.00  0.00     0.000 HD 
ENDROOT
BRANCH   2   4
HETATM    4  C   UNL     1     -10.055   5.897  69.777  1.00  0.00    -0.258 A  
HETATM    5  C   UNL     1     -10.311   5.504  71.095  1.00  0.00    -0.234 A  
HETATM    6  O   UNL     1     -10.247   4.194  71.482  1.00  0.00    -0.148 OA 
HETATM    7  C   UNL     1     -10.640   6.431  72.079  1.00  0.00    -0.244 A  
HETATM    8  C   UNL     1     -10.712   7.786  71.761  1.00  0.00    -0.265 A  
HETATM    9  H   UNL     1     -10.421   3.927  72.377  1.00  0.00     0.000 HD 
HETATM   10  C   UNL     1     -10.461   8.222  70.453  1.00  0.00    -0.223 A  
HETATM   11  C   UNL     1     -10.148   7.266  69.470  1.00  0.00    -0.182 A  
BRANCH  10  12
HETATM   12  C   UNL     1     -10.611   9.690  70.112  1.00  0.00    -0.272 C  
HETATM   13  O   UNL     1      -9.340  10.349  70.191  1.00  0.00    -0.347 OA 
HETATM   14  H   UNL     1      -9.434  11.270  69.976  1.00  0.00     0.000 HD 
BRANCH  12  15
HETATM   15  C   UNL     1     -11.192   9.853  68.691  1.00  0.00    -0.068 C  
BRANCH  15  16
HETATM   16  N   UNL     1     -12.156  10.965  68.632  1.00  0.00    -0.796 NA 
HETATM   17  H   UNL     1     -12.457  11.259  69.561  1.00  0.00     0.000 HD 
BRANCH  16  18
HETATM   18  C   UNL     1     -11.598  12.073  67.863  1.00  0.00    -0.337 C  
BRANCH  18  19
HETATM   19  C   UNL     1     -11.380  11.649  66.413  1.00  0.00    -0.312 C  
BRANCH  19  20
HETATM   20  C   UNL     1     -10.404  12.604  65.727  1.00  0.00    -0.298 C  
BRANCH  20  21
HETATM   21  C   UNL     1     -11.017  13.204  64.466  1.00  0.00    -0.392 C  
BRANCH  21  22
HETATM   22  C   UNL     1     -11.912  14.393  64.800  1.00  0.00    -0.455 C  
BRANCH  22  23
HETATM   23  C   UNL     1     -11.240  15.301  65.817  1.00  0.00    -0.247 C  
BRANCH  23  24
HETATM   24  O   UNL     1     -10.601  16.369  65.125  1.00  0.00    -0.610 OA 
BRANCH  24  25
HETATM   25  C   UNL     1     -10.728  17.588  65.854  1.00  0.00    -0.119 C  
BRANCH  25  26
HETATM   26  C   UNL     1      -9.371  18.264  65.962  1.00  0.00    -0.001 C  
BRANCH  26  27
HETATM   27  O   UNL     1      -8.446  17.349  66.548  1.00  0.00    -0.236 OA 
BRANCH  27  28
HETATM   28  C   UNL     1      -7.141  17.517  66.013  1.00  0.00    -0.264 C  
BRANCH  28  29
HETATM   29  C   UNL     1      -6.577  18.819  66.513  1.00  0.00    -0.218 A  
HETATM   30  C   UNL     1      -5.863  19.681  65.663  1.00  0.00    -0.174 A  
HETATM   31 CL   UNL     1      -5.525  19.280  64.014  1.00  0.00    -0.288 Cl 
HETATM   32  C   UNL     1      -5.385  20.916  66.121  1.00  0.00    -0.234 A  
HETATM   33  C   UNL     1      -5.590  21.301  67.442  1.00  0.00    -0.396 A  
HETATM   34  C   UNL     1      -6.248  20.439  68.314  1.00  0.00    -0.335 A  
HETATM   35  C   UNL     1      -6.727  19.204  67.858  1.00  0.00    -0.225 A  
HETATM   36 CL   UNL     1      -7.502  18.191  69.027  1.00  0.00    -0.226 Cl 
ENDBRANCH  28  29
ENDBRANCH  27  28
ENDBRANCH  26  27
ENDBRANCH  25  26
ENDBRANCH  24  25
ENDBRANCH  23  24
ENDBRANCH  22  23
ENDBRANCH  21  22
ENDBRANCH  20  21
ENDBRANCH  19  20
ENDBRANCH  18  19
ENDBRANCH  16  18
ENDBRANCH  15  16
ENDBRANCH  12  15
ENDBRANCH  10  12
ENDBRANCH   2   4
TORSDOF 16
ENDMDL
MODEL      366
REMARK 921   NORMALIZED FREE ENERGY PREDICTED BY IDOCK:   -3.59 KCAL/MOL
REMARK 922        TOTAL FREE ENERGY PREDICTED BY IDOCK:   -9.02 KCAL/MOL
REMARK 923 INTER-LIGAND FREE ENERGY PREDICTED BY IDOCK:   -7.42 KCAL/MOL
REMARK 924 INTRA-LIGAND FREE ENERGY PREDICTED BY IDOCK:   -1.60 KCAL/MOL
REMARK 927      BINDING AFFINITY PREDICTED BY RF-SCORE:    0.00 PKD
ROOT
HETATM    1  O   UNL     1      -7.907   4.425  66.316  1.00  0.00    -0.093 OA 
HETATM    2  C   UNL     1      -8.625   5.267  65.413  1.00  0.00    -0.149 C  
HETATM    3  H   UNL     1      -7.578   3.652  65.873  1.00  0.00     0.000 HD 
ENDROOT
BRANCH   2   4
HETATM    4  C   UNL     1      -9.147   6.492  66.117  1.00  0.00    -0.146 A  
HETATM    5  C   UNL     1      -9.988   6.439  67.235  1.00  0.00    -0.146 A  
HETATM    6  O   UNL     1     -10.339   5.253  67.817  1.00  0.00    -0.178 OA 
HETATM    7  C   UNL     1     -10.505   7.595  67.811  1.00  0.00    -0.282 A  
HETATM    8  C   UNL     1     -10.182   8.841  67.278  1.00  0.00    -0.332 A  
HETATM    9  H   UNL     1     -10.909   5.216  68.576  1.00  0.00     0.000 HD 
HETATM   10  C   UNL     1      -9.342   8.939  66.160  1.00  0.00    -0.301 A  
HETATM   11  C   UNL     1      -8.844   7.757  65.583  1.00  0.00    -0.102 A  
BRANCH  10  12
HETATM   12  C   UNL     1      -9.057  10.297  65.554  1.00  0.00    -0.176 C  
HETATM   13  O   UNL     1      -9.954  10.551  64.464  1.00  0.00    -0.314 OA 
HETATM   14  H   UNL     1      -9.775  11.404  64.084  1.00  0.00     0.000 HD 
BRANCH  12  15
HETATM   15  C   UNL     1      -9.211  11.403  66.620  1.00  0.00    -0.181 C  
BRANCH  15  16
HETATM   16  N   UNL     1     -10.077  12.493  66.139  1.00  0.00    -0.246 NA 
HETATM   17  H   UNL     1      -9.957  12.663  65.141  1.00  0.00     0.000 HD 
BRANCH  16  18
HETATM   18  C   UNL     1     -11.468  12.218  66.483  1.00  0.00    -0.381 C  
BRANCH  18  19
HETATM   19  C   UNL     1     -11.864  13.000  67.733  1.00  0.00    -0.395 C  
BRANCH  19  20
HETATM   20  C   UNL     1     -11.130  12.448  68.954  1.00  0.00    -0.307 C  
BRANCH  20  21
HETATM   21  C   UNL     1     -12.051  12.384  70.167  1.00  0.00    -0.366 C  
BRANCH  21  22
HETATM   22  C   UNL     1     -12.535  10.959  70.416  1.00  0.00    -0.411 C  
BRANCH  22  23
HETATM   23  C   UNL     1     -13.152  10.837  71.801  1.00  0.00    -0.468 C  
BRANCH  23  24
HETATM   24  O   UNL     1     -13.573   9.492  71.999  1.00  0.00    -0.411 OA 
BRANCH  24  25
HETATM   25  C   UNL     1     -12.895   8.614  71.102  1.00  0.00    -0.092 C  
BRANCH  25  26
HETATM   26  C   UNL     1     -12.588   7.302  71.803  1.00  0.00    -0.341 C  
BRANCH  26  27
HETATM   27  O   UNL     1     -11.174   7.187  71.967  1.00  0.00    -0.239 OA 
BRANCH  27  28
HETATM   28  C   UNL     1     -10.653   6.094  71.225  1.00  0.00    -0.243 C  
BRANCH  28  29
HETATM   29  C   UNL     1      -9.456   5.544  71.951  1.00  0.00    -0.171 A  
HETATM   30  C   UNL     1      -9.601   4.691  73.059  1.00  0.00    -0.129 A  
HETATM   31 CL   UNL     1     -11.151   4.269  73.703  1.00  0.00    -0.356 Cl 
HETATM   32  C   UNL     1      -8.482   4.141  73.699  1.00  0.00    -0.092 A  
HETATM   33  C   UNL     1      -7.200   4.452  73.261  1.00  0.00    -0.075 A  
HETATM   34  C   UNL     1      -7.033   5.337  72.201  1.00  0.00    -0.082 A  
HETATM   35  C   UNL     1      -8.149   5.888  71.559  1.00  0.00    -0.115 A  
HETATM   36 CL   UNL     1      -7.836   7.002  70.272  1.00  0.00    -0.103 Cl 
ENDBRANCH  28  29
ENDBRANCH  27  28
ENDBRANCH  26  27
ENDBRANCH  25  26
ENDBRANCH  24  25
ENDBRANCH  23  24
ENDBRANCH  22  23
ENDBRANCH  21  22
ENDBRANCH  20  21
ENDBRANCH  19  20
ENDBRANCH  18  19
ENDBRANCH  16  18
ENDBRANCH  15  16
ENDBRANCH  12  15
ENDBRANCH  10  12
ENDBRANCH   2   4
TORSDOF 16
ENDMDL
MODEL      367
REMARK 921   NORMALIZED FREE ENERGY PREDICTED BY IDOCK:   -3.59 KCAL/MOL
REMARK 922        TOTAL FREE ENERGY PREDICTED BY IDOCK:   -9.01 KCAL/MOL
REMARK 923 INTER-LIGAND FREE ENERGY PREDICTED BY IDOCK:   -7.54 KCAL/MOL
REMARK 924 INTRA-LIGAND FREE ENERGY PREDICTED BY IDOCK:   -1.47 KCAL/MOL
REMARK 927      BINDING AFFINITY PREDICTED BY RF-SCORE:    0.00 PKD
ROOT
HETATM    1  O   UNL     1      -8.649  10.287  63.944  1.00  0.00    -0.168 OA 
HETATM    2  C   UNL     1      -9.908  10.855  64.309  1.00  0.00    -0.310 C  
HETATM    3  H   UNL     1      -8.732   9.747  63.166  1.00  0.00     0.000 HD 
ENDROOT
BRANCH   2   4
HETATM    4  C   UNL     1      -9.776  11.711  65.542  1.00  0.00    -0.259 A  
HETATM    5  C   UNL     1      -8.998  11.353  66.649  1.00  0.00    -0.181 A  
HETATM    6  O   UNL     1      -8.235  10.219  66.657  1.00  0.00    -0.122 OA 
HETATM    7  C   UNL     1      -8.962  12.139  67.797  1.00  0.00    -0.179 A  
HETATM    8  C   UNL     1      -9.705  13.315  67.857  1.00  0.00    -0.224 A  
HETATM    9  H   UNL     1      -7.707   9.975  67.407  1.00  0.00     0.000 HD 
HETATM   10  C   UNL     1     -10.496  13.712  66.770  1.00  0.00    -0.270 A  
HETATM   11  C   UNL     1     -10.533  12.894  65.626  1.00  0.00    -0.292 A  
BRANCH  10  12
HETATM   12  C   UNL     1     -11.350  14.958  66.880  1.00  0.00    -0.337 C  
HETATM   13  O   UNL     1     -12.666  14.703  66.369  1.00  0.00    -0.327 OA 
HETATM   14  H   UNL     1     -13.201  15.484  66.438  1.00  0.00     0.000 HD 
BRANCH  12  15
HETATM   15  C   UNL     1     -11.445  15.415  68.350  1.00  0.00    -0.355 C  
BRANCH  15  16
HETATM   16  N   UNL     1     -12.636  14.855  69.010  1.00  0.00    -0.467 NA 
HETATM   17  H   UNL     1     -12.656  13.836  68.962  1.00  0.00     0.000 HD 
BRANCH  16  18
HETATM   18  C   UNL     1     -12.724  15.337  70.384  1.00  0.00    -0.356 C  
BRANCH  18  19
HETATM   19  C   UNL     1     -12.387  14.212  71.358  1.00  0.00    -0.425 C  
BRANCH  19  20
HETATM   20  C   UNL     1     -12.373  12.870  70.628  1.00  0.00    -0.385 C  
BRANCH  20  21
HETATM   21  C   UNL     1     -12.959  11.764  71.498  1.00  0.00    -0.446 C  
BRANCH  21  22
HETATM   22  C   UNL     1     -12.622  10.385  70.939  1.00  0.00    -0.478 C  
BRANCH  22  23
HETATM   23  C   UNL     1     -11.147  10.075  71.133  1.00  0.00    -0.200 C  
BRANCH  23  24
HETATM   24  O   UNL     1     -10.962   8.664  71.066  1.00  0.00    -0.239 OA 
BRANCH  24  25
HETATM   25  C   UNL     1     -10.594   8.266  69.748  1.00  0.00    -0.228 C  
BRANCH  25  26
HETATM   26  C   UNL     1      -9.108   7.954  69.703  1.00  0.00    -0.153 C  
BRANCH  26  27
HETATM   27  O   UNL     1      -8.935   6.537  69.676  1.00  0.00    -0.140 OA 
BRANCH  27  28
HETATM   28  C   UNL     1      -8.027   6.145  68.657  1.00  0.00    -0.101 C  
BRANCH  28  29
HETATM   29  C   UNL     1      -8.164   4.664  68.432  1.00  0.00    -0.083 A  
HETATM   30  C   UNL     1      -7.266   3.750  69.011  1.00  0.00    -0.050 A  
HETATM   31 CL   UNL     1      -5.912   4.262  69.959  1.00  0.00    -0.017 Cl 
HETATM   32  C   UNL     1      -7.429   2.369  68.840  1.00  0.00    -0.044 A  
HETATM   33  C   UNL     1      -8.476   1.876  68.068  1.00  0.00    -0.089 A  
HETATM   34  C   UNL     1      -9.345   2.765  67.443  1.00  0.00    -0.178 A  
HETATM   35  C   UNL     1      -9.184   4.146  67.612  1.00  0.00    -0.152 A  
HETATM   36 CL   UNL     1     -10.295   5.169  66.767  1.00  0.00    -0.288 Cl 
ENDBRANCH  28  29
ENDBRANCH  27  28
ENDBRANCH  26  27
ENDBRANCH  25  26
ENDBRANCH  24  25
ENDBRANCH  23  24
ENDBRANCH  22  23
ENDBRANCH  21  22
ENDBRANCH  20  21
ENDBRANCH  19  20
ENDBRANCH  18  19
ENDBRANCH  16  18
ENDBRANCH  15  16
ENDBRANCH  12  15
ENDBRANCH  10  12
ENDBRANCH   2   4
TORSDOF 16
ENDMDL
MODEL      368
REMARK 921   NORMALIZED FREE ENERGY PREDICTED BY IDOCK:   -3.57 KCAL/MOL
REMARK 922        TOTAL FREE ENERGY PREDICTED BY IDOCK:   -8.99 KCAL/MOL
REMARK 923 INTER-LIGAND FREE ENERGY PREDICTED BY IDOCK:   -8.38 KCAL/MOL
REMARK 924 INTRA-LIGAND FREE ENERGY PREDICTED BY IDOCK:   -0.61 KCAL/MOL
REMARK 927      BINDING AFFINITY PREDICTED BY RF-SCORE:    0.00 PKD
ROOT
HETATM    1  O   UNL     1      -9.846   1.954  73.785  1.00  0.00    -0.084 OA 
HETATM    2  C   UNL     1     -10.660   3.105  74.017  1.00  0.00    -0.190 C  
HETATM    3  H   UNL     1      -9.848   1.377  74.540  1.00  0.00     0.000 HD 
ENDROOT
BRANCH   2   4
HETATM    4  C   UNL     1     -10.656   4.019  72.819  1.00  0.00    -0.218 A  
HETATM    5  C   UNL     1      -9.872   3.794  71.682  1.00  0.00    -0.170 A  
HETATM    6  O   UNL     1      -9.100   2.674  71.548  1.00  0.00    -0.080 OA 
HETATM    7  C   UNL     1      -9.845   4.701  70.627  1.00  0.00    -0.296 A  
HETATM    8  C   UNL     1     -10.616   5.860  70.687  1.00  0.00    -0.334 A  
HETATM    9  H   UNL     1      -8.568   2.521  70.776  1.00  0.00     0.000 HD 
HETATM   10  C   UNL     1     -11.417   6.122  71.808  1.00  0.00    -0.342 A  
HETATM   11  C   UNL     1     -11.416   5.201  72.870  1.00  0.00    -0.329 A  
BRANCH  10  12
HETATM   12  C   UNL     1     -12.194   7.420  71.885  1.00  0.00    -0.310 C  
HETATM   13  O   UNL     1     -11.907   8.096  73.117  1.00  0.00    -0.568 OA 
HETATM   14  H   UNL     1     -12.394   8.910  73.166  1.00  0.00     0.000 HD 
BRANCH  12  15
HETATM   15  C   UNL     1     -11.833   8.334  70.696  1.00  0.00    -0.088 C  
BRANCH  15  16
HETATM   16  N   UNL     1     -11.552   9.709  71.143  1.00  0.00    -0.349 NA 
HETATM   17  H   UNL     1     -10.552   9.906  71.168  1.00  0.00     0.000 HD 
BRANCH  16  18
HETATM   18  C   UNL     1     -12.275  10.664  70.310  1.00  0.00    -0.334 C  
BRANCH  18  19
HETATM   19  C   UNL     1     -11.298  11.439  69.430  1.00  0.00    -0.365 C  
BRANCH  19  20
HETATM   20  C   UNL     1     -11.526  11.093  67.959  1.00  0.00    -0.366 C  
BRANCH  20  21
HETATM   21  C   UNL     1     -10.782  12.060  67.045  1.00  0.00    -0.280 C  
BRANCH  21  22
HETATM   22  C   UNL     1     -11.556  12.302  65.753  1.00  0.00    -0.443 C  
BRANCH  22  23
HETATM   23  C   UNL     1     -11.852  13.782  65.575  1.00  0.00    -0.363 C  
BRANCH  23  24
HETATM   24  O   UNL     1     -10.844  14.355  64.748  1.00  0.00    -0.395 OA 
BRANCH  24  25
HETATM   25  C   UNL     1     -10.607  15.713  65.111  1.00  0.00    -0.424 C  
BRANCH  25  26
HETATM   26  C   UNL     1      -9.274  15.826  65.830  1.00  0.00    -0.302 C  
BRANCH  26  27
HETATM   27  O   UNL     1      -8.936  17.207  65.961  1.00  0.00    -0.481 OA 
BRANCH  27  28
HETATM   28  C   UNL     1      -8.293  17.468  67.200  1.00  0.00    -0.216 C  
BRANCH  28  29
HETATM   29  C   UNL     1      -9.147  16.921  68.311  1.00  0.00    -0.235 A  
HETATM   30  C   UNL     1     -10.375  17.515  68.650  1.00  0.00    -0.369 A  
HETATM   31 CL   UNL     1     -10.956  18.945  67.867  1.00  0.00    -0.265 Cl 
HETATM   32  C   UNL     1     -11.190  16.970  69.652  1.00  0.00     0.432 A  
HETATM   33  C   UNL     1     -10.782  15.838  70.348  1.00  0.00    -0.305 A  
HETATM   34  C   UNL     1      -9.547  15.266  70.065  1.00  0.00     0.048 A  
HETATM   35  C   UNL     1      -8.730  15.808  69.065  1.00  0.00    -0.237 A  
HETATM   36 CL   UNL     1      -7.198  15.044  68.810  1.00  0.00    -0.117 Cl 
ENDBRANCH  28  29
ENDBRANCH  27  28
ENDBRANCH  26  27
ENDBRANCH  25  26
ENDBRANCH  24  25
ENDBRANCH  23  24
ENDBRANCH  22  23
ENDBRANCH  21  22
ENDBRANCH  20  21
ENDBRANCH  19  20
ENDBRANCH  18  19
ENDBRANCH  16  18
ENDBRANCH  15  16
ENDBRANCH  12  15
ENDBRANCH  10  12
ENDBRANCH   2   4
TORSDOF 16
ENDMDL
MODEL      369
REMARK 921   NORMALIZED FREE ENERGY PREDICTED BY IDOCK:   -3.56 KCAL/MOL
REMARK 922        TOTAL FREE ENERGY PREDICTED BY IDOCK:   -8.97 KCAL/MOL
REMARK 923 INTER-LIGAND FREE ENERGY PREDICTED BY IDOCK:   -6.67 KCAL/MOL
REMARK 924 INTRA-LIGAND FREE ENERGY PREDICTED BY IDOCK:   -2.30 KCAL/MOL
REMARK 927      BINDING AFFINITY PREDICTED BY RF-SCORE:    0.00 PKD
ROOT
HETATM    1  O   UNL     1     -12.143  11.834  67.361  1.00  0.00    -0.595 OA 
HETATM    2  C   UNL     1     -10.830  12.077  67.868  1.00  0.00    -0.215 C  
HETATM    3  H   UNL     1     -12.410  12.521  66.762  1.00  0.00     0.000 HD 
ENDROOT
BRANCH   2   4
HETATM    4  C   UNL     1     -10.406  10.988  68.819  1.00  0.00    -0.217 A  
HETATM    5  C   UNL     1      -9.071  10.625  69.027  1.00  0.00    -0.166 A  
HETATM    6  O   UNL     1      -8.040  11.293  68.428  1.00  0.00    -0.128 OA 
HETATM    7  C   UNL     1      -8.728   9.563  69.860  1.00  0.00    -0.224 A  
HETATM    8  C   UNL     1      -9.726   8.844  70.514  1.00  0.00    -0.244 A  
HETATM    9  H   UNL     1      -7.134  11.047  68.569  1.00  0.00     0.000 HD 
HETATM   10  C   UNL     1     -11.075   9.176  70.334  1.00  0.00    -0.293 A  
HETATM   11  C   UNL     1     -11.401  10.240  69.474  1.00  0.00    -0.299 A  
BRANCH  10  12
HETATM   12  C   UNL     1     -12.148   8.339  70.999  1.00  0.00    -0.208 C  
HETATM   13  O   UNL     1     -12.419   7.168  70.215  1.00  0.00    -0.592 OA 
HETATM   14  H   UNL     1     -13.091   6.643  70.633  1.00  0.00     0.000 HD 
BRANCH  12  15
HETATM   15  C   UNL     1     -11.701   7.922  72.416  1.00  0.00    -0.367 C  
BRANCH  15  16
HETATM   16  N   UNL     1     -11.808   6.465  72.604  1.00  0.00    -0.502 NA 
HETATM   17  H   UNL     1     -11.798   5.963  71.716  1.00  0.00     0.000 HD 
BRANCH  16  18
HETATM   18  C   UNL     1     -10.761   5.997  73.506  1.00  0.00    -0.250 C  
BRANCH  18  19
HETATM   19  C   UNL     1      -9.526   5.585  72.709  1.00  0.00    -0.160 C  
BRANCH  19  20
HETATM   20  C   UNL     1      -9.916   4.601  71.606  1.00  0.00    -0.262 C  
BRANCH  20  21
HETATM   21  C   UNL     1      -9.799   3.160  72.088  1.00  0.00    -0.238 C  
BRANCH  21  22
HETATM   22  C   UNL     1      -8.602   2.461  71.452  1.00  0.00    -0.099 C  
BRANCH  22  23
HETATM   23  C   UNL     1      -8.249   3.107  70.122  1.00  0.00    -0.044 C  
BRANCH  23  24
HETATM   24  O   UNL     1      -8.167   2.092  69.127  1.00  0.00    -0.048 OA 
BRANCH  24  25
HETATM   25  C   UNL     1      -6.810   1.723  68.893  1.00  0.00    -0.033 C  
BRANCH  25  26
HETATM   26  C   UNL     1      -6.292   2.435  67.654  1.00  0.00    -0.031 C  
BRANCH  26  27
HETATM   27  O   UNL     1      -7.404   2.903  66.892  1.00  0.00    -0.067 OA 
BRANCH  27  28
HETATM   28  C   UNL     1      -7.248   4.268  66.532  1.00  0.00    -0.075 C  
BRANCH  28  29
HETATM   29  C   UNL     1      -8.551   4.982  66.770  1.00  0.00    -0.109 A  
HETATM   30  C   UNL     1      -8.659   6.005  67.728  1.00  0.00    -0.106 A  
HETATM   31 CL   UNL     1      -7.333   6.468  68.740  1.00  0.00    -0.084 Cl 
HETATM   32  C   UNL     1      -9.862   6.702  67.909  1.00  0.00    -0.138 A  
HETATM   33  C   UNL     1     -10.983   6.373  67.155  1.00  0.00    -0.476 A  
HETATM   34  C   UNL     1     -10.912   5.328  66.240  1.00  0.00    -0.056 A  
HETATM   35  C   UNL     1      -9.711   4.630  66.057  1.00  0.00    -0.202 A  
HETATM   36 CL   UNL     1      -9.734   3.326  64.919  1.00  0.00    -0.143 Cl 
ENDBRANCH  28  29
ENDBRANCH  27  28
ENDBRANCH  26  27
ENDBRANCH  25  26
ENDBRANCH  24  25
ENDBRANCH  23  24
ENDBRANCH  22  23
ENDBRANCH  21  22
ENDBRANCH  20  21
ENDBRANCH  19  20
ENDBRANCH  18  19
ENDBRANCH  16  18
ENDBRANCH  15  16
ENDBRANCH  12  15
ENDBRANCH  10  12
ENDBRANCH   2   4
TORSDOF 16
ENDMDL
MODEL      370
REMARK 921   NORMALIZED FREE ENERGY PREDICTED BY IDOCK:   -3.56 KCAL/MOL
REMARK 922        TOTAL FREE ENERGY PREDICTED BY IDOCK:   -8.96 KCAL/MOL
REMARK 923 INTER-LIGAND FREE ENERGY PREDICTED BY IDOCK:   -7.51 KCAL/MOL
REMARK 924 INTRA-LIGAND FREE ENERGY PREDICTED BY IDOCK:   -1.45 KCAL/MOL
REMARK 927      BINDING AFFINITY PREDICTED BY RF-SCORE:    0.00 PKD
ROOT
HETATM    1  O   UNL     1      -6.789   3.686  72.030  1.00  0.00    -0.022 OA 
HETATM    2  C   UNL     1      -8.012   2.966  72.187  1.00  0.00    -0.055 C  
HETATM    3  H   UNL     1      -6.059   3.093  71.895  1.00  0.00     0.000 HD 
ENDROOT
BRANCH   2   4
HETATM    4  C   UNL     1      -9.169   3.907  72.401  1.00  0.00    -0.152 A  
HETATM    5  C   UNL     1     -10.145   3.716  73.386  1.00  0.00    -0.136 A  
HETATM    6  O   UNL     1     -10.073   2.687  74.283  1.00  0.00    -0.105 OA 
HETATM    7  C   UNL     1     -11.237   4.571  73.502  1.00  0.00    -0.388 A  
HETATM    8  C   UNL     1     -11.371   5.649  72.630  1.00  0.00    -0.356 A  
HETATM    9  H   UNL     1     -10.734   2.557  74.951  1.00  0.00     0.000 HD 
HETATM   10  C   UNL     1     -10.415   5.877  71.631  1.00  0.00    -0.285 A  
HETATM   11  C   UNL     1      -9.329   4.991  71.519  1.00  0.00    -0.191 A  
BRANCH  10  12
HETATM   12  C   UNL     1     -10.614   7.014  70.649  1.00  0.00    -0.225 C  
HETATM   13  O   UNL     1      -9.348   7.457  70.143  1.00  0.00    -0.158 OA 
HETATM   14  H   UNL     1      -9.473   8.170  69.527  1.00  0.00     0.000 HD 
BRANCH  12  15
HETATM   15  C   UNL     1     -11.510   6.560  69.478  1.00  0.00    -0.319 C  
BRANCH  15  16
HETATM   16  N   UNL     1     -10.761   5.729  68.521  1.00  0.00    -0.235 NA 
HETATM   17  H   UNL     1     -11.049   4.751  68.556  1.00  0.00     0.000 HD 
BRANCH  16  18
HETATM   18  C   UNL     1     -10.878   6.283  67.176  1.00  0.00    -0.381 C  
BRANCH  18  19
HETATM   19  C   UNL     1      -9.667   5.883  66.336  1.00  0.00    -0.168 C  
BRANCH  19  20
HETATM   20  C   UNL     1      -8.419   6.613  66.831  1.00  0.00    -0.115 C  
BRANCH  20  21
HETATM   21  C   UNL     1      -7.730   7.357  65.693  1.00  0.00    -0.104 C  
BRANCH  21  22
HETATM   22  C   UNL     1      -7.248   8.732  66.145  1.00  0.00    -0.085 C  
BRANCH  22  23
HETATM   23  C   UNL     1      -8.353   9.470  66.884  1.00  0.00    -0.116 C  
BRANCH  23  24
HETATM   24  O   UNL     1      -7.795  10.619  67.513  1.00  0.00    -0.104 OA 
BRANCH  24  25
HETATM   25  C   UNL     1      -8.644  11.082  68.561  1.00  0.00    -0.158 C  
BRANCH  25  26
HETATM   26  C   UNL     1      -9.894  10.221  68.625  1.00  0.00    -0.173 C  
BRANCH  26  27
HETATM   27  O   UNL     1     -10.554  10.458  69.869  1.00  0.00    -0.263 OA 
BRANCH  27  28
HETATM   28  C   UNL     1     -11.956  10.603  69.693  1.00  0.00    -0.268 C  
BRANCH  28  29
HETATM   29  C   UNL     1     -12.427  11.771  70.516  1.00  0.00    -0.317 A  
HETATM   30  C   UNL     1     -13.227  11.585  71.657  1.00  0.00    -0.286 A  
HETATM   31 CL   UNL     1     -13.778  10.022  72.154  1.00  0.00    -0.340 Cl 
HETATM   32  C   UNL     1     -13.621  12.673  72.449  1.00  0.00    -0.435 A  
HETATM   33  C   UNL     1     -13.243  13.965  72.103  1.00  0.00    -0.536 A  
HETATM   34  C   UNL     1     -12.496  14.176  70.949  1.00  0.00    -0.436 A  
HETATM   35  C   UNL     1     -12.102  13.091  70.155  1.00  0.00    -0.307 A  
HETATM   36 CL   UNL     1     -11.203  13.460  68.722  1.00  0.00    -0.293 Cl 
ENDBRANCH  28  29
ENDBRANCH  27  28
ENDBRANCH  26  27
ENDBRANCH  25  26
ENDBRANCH  24  25
ENDBRANCH  23  24
ENDBRANCH  22  23
ENDBRANCH  21  22
ENDBRANCH  20  21
ENDBRANCH  19  20
ENDBRANCH  18  19
ENDBRANCH  16  18
ENDBRANCH  15  16
ENDBRANCH  12  15
ENDBRANCH  10  12
ENDBRANCH   2   4
TORSDOF 16
ENDMDL
MODEL      371
REMARK 921   NORMALIZED FREE ENERGY PREDICTED BY IDOCK:   -3.50 KCAL/MOL
REMARK 922        TOTAL FREE ENERGY PREDICTED BY IDOCK:   -8.85 KCAL/MOL
REMARK 923 INTER-LIGAND FREE ENERGY PREDICTED BY IDOCK:   -6.73 KCAL/MOL
REMARK 924 INTRA-LIGAND FREE ENERGY PREDICTED BY IDOCK:   -2.12 KCAL/MOL
REMARK 927      BINDING AFFINITY PREDICTED BY RF-SCORE:    0.00 PKD
ROOT
HETATM    1  O   UNL     1     -10.165  10.439  63.278  1.00  0.00    -0.463 OA 
HETATM    2  C   UNL     1      -8.751  10.621  63.360  1.00  0.00    -0.164 C  
HETATM    3  H   UNL     1     -10.500  10.741  62.442  1.00  0.00     0.000 HD 
ENDROOT
BRANCH   2   4
HETATM    4  C   UNL     1      -8.221  10.142  64.686  1.00  0.00    -0.165 A  
HETATM    5  C   UNL     1      -8.201   8.794  65.065  1.00  0.00    -0.155 A  
HETATM    6  O   UNL     1      -8.601   7.800  64.216  1.00  0.00    -0.374 OA 
HETATM    7  C   UNL     1      -7.769   8.401  66.329  1.00  0.00    -0.094 A  
HETATM    8  C   UNL     1      -7.336   9.358  67.243  1.00  0.00    -0.087 A  
HETATM    9  H   UNL     1      -8.588   6.886  64.473  1.00  0.00     0.000 HD 
HETATM   10  C   UNL     1      -7.337  10.718  66.903  1.00  0.00    -0.119 A  
HETATM   11  C   UNL     1      -7.795  11.095  65.628  1.00  0.00     0.156 A  
BRANCH  10  12
HETATM   12  C   UNL     1      -6.928  11.749  67.934  1.00  0.00    -0.085 C  
HETATM   13  O   UNL     1      -7.733  12.929  67.802  1.00  0.00    -0.123 OA 
HETATM   14  H   UNL     1      -7.476  13.575  68.449  1.00  0.00     0.000 HD 
BRANCH  12  15
HETATM   15  C   UNL     1      -7.082  11.174  69.358  1.00  0.00    -0.110 C  
BRANCH  15  16
HETATM   16  N   UNL     1      -5.814  11.244  70.104  1.00  0.00    -0.117 NA 
HETATM   17  H   UNL     1      -5.619  12.188  70.438  1.00  0.00     0.000 HD 
BRANCH  16  18
HETATM   18  C   UNL     1      -5.817  10.272  71.191  1.00  0.00    -0.003 C  
BRANCH  18  19
HETATM   19  C   UNL     1      -6.212   8.895  70.664  1.00  0.00    -0.042 C  
BRANCH  19  20
HETATM   20  C   UNL     1      -7.378   8.334  71.478  1.00  0.00    -0.092 C  
BRANCH  20  21
HETATM   21  C   UNL     1      -7.241   6.829  71.670  1.00  0.00    -0.080 C  
BRANCH  21  22
HETATM   22  C   UNL     1      -8.418   6.084  71.046  1.00  0.00    -0.124 C  
BRANCH  22  23
HETATM   23  C   UNL     1      -9.609   7.013  70.874  1.00  0.00    -0.167 C  
BRANCH  23  24
HETATM   24  O   UNL     1     -10.607   6.658  71.825  1.00  0.00    -0.212 OA 
BRANCH  24  25
HETATM   25  C   UNL     1     -10.948   7.778  72.639  1.00  0.00    -0.364 C  
BRANCH  25  26
HETATM   26  C   UNL     1     -10.735   9.064  71.858  1.00  0.00    -0.331 C  
BRANCH  26  27
HETATM   27  O   UNL     1     -11.969   9.780  71.805  1.00  0.00    -0.392 OA 
BRANCH  27  28
HETATM   28  C   UNL     1     -12.428   9.924  70.468  1.00  0.00    -0.117 C  
BRANCH  28  29
HETATM   29  C   UNL     1     -12.141  11.327  70.008  1.00  0.00    -0.425 A  
HETATM   30  C   UNL     1     -12.574  12.442  70.748  1.00  0.00    -0.211 A  
HETATM   31 CL   UNL     1     -13.517  12.283  72.191  1.00  0.00    -0.561 Cl 
HETATM   32  C   UNL     1     -12.260  13.746  70.341  1.00  0.00    -0.433 A  
HETATM   33  C   UNL     1     -11.529  13.961  69.178  1.00  0.00    -0.345 A  
HETATM   34  C   UNL     1     -11.138  12.874  68.403  1.00  0.00    -0.293 A  
HETATM   35  C   UNL     1     -11.450  11.570  68.807  1.00  0.00    -0.287 A  
HETATM   36 CL   UNL     1     -10.947  10.288  67.758  1.00  0.00    -0.350 Cl 
ENDBRANCH  28  29
ENDBRANCH  27  28
ENDBRANCH  26  27
ENDBRANCH  25  26
ENDBRANCH  24  25
ENDBRANCH  23  24
ENDBRANCH  22  23
ENDBRANCH  21  22
ENDBRANCH  20  21
ENDBRANCH  19  20
ENDBRANCH  18  19
ENDBRANCH  16  18
ENDBRANCH  15  16
ENDBRANCH  12  15
ENDBRANCH  10  12
ENDBRANCH   2   4
TORSDOF 16
ENDMDL
MODEL      372
REMARK 921   NORMALIZED FREE ENERGY PREDICTED BY IDOCK:   -3.48 KCAL/MOL
REMARK 922        TOTAL FREE ENERGY PREDICTED BY IDOCK:   -8.81 KCAL/MOL
REMARK 923 INTER-LIGAND FREE ENERGY PREDICTED BY IDOCK:   -8.00 KCAL/MOL
REMARK 924 INTRA-LIGAND FREE ENERGY PREDICTED BY IDOCK:   -0.81 KCAL/MOL
REMARK 927      BINDING AFFINITY PREDICTED BY RF-SCORE:    0.00 PKD
ROOT
HETATM    1  O   UNL     1      -8.615   3.522  68.957  1.00  0.00    -0.074 OA 
HETATM    2  C   UNL     1      -9.772   4.256  69.361  1.00  0.00    -0.187 C  
HETATM    3  H   UNL     1      -8.504   3.552  68.014  1.00  0.00     0.000 HD 
ENDROOT
BRANCH   2   4
HETATM    4  C   UNL     1      -9.948   4.207  70.857  1.00  0.00    -0.207 A  
HETATM    5  C   UNL     1      -9.897   3.021  71.599  1.00  0.00    -0.143 A  
HETATM    6  O   UNL     1      -9.606   1.818  71.018  1.00  0.00    -0.125 OA 
HETATM    7  C   UNL     1     -10.136   3.012  72.970  1.00  0.00    -0.214 A  
HETATM    8  C   UNL     1     -10.427   4.202  73.633  1.00  0.00    -0.263 A  
HETATM    9  H   UNL     1      -9.571   1.014  71.522  1.00  0.00     0.000 HD 
HETATM   10  C   UNL     1     -10.486   5.412  72.926  1.00  0.00    -0.250 A  
HETATM   11  C   UNL     1     -10.259   5.396  71.539  1.00  0.00    -0.280 A  
BRANCH  10  12
HETATM   12  C   UNL     1     -10.871   6.684  73.652  1.00  0.00    -0.140 C  
HETATM   13  O   UNL     1      -9.732   7.230  74.333  1.00  0.00    -0.430 OA 
HETATM   14  H   UNL     1      -9.973   8.028  74.787  1.00  0.00     0.000 HD 
BRANCH  12  15
HETATM   15  C   UNL     1     -11.424   7.724  72.655  1.00  0.00    -0.375 C  
BRANCH  15  16
HETATM   16  N   UNL     1     -12.850   7.487  72.371  1.00  0.00    -0.502 NA 
HETATM   17  H   UNL     1     -13.386   7.317  73.222  1.00  0.00     0.000 HD 
BRANCH  16  18
HETATM   18  C   UNL     1     -13.398   8.594  71.594  1.00  0.00    -0.350 C  
BRANCH  18  19
HETATM   19  C   UNL     1     -13.579   9.821  72.484  1.00  0.00    -0.225 C  
BRANCH  19  20
HETATM   20  C   UNL     1     -13.039  11.066  71.781  1.00  0.00    -0.554 C  
BRANCH  20  21
HETATM   21  C   UNL     1     -13.776  12.319  72.237  1.00  0.00    -0.193 C  
BRANCH  21  22
HETATM   22  C   UNL     1     -13.497  13.494  71.305  1.00  0.00    -0.153 C  
BRANCH  22  23
HETATM   23  C   UNL     1     -14.225  14.740  71.781  1.00  0.00    -0.541 C  
BRANCH  23  24
HETATM   24  O   UNL     1     -13.408  15.877  71.518  1.00  0.00    -0.455 OA 
BRANCH  24  25
HETATM   25  C   UNL     1     -12.378  15.553  70.587  1.00  0.00    -0.416 C  
BRANCH  25  26
HETATM   26  C   UNL     1     -11.092  16.259  70.980  1.00  0.00    -0.061 C  
BRANCH  26  27
HETATM   27  O   UNL     1     -10.861  17.336  70.072  1.00  0.00     0.088 OA 
BRANCH  27  28
HETATM   28  C   UNL     1     -11.410  17.061  68.792  1.00  0.00     0.201 C  
BRANCH  28  29
HETATM   29  C   UNL     1     -10.304  16.597  67.883  1.00  0.00    -0.310 A  
HETATM   30  C   UNL     1      -9.155  17.380  67.671  1.00  0.00    -0.234 A  
HETATM   31 CL   UNL     1      -8.962  18.947  68.380  1.00  0.00    -0.361 Cl 
HETATM   32  C   UNL     1      -8.105  16.920  66.865  1.00  0.00    -0.251 A  
HETATM   33  C   UNL     1      -8.194  15.682  66.236  1.00  0.00     0.029 A  
HETATM   34  C   UNL     1      -9.345  14.916  66.389  1.00  0.00    -0.327 A  
HETATM   35  C   UNL     1     -10.395  15.373  67.195  1.00  0.00    -0.271 A  
HETATM   36 CL   UNL     1     -11.796  14.362  67.296  1.00  0.00    -0.426 Cl 
ENDBRANCH  28  29
ENDBRANCH  27  28
ENDBRANCH  26  27
ENDBRANCH  25  26
ENDBRANCH  24  25
ENDBRANCH  23  24
ENDBRANCH  22  23
ENDBRANCH  21  22
ENDBRANCH  20  21
ENDBRANCH  19  20
ENDBRANCH  18  19
ENDBRANCH  16  18
ENDBRANCH  15  16
ENDBRANCH  12  15
ENDBRANCH  10  12
ENDBRANCH   2   4
TORSDOF 16
ENDMDL
MODEL      373
REMARK 921   NORMALIZED FREE ENERGY PREDICTED BY IDOCK:   -3.48 KCAL/MOL
REMARK 922        TOTAL FREE ENERGY PREDICTED BY IDOCK:   -8.80 KCAL/MOL
REMARK 923 INTER-LIGAND FREE ENERGY PREDICTED BY IDOCK:   -6.82 KCAL/MOL
REMARK 924 INTRA-LIGAND FREE ENERGY PREDICTED BY IDOCK:   -1.99 KCAL/MOL
REMARK 927      BINDING AFFINITY PREDICTED BY RF-SCORE:    0.00 PKD
ROOT
HETATM    1  O   UNL     1     -11.635  13.766  65.652  1.00  0.00    -0.317 OA 
HETATM    2  C   UNL     1     -11.739  12.373  65.952  1.00  0.00    -0.419 C  
HETATM    3  H   UNL     1     -12.203  14.279  66.214  1.00  0.00     0.000 HD 
ENDROOT
BRANCH   2   4
HETATM    4  C   UNL     1     -10.838  11.559  65.061  1.00  0.00    -0.336 A  
HETATM    5  C   UNL     1     -10.801  11.700  63.669  1.00  0.00    -0.432 A  
HETATM    6  O   UNL     1     -11.540  12.650  63.020  1.00  0.00    -0.765 OA 
HETATM    7  C   UNL     1     -10.006  10.877  62.876  1.00  0.00    -0.251 A  
HETATM    8  C   UNL     1      -9.217   9.894  63.469  1.00  0.00    -0.279 A  
HETATM    9  H   UNL     1     -11.515  12.745  62.075  1.00  0.00     0.000 HD 
HETATM   10  C   UNL     1      -9.223   9.721  64.860  1.00  0.00    -0.314 A  
HETATM   11  C   UNL     1     -10.047  10.551  65.641  1.00  0.00    -0.333 A  
BRANCH  10  12
HETATM   12  C   UNL     1      -8.411   8.603  65.479  1.00  0.00    -0.165 C  
HETATM   13  O   UNL     1      -8.790   7.342  64.909  1.00  0.00    -0.347 OA 
HETATM   14  H   UNL     1      -8.281   6.641  65.298  1.00  0.00     0.000 HD 
BRANCH  12  15
HETATM   15  C   UNL     1      -6.904   8.843  65.250  1.00  0.00    -0.072 C  
BRANCH  15  16
HETATM   16  N   UNL     1      -6.529  10.231  65.569  1.00  0.00    -0.114 NA 
HETATM   17  H   UNL     1      -7.238  10.699  66.133  1.00  0.00     0.000 HD 
BRANCH  16  18
HETATM   18  C   UNL     1      -5.217  10.263  66.206  1.00  0.00    -0.052 C  
BRANCH  18  19
HETATM   19  C   UNL     1      -5.362  10.093  67.716  1.00  0.00    -0.038 C  
BRANCH  19  20
HETATM   20  C   UNL     1      -6.725  10.608  68.175  1.00  0.00    -0.064 C  
BRANCH  20  21
HETATM   21  C   UNL     1      -7.460   9.558  69.000  1.00  0.00    -0.074 C  
BRANCH  21  22
HETATM   22  C   UNL     1      -7.312   9.828  70.494  1.00  0.00    -0.126 C  
BRANCH  22  23
HETATM   23  C   UNL     1      -6.391   8.802  71.135  1.00  0.00    -0.054 C  
BRANCH  23  24
HETATM   24  O   UNL     1      -6.386   7.626  70.333  1.00  0.00    -0.037 OA 
BRANCH  24  25
HETATM   25  C   UNL     1      -6.333   6.459  71.150  1.00  0.00    -0.048 C  
BRANCH  25  26
HETATM   26  C   UNL     1      -7.244   6.634  72.353  1.00  0.00    -0.087 C  
BRANCH  26  27
HETATM   27  O   UNL     1      -8.082   5.484  72.467  1.00  0.00    -0.102 OA 
BRANCH  27  28
HETATM   28  C   UNL     1      -9.452   5.849  72.556  1.00  0.00    -0.147 C  
BRANCH  28  29
HETATM   29  C   UNL     1      -9.983   6.073  71.166  1.00  0.00    -0.227 A  
HETATM   30  C   UNL     1      -9.905   5.071  70.183  1.00  0.00    -0.233 A  
HETATM   31 CL   UNL     1      -9.140   3.547  70.477  1.00  0.00    -0.176 Cl 
HETATM   32  C   UNL     1     -10.447   5.267  68.906  1.00  0.00    -0.190 A  
HETATM   33  C   UNL     1     -11.054   6.475  68.580  1.00  0.00    -0.347 A  
HETATM   34  C   UNL     1     -11.094   7.499  69.520  1.00  0.00    -0.063 A  
HETATM   35  C   UNL     1     -10.553   7.305  70.798  1.00  0.00    -0.223 A  
HETATM   36 CL   UNL     1     -10.624   8.650  71.885  1.00  0.00    -0.384 Cl 
ENDBRANCH  28  29
ENDBRANCH  27  28
ENDBRANCH  26  27
ENDBRANCH  25  26
ENDBRANCH  24  25
ENDBRANCH  23  24
ENDBRANCH  22  23
ENDBRANCH  21  22
ENDBRANCH  20  21
ENDBRANCH  19  20
ENDBRANCH  18  19
ENDBRANCH  16  18
ENDBRANCH  15  16
ENDBRANCH  12  15
ENDBRANCH  10  12
ENDBRANCH   2   4
TORSDOF 16
ENDMDL
MODEL      374
REMARK 921   NORMALIZED FREE ENERGY PREDICTED BY IDOCK:   -3.47 KCAL/MOL
REMARK 922        TOTAL FREE ENERGY PREDICTED BY IDOCK:   -8.80 KCAL/MOL
REMARK 923 INTER-LIGAND FREE ENERGY PREDICTED BY IDOCK:   -7.94 KCAL/MOL
REMARK 924 INTRA-LIGAND FREE ENERGY PREDICTED BY IDOCK:   -0.86 KCAL/MOL
REMARK 927      BINDING AFFINITY PREDICTED BY RF-SCORE:    0.00 PKD
ROOT
HETATM    1  O   UNL     1     -11.250  16.716  69.517  1.00  0.00    -0.304 OA 
HETATM    2  C   UNL     1     -10.477  17.214  68.424  1.00  0.00    -0.376 C  
HETATM    3  H   UNL     1     -11.064  17.199  70.314  1.00  0.00     0.000 HD 
ENDROOT
BRANCH   2   4
HETATM    4  C   UNL     1     -10.772  16.449  67.160  1.00  0.00    -0.233 A  
HETATM    5  C   UNL     1     -10.697  17.014  65.882  1.00  0.00    -0.139 A  
HETATM    6  O   UNL     1     -10.273  18.299  65.686  1.00  0.00    -0.573 OA 
HETATM    7  C   UNL     1     -11.047  16.291  64.746  1.00  0.00    -0.293 A  
HETATM    8  C   UNL     1     -11.476  14.972  64.867  1.00  0.00    -0.399 A  
HETATM    9  H   UNL     1     -10.222  18.683  64.819  1.00  0.00     0.000 HD 
HETATM   10  C   UNL     1     -11.565  14.367  66.129  1.00  0.00    -0.372 A  
HETATM   11  C   UNL     1     -11.223  15.121  67.266  1.00  0.00    -0.324 A  
BRANCH  10  12
HETATM   12  C   UNL     1     -12.099  12.955  66.246  1.00  0.00    -0.365 C  
HETATM   13  O   UNL     1     -12.832  12.603  65.065  1.00  0.00    -0.765 OA 
HETATM   14  H   UNL     1     -13.167  11.717  65.139  1.00  0.00     0.000 HD 
BRANCH  12  15
HETATM   15  C   UNL     1     -10.939  11.958  66.452  1.00  0.00    -0.292 C  
BRANCH  15  16
HETATM   16  N   UNL     1      -9.759  12.338  65.657  1.00  0.00    -0.348 NA 
HETATM   17  H   UNL     1      -9.713  13.344  65.498  1.00  0.00     0.000 HD 
BRANCH  16  18
HETATM   18  C   UNL     1      -8.544  11.829  66.286  1.00  0.00    -0.062 C  
BRANCH  18  19
HETATM   19  C   UNL     1      -8.748  11.699  67.793  1.00  0.00    -0.152 C  
BRANCH  19  20
HETATM   20  C   UNL     1      -7.687  12.506  68.539  1.00  0.00    -0.113 C  
BRANCH  20  21
HETATM   21  C   UNL     1      -6.596  11.599  69.096  1.00  0.00    -0.101 C  
BRANCH  21  22
HETATM   22  C   UNL     1      -7.149  10.220  69.441  1.00  0.00    -0.094 C  
BRANCH  22  23
HETATM   23  C   UNL     1      -6.456   9.657  70.672  1.00  0.00    -0.105 C  
BRANCH  23  24
HETATM   24  O   UNL     1      -5.649   8.552  70.278  1.00  0.00    -0.022 OA 
BRANCH  24  25
HETATM   25  C   UNL     1      -5.946   7.404  71.071  1.00  0.00    -0.035 C  
BRANCH  25  26
HETATM   26  C   UNL     1      -7.426   7.389  71.416  1.00  0.00    -0.080 C  
BRANCH  26  27
HETATM   27  O   UNL     1      -8.112   6.574  70.466  1.00  0.00    -0.113 OA 
BRANCH  27  28
HETATM   28  C   UNL     1      -9.519   6.631  70.655  1.00  0.00    -0.169 C  
BRANCH  28  29
HETATM   29  C   UNL     1      -9.910   5.601  71.679  1.00  0.00    -0.213 A  
HETATM   30  C   UNL     1      -9.757   4.226  71.429  1.00  0.00    -0.181 A  
HETATM   31 CL   UNL     1      -9.176   3.623  69.914  1.00  0.00    -0.198 Cl 
HETATM   32  C   UNL     1     -10.075   3.274  72.406  1.00  0.00    -0.226 A  
HETATM   33  C   UNL     1     -10.574   3.675  73.641  1.00  0.00    -0.281 A  
HETATM   34  C   UNL     1     -10.784   5.027  73.889  1.00  0.00    -0.356 A  
HETATM   35  C   UNL     1     -10.467   5.982  72.914  1.00  0.00    -0.219 A  
HETATM   36 CL   UNL     1     -10.795   7.635  73.307  1.00  0.00    -0.440 Cl 
ENDBRANCH  28  29
ENDBRANCH  27  28
ENDBRANCH  26  27
ENDBRANCH  25  26
ENDBRANCH  24  25
ENDBRANCH  23  24
ENDBRANCH  22  23
ENDBRANCH  21  22
ENDBRANCH  20  21
ENDBRANCH  19  20
ENDBRANCH  18  19
ENDBRANCH  16  18
ENDBRANCH  15  16
ENDBRANCH  12  15
ENDBRANCH  10  12
ENDBRANCH   2   4
TORSDOF 16
ENDMDL
MODEL      375
REMARK 921   NORMALIZED FREE ENERGY PREDICTED BY IDOCK:   -3.47 KCAL/MOL
REMARK 922        TOTAL FREE ENERGY PREDICTED BY IDOCK:   -8.79 KCAL/MOL
REMARK 923 INTER-LIGAND FREE ENERGY PREDICTED BY IDOCK:   -6.83 KCAL/MOL
REMARK 924 INTRA-LIGAND FREE ENERGY PREDICTED BY IDOCK:   -1.96 KCAL/MOL
REMARK 927      BINDING AFFINITY PREDICTED BY RF-SCORE:    0.00 PKD
ROOT
HETATM    1  O   UNL     1      -9.401   4.151  67.737  1.00  0.00    -0.144 OA 
HETATM    2  C   UNL     1      -9.492   3.710  69.092  1.00  0.00    -0.165 C  
HETATM    3  H   UNL     1      -9.813   3.530  67.147  1.00  0.00     0.000 HD 
ENDROOT
BRANCH   2   4
HETATM    4  C   UNL     1      -8.839   4.696  70.026  1.00  0.00    -0.125 A  
HETATM    5  C   UNL     1      -7.774   4.366  70.871  1.00  0.00    -0.060 A  
HETATM    6  O   UNL     1      -7.196   3.127  70.853  1.00  0.00    -0.033 OA 
HETATM    7  C   UNL     1      -7.247   5.288  71.770  1.00  0.00    -0.080 A  
HETATM    8  C   UNL     1      -7.777   6.575  71.836  1.00  0.00    -0.098 A  
HETATM    9  H   UNL     1      -6.473   2.902  71.426  1.00  0.00     0.000 HD 
HETATM   10  C   UNL     1      -8.844   6.946  71.006  1.00  0.00    -0.140 A  
HETATM   11  C   UNL     1      -9.373   5.994  70.117  1.00  0.00    -0.172 A  
BRANCH  10  12
HETATM   12  C   UNL     1      -9.451   8.327  71.140  1.00  0.00    -0.164 C  
HETATM   13  O   UNL     1      -8.985   8.958  72.341  1.00  0.00    -0.383 OA 
HETATM   14  H   UNL     1      -9.366   9.825  72.425  1.00  0.00     0.000 HD 
BRANCH  12  15
HETATM   15  C   UNL     1      -9.081   9.197  69.921  1.00  0.00    -0.178 C  
BRANCH  15  16
HETATM   16  N   UNL     1      -7.956  10.096  70.226  1.00  0.00    -0.405 NA 
HETATM   17  H   UNL     1      -7.221   9.624  70.752  1.00  0.00     0.000 HD 
BRANCH  16  18
HETATM   18  C   UNL     1      -7.446  10.698  68.998  1.00  0.00    -0.117 C  
BRANCH  18  19
HETATM   19  C   UNL     1      -8.528  11.552  68.342  1.00  0.00    -0.159 C  
BRANCH  19  20
HETATM   20  C   UNL     1      -8.189  13.035  68.490  1.00  0.00    -0.067 C  
BRANCH  20  21
HETATM   21  C   UNL     1      -7.504  13.570  67.238  1.00  0.00    -0.056 C  
BRANCH  21  22
HETATM   22  C   UNL     1      -6.387  14.546  67.595  1.00  0.00    -0.128 C  
BRANCH  22  23
HETATM   23  C   UNL     1      -6.685  15.241  68.913  1.00  0.00    -0.115 C  
BRANCH  23  24
HETATM   24  O   UNL     1      -6.567  16.648  68.727  1.00  0.00    -0.151 OA 
BRANCH  24  25
HETATM   25  C   UNL     1      -7.851  17.267  68.736  1.00  0.00    -0.254 C  
BRANCH  25  26
HETATM   26  C   UNL     1      -8.210  17.724  67.332  1.00  0.00    -0.214 C  
BRANCH  26  27
HETATM   27  O   UNL     1      -9.113  16.780  66.757  1.00  0.00    -0.219 OA 
BRANCH  27  28
HETATM   28  C   UNL     1     -10.416  16.908  67.306  1.00  0.00    -0.301 C  
BRANCH  28  29
HETATM   29  C   UNL     1     -10.953  15.534  67.602  1.00  0.00    -0.315 A  
HETATM   30  C   UNL     1     -11.188  14.605  66.574  1.00  0.00    -0.346 A  
HETATM   31 CL   UNL     1     -10.943  14.992  64.905  1.00  0.00    -0.419 Cl 
HETATM   32  C   UNL     1     -11.639  13.309  66.860  1.00  0.00    -0.408 A  
HETATM   33  C   UNL     1     -11.887  12.927  68.174  1.00  0.00    -0.380 A  
HETATM   34  C   UNL     1     -11.712  13.848  69.201  1.00  0.00    -0.382 A  
HETATM   35  C   UNL     1     -11.261  15.144  68.918  1.00  0.00    -0.283 A  
HETATM   36 CL   UNL     1     -11.107  16.225  70.261  1.00  0.00    -0.368 Cl 
ENDBRANCH  28  29
ENDBRANCH  27  28
ENDBRANCH  26  27
ENDBRANCH  25  26
ENDBRANCH  24  25
ENDBRANCH  23  24
ENDBRANCH  22  23
ENDBRANCH  21  22
ENDBRANCH  20  21
ENDBRANCH  19  20
ENDBRANCH  18  19
ENDBRANCH  16  18
ENDBRANCH  15  16
ENDBRANCH  12  15
ENDBRANCH  10  12
ENDBRANCH   2   4
TORSDOF 16
ENDMDL
MODEL      376
REMARK 921   NORMALIZED FREE ENERGY PREDICTED BY IDOCK:   -3.46 KCAL/MOL
REMARK 922        TOTAL FREE ENERGY PREDICTED BY IDOCK:   -8.76 KCAL/MOL
REMARK 923 INTER-LIGAND FREE ENERGY PREDICTED BY IDOCK:   -6.90 KCAL/MOL
REMARK 924 INTRA-LIGAND FREE ENERGY PREDICTED BY IDOCK:   -1.86 KCAL/MOL
REMARK 927      BINDING AFFINITY PREDICTED BY RF-SCORE:    0.00 PKD
ROOT
HETATM    1  O   UNL     1     -10.538  20.128  68.628  1.00  0.00    -0.447 OA 
HETATM    2  C   UNL     1     -10.732  19.013  67.757  1.00  0.00    -0.356 C  
HETATM    3  H   UNL     1     -11.369  20.468  68.937  1.00  0.00     0.000 HD 
ENDROOT
BRANCH   2   4
HETATM    4  C   UNL     1      -9.413  18.473  67.268  1.00  0.00    -0.296 A  
HETATM    5  C   UNL     1      -8.540  19.199  66.449  1.00  0.00    -0.328 A  
HETATM    6  O   UNL     1      -8.796  20.493  66.092  1.00  0.00    -0.570 OA 
HETATM    7  C   UNL     1      -7.365  18.635  65.961  1.00  0.00    -0.276 A  
HETATM    8  C   UNL     1      -7.033  17.324  66.294  1.00  0.00    -0.299 A  
HETATM    9  H   UNL     1      -8.204  20.986  65.536  1.00  0.00     0.000 HD 
HETATM   10  C   UNL     1      -7.878  16.563  67.113  1.00  0.00    -0.215 A  
HETATM   11  C   UNL     1      -9.070  17.145  67.581  1.00  0.00    -0.227 A  
BRANCH  10  12
HETATM   12  C   UNL     1      -7.534  15.118  67.407  1.00  0.00    -0.210 C  
HETATM   13  O   UNL     1      -7.333  14.934  68.816  1.00  0.00    -0.112 OA 
HETATM   14  H   UNL     1      -7.117  14.027  69.000  1.00  0.00     0.000 HD 
BRANCH  12  15
HETATM   15  C   UNL     1      -8.665  14.188  66.920  1.00  0.00    -0.166 C  
BRANCH  15  16
HETATM   16  N   UNL     1      -8.233  12.780  66.908  1.00  0.00    -0.386 NA 
HETATM   17  H   UNL     1      -7.553  12.583  67.642  1.00  0.00     0.000 HD 
BRANCH  16  18
HETATM   18  C   UNL     1      -9.392  11.898  66.987  1.00  0.00    -0.188 C  
BRANCH  18  19
HETATM   19  C   UNL     1      -9.517  11.320  68.394  1.00  0.00    -0.192 C  
BRANCH  19  20
HETATM   20  C   UNL     1      -8.259  10.531  68.753  1.00  0.00    -0.134 C  
BRANCH  20  21
HETATM   21  C   UNL     1      -8.528   9.554  69.892  1.00  0.00    -0.198 C  
BRANCH  21  22
HETATM   22  C   UNL     1      -7.252   9.251  70.672  1.00  0.00    -0.120 C  
BRANCH  22  23
HETATM   23  C   UNL     1      -6.951   7.761  70.646  1.00  0.00    -0.046 C  
BRANCH  23  24
HETATM   24  O   UNL     1      -7.731   7.118  71.649  1.00  0.00    -0.087 OA 
BRANCH  24  25
HETATM   25  C   UNL     1      -7.222   5.815  71.925  1.00  0.00    -0.091 C  
BRANCH  25  26
HETATM   26  C   UNL     1      -8.375   4.839  72.091  1.00  0.00    -0.119 C  
BRANCH  26  27
HETATM   27  O   UNL     1      -9.477   5.290  71.302  1.00  0.00    -0.144 OA 
BRANCH  27  28
HETATM   28  C   UNL     1      -9.501   4.653  70.033  1.00  0.00    -0.172 C  
BRANCH  28  29
HETATM   29  C   UNL     1      -9.573   5.710  68.964  1.00  0.00    -0.174 A  
HETATM   30  C   UNL     1      -8.533   5.882  68.035  1.00  0.00    -0.110 A  
HETATM   31 CL   UNL     1      -7.078   4.947  68.094  1.00  0.00    -0.061 Cl 
HETATM   32  C   UNL     1      -8.629   6.833  67.010  1.00  0.00    -0.114 A  
HETATM   33  C   UNL     1      -9.754   7.645  66.910  1.00  0.00    -0.277 A  
HETATM   34  C   UNL     1     -10.771   7.527  67.851  1.00  0.00    -0.200 A  
HETATM   35  C   UNL     1     -10.677   6.577  68.876  1.00  0.00    -0.273 A  
HETATM   36 CL   UNL     1     -11.979   6.531  70.016  1.00  0.00    -0.315 Cl 
ENDBRANCH  28  29
ENDBRANCH  27  28
ENDBRANCH  26  27
ENDBRANCH  25  26
ENDBRANCH  24  25
ENDBRANCH  23  24
ENDBRANCH  22  23
ENDBRANCH  21  22
ENDBRANCH  20  21
ENDBRANCH  19  20
ENDBRANCH  18  19
ENDBRANCH  16  18
ENDBRANCH  15  16
ENDBRANCH  12  15
ENDBRANCH  10  12
ENDBRANCH   2   4
TORSDOF 16
ENDMDL
MODEL      377
REMARK 921   NORMALIZED FREE ENERGY PREDICTED BY IDOCK:   -3.44 KCAL/MOL
REMARK 922        TOTAL FREE ENERGY PREDICTED BY IDOCK:   -8.72 KCAL/MOL
REMARK 923 INTER-LIGAND FREE ENERGY PREDICTED BY IDOCK:   -7.11 KCAL/MOL
REMARK 924 INTRA-LIGAND FREE ENERGY PREDICTED BY IDOCK:   -1.62 KCAL/MOL
REMARK 927      BINDING AFFINITY PREDICTED BY RF-SCORE:    0.00 PKD
ROOT
HETATM    1  O   UNL     1      -8.376  10.677  64.096  1.00  0.00    -0.306 OA 
HETATM    2  C   UNL     1      -9.294  10.706  65.190  1.00  0.00    -0.212 C  
HETATM    3  H   UNL     1      -8.406   9.840  63.648  1.00  0.00     0.000 HD 
ENDROOT
BRANCH   2   4
HETATM    4  C   UNL     1      -9.246  12.033  65.901  1.00  0.00    -0.106 A  
HETATM    5  C   UNL     1      -8.101  12.523  66.540  1.00  0.00     0.276 A  
HETATM    6  O   UNL     1      -6.910  11.853  66.499  1.00  0.00    -0.372 OA 
HETATM    7  C   UNL     1      -8.120  13.722  67.247  1.00  0.00    -0.154 A  
HETATM    8  C   UNL     1      -9.295  14.466  67.321  1.00  0.00    -0.211 A  
HETATM    9  H   UNL     1      -6.133  12.185  66.933  1.00  0.00     0.000 HD 
HETATM   10  C   UNL     1     -10.464  14.012  66.694  1.00  0.00    -0.272 A  
HETATM   11  C   UNL     1     -10.428  12.789  66.000  1.00  0.00    -0.291 A  
BRANCH  10  12
HETATM   12  C   UNL     1     -11.749  14.799  66.844  1.00  0.00    -0.302 C  
HETATM   13  O   UNL     1     -12.876  13.973  66.522  1.00  0.00    -0.456 OA 
HETATM   14  H   UNL     1     -13.682  14.467  66.616  1.00  0.00     0.000 HD 
BRANCH  12  15
HETATM   15  C   UNL     1     -11.889  15.327  68.287  1.00  0.00    -0.228 C  
BRANCH  15  16
HETATM   16  N   UNL     1     -12.395  14.282  69.193  1.00  0.00    -0.539 NA 
HETATM   17  H   UNL     1     -11.802  13.452  69.188  1.00  0.00     0.000 HD 
BRANCH  16  18
HETATM   18  C   UNL     1     -12.565  14.823  70.537  1.00  0.00    -0.359 C  
BRANCH  18  19
HETATM   19  C   UNL     1     -12.202  13.767  71.578  1.00  0.00    -0.175 C  
BRANCH  19  20
HETATM   20  C   UNL     1     -12.383  12.367  70.992  1.00  0.00    -0.309 C  
BRANCH  20  21
HETATM   21  C   UNL     1     -13.282  11.513  71.879  1.00  0.00    -0.479 C  
BRANCH  21  22
HETATM   22  C   UNL     1     -13.153  10.033  71.532  1.00  0.00    -0.531 C  
BRANCH  22  23
HETATM   23  C   UNL     1     -11.690   9.631  71.434  1.00  0.00    -0.404 C  
BRANCH  23  24
HETATM   24  O   UNL     1     -11.545   8.681  70.383  1.00  0.00    -0.209 OA 
BRANCH  24  25
HETATM   25  C   UNL     1     -10.181   8.583  69.978  1.00  0.00    -0.198 C  
BRANCH  25  26
HETATM   26  C   UNL     1      -9.820   7.126  69.744  1.00  0.00    -0.173 C  
BRANCH  26  27
HETATM   27  O   UNL     1      -9.731   6.894  68.338  1.00  0.00    -0.136 OA 
BRANCH  27  28
HETATM   28  C   UNL     1      -8.815   5.849  68.043  1.00  0.00    -0.109 C  
BRANCH  28  29
HETATM   29  C   UNL     1      -8.340   6.010  66.624  1.00  0.00    -0.111 A  
HETATM   30  C   UNL     1      -8.487   4.977  65.682  1.00  0.00    -0.127 A  
HETATM   31 CL   UNL     1      -9.156   3.436  66.099  1.00  0.00    -0.146 Cl 
HETATM   32  C   UNL     1      -8.090   5.151  64.350  1.00  0.00    -0.121 A  
HETATM   33  C   UNL     1      -7.517   6.350  63.940  1.00  0.00    -0.081 A  
HETATM   34  C   UNL     1      -7.313   7.366  64.868  1.00  0.00    -0.080 A  
HETATM   35  C   UNL     1      -7.710   7.195  66.200  1.00  0.00    -0.098 A  
HETATM   36 CL   UNL     1      -7.384   8.504  67.284  1.00  0.00    -0.087 Cl 
ENDBRANCH  28  29
ENDBRANCH  27  28
ENDBRANCH  26  27
ENDBRANCH  25  26
ENDBRANCH  24  25
ENDBRANCH  23  24
ENDBRANCH  22  23
ENDBRANCH  21  22
ENDBRANCH  20  21
ENDBRANCH  19  20
ENDBRANCH  18  19
ENDBRANCH  16  18
ENDBRANCH  15  16
ENDBRANCH  12  15
ENDBRANCH  10  12
ENDBRANCH   2   4
TORSDOF 16
ENDMDL
MODEL      378
REMARK 921   NORMALIZED FREE ENERGY PREDICTED BY IDOCK:   -3.41 KCAL/MOL
REMARK 922        TOTAL FREE ENERGY PREDICTED BY IDOCK:   -8.67 KCAL/MOL
REMARK 923 INTER-LIGAND FREE ENERGY PREDICTED BY IDOCK:   -6.34 KCAL/MOL
REMARK 924 INTRA-LIGAND FREE ENERGY PREDICTED BY IDOCK:   -2.33 KCAL/MOL
REMARK 927      BINDING AFFINITY PREDICTED BY RF-SCORE:    0.00 PKD
ROOT
HETATM    1  O   UNL     1      -9.098   5.174  68.555  1.00  0.00    -0.107 OA 
HETATM    2  C   UNL     1      -7.715   5.398  68.281  1.00  0.00    -0.081 C  
HETATM    3  H   UNL     1      -9.229   4.343  68.997  1.00  0.00     0.000 HD 
ENDROOT
BRANCH   2   4
HETATM    4  C   UNL     1      -7.509   6.716  67.581  1.00  0.00    -0.097 A  
HETATM    5  C   UNL     1      -7.225   6.826  66.215  1.00  0.00    -0.072 A  
HETATM    6  O   UNL     1      -7.186   5.732  65.396  1.00  0.00    -0.067 OA 
HETATM    7  C   UNL     1      -6.970   8.060  65.623  1.00  0.00    -0.063 A  
HETATM    8  C   UNL     1      -7.004   9.220  66.393  1.00  0.00    -0.084 A  
HETATM    9  H   UNL     1      -6.993   5.807  64.469  1.00  0.00     0.000 HD 
HETATM   10  C   UNL     1      -7.287   9.154  67.765  1.00  0.00    -0.084 A  
HETATM   11  C   UNL     1      -7.523   7.896  68.346  1.00  0.00    -0.100 A  
BRANCH  10  12
HETATM   12  C   UNL     1      -7.251  10.418  68.598  1.00  0.00    -0.082 C  
HETATM   13  O   UNL     1      -6.040  10.471  69.365  1.00  0.00    -0.041 OA 
HETATM   14  H   UNL     1      -6.018  11.264  69.887  1.00  0.00     0.000 HD 
BRANCH  12  15
HETATM   15  C   UNL     1      -7.345  11.662  67.690  1.00  0.00    -0.108 C  
BRANCH  15  16
HETATM   16  N   UNL     1      -6.088  12.429  67.701  1.00  0.00    -0.113 NA 
HETATM   17  H   UNL     1      -5.632  12.428  66.788  1.00  0.00     0.000 HD 
BRANCH  16  18
HETATM   18  C   UNL     1      -6.329  13.782  68.189  1.00  0.00    -0.125 C  
BRANCH  18  19
HETATM   19  C   UNL     1      -7.520  14.399  67.461  1.00  0.00    -0.206 C  
BRANCH  19  20
HETATM   20  C   UNL     1      -7.362  15.918  67.386  1.00  0.00    -0.224 C  
BRANCH  20  21
HETATM   21  C   UNL     1      -8.095  16.487  66.177  1.00  0.00    -0.242 C  
BRANCH  21  22
HETATM   22  C   UNL     1      -8.818  17.783  66.531  1.00  0.00    -0.283 C  
BRANCH  22  23
HETATM   23  C   UNL     1     -10.300  17.526  66.754  1.00  0.00    -0.314 C  
BRANCH  23  24
HETATM   24  O   UNL     1     -10.603  17.753  68.126  1.00  0.00    -0.378 OA 
BRANCH  24  25
HETATM   25  C   UNL     1     -11.407  16.696  68.646  1.00  0.00    -0.155 C  
BRANCH  25  26
HETATM   26  C   UNL     1     -10.514  15.569  69.138  1.00  0.00    -0.232 C  
BRANCH  26  27
HETATM   27  O   UNL     1     -11.316  14.407  69.355  1.00  0.00    -0.257 OA 
BRANCH  27  28
HETATM   28  C   UNL     1     -12.133  14.124  68.229  1.00  0.00    -0.262 C  
BRANCH  28  29
HETATM   29  C   UNL     1     -11.584  12.913  67.526  1.00  0.00    -0.409 A  
HETATM   30  C   UNL     1     -11.061  12.997  66.224  1.00  0.00    -0.289 A  
HETATM   31 CL   UNL     1     -11.073  14.471  65.318  1.00  0.00    -0.334 Cl 
HETATM   32  C   UNL     1     -10.504  11.875  65.594  1.00  0.00    -0.302 A  
HETATM   33  C   UNL     1     -10.480  10.646  66.244  1.00  0.00    -0.268 A  
HETATM   34  C   UNL     1     -11.040  10.529  67.512  1.00  0.00    -0.358 A  
HETATM   35  C   UNL     1     -11.598  11.648  68.143  1.00  0.00    -0.319 A  
HETATM   36 CL   UNL     1     -12.298  11.392  69.705  1.00  0.00    -0.288 Cl 
ENDBRANCH  28  29
ENDBRANCH  27  28
ENDBRANCH  26  27
ENDBRANCH  25  26
ENDBRANCH  24  25
ENDBRANCH  23  24
ENDBRANCH  22  23
ENDBRANCH  21  22
ENDBRANCH  20  21
ENDBRANCH  19  20
ENDBRANCH  18  19
ENDBRANCH  16  18
ENDBRANCH  15  16
ENDBRANCH  12  15
ENDBRANCH  10  12
ENDBRANCH   2   4
TORSDOF 16
ENDMDL
MODEL      379
REMARK 921   NORMALIZED FREE ENERGY PREDICTED BY IDOCK:   -3.38 KCAL/MOL
REMARK 922        TOTAL FREE ENERGY PREDICTED BY IDOCK:   -8.62 KCAL/MOL
REMARK 923 INTER-LIGAND FREE ENERGY PREDICTED BY IDOCK:   -6.92 KCAL/MOL
REMARK 924 INTRA-LIGAND FREE ENERGY PREDICTED BY IDOCK:   -1.70 KCAL/MOL
REMARK 927      BINDING AFFINITY PREDICTED BY RF-SCORE:    0.00 PKD
ROOT
HETATM    1  O   UNL     1      -9.919   2.768  73.905  1.00  0.00    -0.098 OA 
HETATM    2  C   UNL     1     -10.260   4.149  74.029  1.00  0.00    -0.176 C  
HETATM    3  H   UNL     1      -9.744   2.382  74.755  1.00  0.00     0.000 HD 
ENDROOT
BRANCH   2   4
HETATM    4  C   UNL     1     -10.538   4.761  72.681  1.00  0.00    -0.271 A  
HETATM    5  C   UNL     1      -9.930   4.325  71.498  1.00  0.00    -0.173 A  
HETATM    6  O   UNL     1      -9.086   3.250  71.474  1.00  0.00    -0.094 OA 
HETATM    7  C   UNL     1     -10.161   4.965  70.284  1.00  0.00    -0.299 A  
HETATM    8  C   UNL     1     -11.020   6.060  70.228  1.00  0.00    -0.412 A  
HETATM    9  H   UNL     1      -8.673   2.954  70.672  1.00  0.00     0.000 HD 
HETATM   10  C   UNL     1     -11.650   6.528  71.390  1.00  0.00    -0.371 A  
HETATM   11  C   UNL     1     -11.389   5.878  72.609  1.00  0.00    -0.337 A  
BRANCH  10  12
HETATM   12  C   UNL     1     -12.526   7.761  71.322  1.00  0.00    -0.279 C  
HETATM   13  O   UNL     1     -13.318   7.873  72.513  1.00  0.00    -0.510 OA 
HETATM   14  H   UNL     1     -13.867   8.647  72.470  1.00  0.00     0.000 HD 
BRANCH  12  15
HETATM   15  C   UNL     1     -11.659   9.027  71.156  1.00  0.00    -0.306 C  
BRANCH  15  16
HETATM   16  N   UNL     1     -12.356  10.223  71.656  1.00  0.00    -0.384 NA 
HETATM   17  H   UNL     1     -11.734  10.834  72.187  1.00  0.00     0.000 HD 
BRANCH  16  18
HETATM   18  C   UNL     1     -13.000  10.928  70.552  1.00  0.00    -0.136 C  
BRANCH  18  19
HETATM   19  C   UNL     1     -12.065  11.998  69.996  1.00  0.00    -0.355 C  
BRANCH  19  20
HETATM   20  C   UNL     1     -11.431  11.517  68.691  1.00  0.00    -0.354 C  
BRANCH  20  21
HETATM   21  C   UNL     1     -11.415  12.625  67.645  1.00  0.00    -0.390 C  
BRANCH  21  22
HETATM   22  C   UNL     1     -11.625  12.063  66.243  1.00  0.00    -0.378 C  
BRANCH  22  23
HETATM   23  C   UNL     1     -10.290  11.827  65.555  1.00  0.00    -0.262 C  
BRANCH  23  24
HETATM   24  O   UNL     1     -10.395  10.666  64.737  1.00  0.00    -0.335 OA 
BRANCH  24  25
HETATM   25  C   UNL     1      -9.102  10.194  64.364  1.00  0.00    -0.245 C  
BRANCH  25  26
HETATM   26  C   UNL     1      -8.160  10.288  65.553  1.00  0.00    -0.156 C  
BRANCH  26  27
HETATM   27  O   UNL     1      -7.744   8.972  65.917  1.00  0.00    -0.092 OA 
BRANCH  27  28
HETATM   28  C   UNL     1      -6.556   9.000  66.695  1.00  0.00    -0.068 C  
BRANCH  28  29
HETATM   29  C   UNL     1      -6.601   7.868  67.685  1.00  0.00    -0.060 A  
HETATM   30  C   UNL     1      -7.176   8.032  68.957  1.00  0.00    -0.078 A  
HETATM   31 CL   UNL     1      -7.808   9.550  69.496  1.00  0.00    -0.093 Cl 
HETATM   32  C   UNL     1      -7.261   6.960  69.856  1.00  0.00    -0.076 A  
HETATM   33  C   UNL     1      -6.752   5.713  69.510  1.00  0.00    -0.059 A  
HETATM   34  C   UNL     1      -6.130   5.543  68.277  1.00  0.00    -0.025 A  
HETATM   35  C   UNL     1      -6.044   6.613  67.377  1.00  0.00    -0.028 A  
HETATM   36 CL   UNL     1      -5.224   6.310  65.884  1.00  0.00    -0.013 Cl 
ENDBRANCH  28  29
ENDBRANCH  27  28
ENDBRANCH  26  27
ENDBRANCH  25  26
ENDBRANCH  24  25
ENDBRANCH  23  24
ENDBRANCH  22  23
ENDBRANCH  21  22
ENDBRANCH  20  21
ENDBRANCH  19  20
ENDBRANCH  18  19
ENDBRANCH  16  18
ENDBRANCH  15  16
ENDBRANCH  12  15
ENDBRANCH  10  12
ENDBRANCH   2   4
TORSDOF 16
ENDMDL
MODEL      380
REMARK 921   NORMALIZED FREE ENERGY PREDICTED BY IDOCK:   -3.37 KCAL/MOL
REMARK 922        TOTAL FREE ENERGY PREDICTED BY IDOCK:   -8.60 KCAL/MOL
REMARK 923 INTER-LIGAND FREE ENERGY PREDICTED BY IDOCK:   -7.13 KCAL/MOL
REMARK 924 INTRA-LIGAND FREE ENERGY PREDICTED BY IDOCK:   -1.47 KCAL/MOL
REMARK 927      BINDING AFFINITY PREDICTED BY RF-SCORE:    0.00 PKD
ROOT
HETATM    1  O   UNL     1      -7.872  18.534  67.607  1.00  0.00    -0.231 OA 
HETATM    2  C   UNL     1      -8.932  18.407  66.658  1.00  0.00    -0.289 C  
HETATM    3  H   UNL     1      -7.242  19.189  67.330  1.00  0.00     0.000 HD 
ENDROOT
BRANCH   2   4
HETATM    4  C   UNL     1      -9.931  17.369  67.099  1.00  0.00    -0.291 A  
HETATM    5  C   UNL     1     -10.505  17.347  68.375  1.00  0.00    -0.384 A  
HETATM    6  O   UNL     1     -10.251  18.323  69.297  1.00  0.00    -0.423 OA 
HETATM    7  C   UNL     1     -11.369  16.328  68.765  1.00  0.00    -0.329 A  
HETATM    8  C   UNL     1     -11.685  15.305  67.873  1.00  0.00    -0.233 A  
HETATM    9  H   UNL     1     -10.641  18.308  70.163  1.00  0.00     0.000 HD 
HETATM   10  C   UNL     1     -11.132  15.291  66.585  1.00  0.00    -0.276 A  
HETATM   11  C   UNL     1     -10.247  16.320  66.217  1.00  0.00    -0.339 A  
BRANCH  10  12
HETATM   12  C   UNL     1     -11.433  14.134  65.654  1.00  0.00    -0.325 C  
HETATM   13  O   UNL     1     -10.999  14.446  64.322  1.00  0.00    -0.611 OA 
HETATM   14  H   UNL     1     -11.188  13.720  63.738  1.00  0.00     0.000 HD 
BRANCH  12  15
HETATM   15  C   UNL     1     -10.724  12.854  66.143  1.00  0.00    -0.272 C  
BRANCH  15  16
HETATM   16  N   UNL     1      -9.463  12.629  65.417  1.00  0.00    -0.457 NA 
HETATM   17  H   UNL     1      -8.660  12.597  66.046  1.00  0.00     0.000 HD 
BRANCH  16  18
HETATM   18  C   UNL     1      -9.562  11.425  64.598  1.00  0.00    -0.199 C  
BRANCH  18  19
HETATM   19  C   UNL     1     -10.044  10.251  65.446  1.00  0.00    -0.354 C  
BRANCH  19  20
HETATM   20  C   UNL     1      -8.927   9.219  65.599  1.00  0.00    -0.243 C  
BRANCH  20  21
HETATM   21  C   UNL     1      -9.042   8.476  66.925  1.00  0.00    -0.177 C  
BRANCH  21  22
HETATM   22  C   UNL     1      -7.723   8.506  67.690  1.00  0.00    -0.102 C  
BRANCH  22  23
HETATM   23  C   UNL     1      -7.944   8.971  69.121  1.00  0.00    -0.101 C  
BRANCH  23  24
HETATM   24  O   UNL     1      -7.519   7.943  70.008  1.00  0.00    -0.075 OA 
BRANCH  24  25
HETATM   25  C   UNL     1      -8.635   7.196  70.487  1.00  0.00    -0.144 C  
BRANCH  25  26
HETATM   26  C   UNL     1      -8.436   5.722  70.179  1.00  0.00    -0.121 C  
BRANCH  26  27
HETATM   27  O   UNL     1      -9.539   5.261  69.399  1.00  0.00    -0.133 OA 
BRANCH  27  28
HETATM   28  C   UNL     1      -9.278   3.983  68.836  1.00  0.00    -0.148 C  
BRANCH  28  29
HETATM   29  C   UNL     1      -8.478   4.166  67.575  1.00  0.00    -0.102 A  
HETATM   30  C   UNL     1      -7.111   3.843  67.523  1.00  0.00    -0.056 A  
HETATM   31 CL   UNL     1      -6.242   3.280  68.910  1.00  0.00    -0.028 Cl 
HETATM   32  C   UNL     1      -6.383   3.967  66.331  1.00  0.00    -0.036 A  
HETATM   33  C   UNL     1      -7.001   4.439  65.178  1.00  0.00    -0.058 A  
HETATM   34  C   UNL     1      -8.339   4.815  65.222  1.00  0.00    -0.127 A  
HETATM   35  C   UNL     1      -9.069   4.692  66.411  1.00  0.00    -0.120 A  
HETATM   36 CL   UNL     1     -10.718   5.217  66.371  1.00  0.00    -0.352 Cl 
ENDBRANCH  28  29
ENDBRANCH  27  28
ENDBRANCH  26  27
ENDBRANCH  25  26
ENDBRANCH  24  25
ENDBRANCH  23  24
ENDBRANCH  22  23
ENDBRANCH  21  22
ENDBRANCH  20  21
ENDBRANCH  19  20
ENDBRANCH  18  19
ENDBRANCH  16  18
ENDBRANCH  15  16
ENDBRANCH  12  15
ENDBRANCH  10  12
ENDBRANCH   2   4
TORSDOF 16
ENDMDL
MODEL      381
REMARK 921   NORMALIZED FREE ENERGY PREDICTED BY IDOCK:   -3.37 KCAL/MOL
REMARK 922        TOTAL FREE ENERGY PREDICTED BY IDOCK:   -8.60 KCAL/MOL
REMARK 923 INTER-LIGAND FREE ENERGY PREDICTED BY IDOCK:   -6.73 KCAL/MOL
REMARK 924 INTRA-LIGAND FREE ENERGY PREDICTED BY IDOCK:   -1.87 KCAL/MOL
REMARK 927      BINDING AFFINITY PREDICTED BY RF-SCORE:    0.00 PKD
ROOT
HETATM    1  O   UNL     1     -10.491   4.641  72.763  1.00  0.00    -0.188 OA 
HETATM    2  C   UNL     1     -10.327   5.773  71.909  1.00  0.00    -0.214 C  
HETATM    3  H   UNL     1     -11.177   4.792  73.403  1.00  0.00     0.000 HD 
ENDROOT
BRANCH   2   4
HETATM    4  C   UNL     1      -9.239   5.533  70.896  1.00  0.00    -0.179 A  
HETATM    5  C   UNL     1      -8.183   6.424  70.675  1.00  0.00    -0.125 A  
HETATM    6  O   UNL     1      -8.025   7.556  71.426  1.00  0.00    -0.092 OA 
HETATM    7  C   UNL     1      -7.238   6.199  69.678  1.00  0.00    -0.074 A  
HETATM    8  C   UNL     1      -7.328   5.060  68.881  1.00  0.00    -0.058 A  
HETATM    9  H   UNL     1      -7.308   8.161  71.276  1.00  0.00     0.000 HD 
HETATM   10  C   UNL     1      -8.370   4.141  69.070  1.00  0.00    -0.089 A  
HETATM   11  C   UNL     1      -9.324   4.397  70.071  1.00  0.00    -0.227 A  
BRANCH  10  12
HETATM   12  C   UNL     1      -8.490   2.945  68.149  1.00  0.00    -0.082 C  
HETATM   13  O   UNL     1      -9.682   2.206  68.450  1.00  0.00    -0.196 OA 
HETATM   14  H   UNL     1      -9.758   1.456  67.872  1.00  0.00     0.000 HD 
BRANCH  12  15
HETATM   15  C   UNL     1      -8.523   3.404  66.676  1.00  0.00    -0.109 C  
BRANCH  15  16
HETATM   16  N   UNL     1      -9.678   4.279  66.414  1.00  0.00    -0.201 NA 
HETATM   17  H   UNL     1     -10.011   4.737  67.262  1.00  0.00     0.000 HD 
BRANCH  16  18
HETATM   18  C   UNL     1      -9.351   5.241  65.367  1.00  0.00    -0.035 C  
BRANCH  18  19
HETATM   19  C   UNL     1      -8.902   6.561  65.988  1.00  0.00    -0.154 C  
BRANCH  19  20
HETATM   20  C   UNL     1      -9.918   7.025  67.031  1.00  0.00    -0.273 C  
BRANCH  20  21
HETATM   21  C   UNL     1      -9.646   8.461  67.463  1.00  0.00    -0.194 C  
BRANCH  21  22
HETATM   22  C   UNL     1      -9.740   9.420  66.280  1.00  0.00    -0.330 C  
BRANCH  22  23
HETATM   23  C   UNL     1     -10.607  10.619  66.630  1.00  0.00    -0.214 C  
BRANCH  23  24
HETATM   24  O   UNL     1     -10.569  10.816  68.040  1.00  0.00    -0.181 OA 
BRANCH  24  25
HETATM   25  C   UNL     1     -11.684  11.593  68.470  1.00  0.00    -0.315 C  
BRANCH  25  26
HETATM   26  C   UNL     1     -12.052  12.601  67.395  1.00  0.00    -0.111 C  
BRANCH  26  27
HETATM   27  O   UNL     1     -12.050  13.909  67.969  1.00  0.00    -0.367 OA 
BRANCH  27  28
HETATM   28  C   UNL     1     -10.733  14.327  68.299  1.00  0.00    -0.247 C  
BRANCH  28  29
HETATM   29  C   UNL     1     -10.570  15.767  67.895  1.00  0.00    -0.282 A  
HETATM   30  C   UNL     1     -10.214  16.123  66.582  1.00  0.00    -0.287 A  
HETATM   31 CL   UNL     1      -9.877  14.940  65.365  1.00  0.00    -0.357 Cl 
HETATM   32  C   UNL     1     -10.114  17.467  66.199  1.00  0.00    -0.317 A  
HETATM   33  C   UNL     1     -10.342  18.479  67.125  1.00  0.00    -0.433 A  
HETATM   34  C   UNL     1     -10.642  18.149  68.443  1.00  0.00    -0.215 A  
HETATM   35  C   UNL     1     -10.743  16.806  68.828  1.00  0.00    -0.341 A  
HETATM   36 CL   UNL     1     -11.089  16.499  70.496  1.00  0.00    -0.242 Cl 
ENDBRANCH  28  29
ENDBRANCH  27  28
ENDBRANCH  26  27
ENDBRANCH  25  26
ENDBRANCH  24  25
ENDBRANCH  23  24
ENDBRANCH  22  23
ENDBRANCH  21  22
ENDBRANCH  20  21
ENDBRANCH  19  20
ENDBRANCH  18  19
ENDBRANCH  16  18
ENDBRANCH  15  16
ENDBRANCH  12  15
ENDBRANCH  10  12
ENDBRANCH   2   4
TORSDOF 16
ENDMDL
MODEL      382
REMARK 921   NORMALIZED FREE ENERGY PREDICTED BY IDOCK:   -3.36 KCAL/MOL
REMARK 922        TOTAL FREE ENERGY PREDICTED BY IDOCK:   -8.57 KCAL/MOL
REMARK 923 INTER-LIGAND FREE ENERGY PREDICTED BY IDOCK:   -6.86 KCAL/MOL
REMARK 924 INTRA-LIGAND FREE ENERGY PREDICTED BY IDOCK:   -1.72 KCAL/MOL
REMARK 927      BINDING AFFINITY PREDICTED BY RF-SCORE:    0.00 PKD
ROOT
HETATM    1  O   UNL     1      -7.905   4.429  67.089  1.00  0.00    -0.095 OA 
HETATM    2  C   UNL     1      -8.660   4.990  66.014  1.00  0.00    -0.121 C  
HETATM    3  H   UNL     1      -7.535   3.589  66.844  1.00  0.00     0.000 HD 
ENDROOT
BRANCH   2   4
HETATM    4  C   UNL     1      -9.247   6.322  66.404  1.00  0.00    -0.173 A  
HETATM    5  C   UNL     1     -10.215   6.474  67.403  1.00  0.00    -0.177 A  
HETATM    6  O   UNL     1     -10.647   5.417  68.154  1.00  0.00    -0.160 OA 
HETATM    7  C   UNL     1     -10.784   7.713  67.681  1.00  0.00    -0.246 A  
HETATM    8  C   UNL     1     -10.383   8.838  66.964  1.00  0.00    -0.353 A  
HETATM    9  H   UNL     1     -11.304   5.519  68.832  1.00  0.00     0.000 HD 
HETATM   10  C   UNL     1      -9.415   8.730  65.956  1.00  0.00    -0.302 A  
HETATM   11  C   UNL     1      -8.867   7.465  65.678  1.00  0.00    -0.056 A  
BRANCH  10  12
HETATM   12  C   UNL     1      -9.043   9.951  65.141  1.00  0.00    -0.211 C  
HETATM   13  O   UNL     1      -9.929  10.087  64.021  1.00  0.00    -0.460 OA 
HETATM   14  H   UNL     1      -9.696  10.853  63.510  1.00  0.00     0.000 HD 
BRANCH  12  15
HETATM   15  C   UNL     1      -9.114  11.221  66.014  1.00  0.00    -0.209 C  
BRANCH  15  16
HETATM   16  N   UNL     1      -9.695  12.351  65.270  1.00  0.00    -0.444 NA 
HETATM   17  H   UNL     1      -9.545  12.264  64.265  1.00  0.00     0.000 HD 
BRANCH  16  18
HETATM   18  C   UNL     1     -11.109  12.496  65.599  1.00  0.00    -0.303 C  
BRANCH  18  19
HETATM   19  C   UNL     1     -11.327  13.748  66.444  1.00  0.00    -0.327 C  
BRANCH  19  20
HETATM   20  C   UNL     1     -10.625  13.600  67.794  1.00  0.00    -0.247 C  
BRANCH  20  21
HETATM   21  C   UNL     1     -11.623  13.674  68.943  1.00  0.00    -0.362 C  
BRANCH  21  22
HETATM   22  C   UNL     1     -12.001  12.280  69.435  1.00  0.00    -0.318 C  
BRANCH  22  23
HETATM   23  C   UNL     1     -12.726  12.361  70.769  1.00  0.00    -0.123 C  
BRANCH  23  24
HETATM   24  O   UNL     1     -12.915  11.041  71.268  1.00  0.00    -0.386 OA 
BRANCH  24  25
HETATM   25  C   UNL     1     -12.162  10.101  70.506  1.00  0.00    -0.264 C  
BRANCH  25  26
HETATM   26  C   UNL     1     -11.437   9.146  71.441  1.00  0.00    -0.350 C  
BRANCH  26  27
HETATM   27  O   UNL     1     -10.051   9.486  71.462  1.00  0.00    -0.219 OA 
BRANCH  27  28
HETATM   28  C   UNL     1      -9.262   8.482  70.841  1.00  0.00    -0.175 C  
BRANCH  28  29
HETATM   29  C   UNL     1      -7.887   8.502  71.451  1.00  0.00    -0.153 A  
HETATM   30  C   UNL     1      -7.601   7.794  72.631  1.00  0.00    -0.103 A  
HETATM   31 CL   UNL     1      -8.813   6.912  73.496  1.00  0.00    -0.152 Cl 
HETATM   32  C   UNL     1      -6.305   7.775  73.167  1.00  0.00    -0.066 A  
HETATM   33  C   UNL     1      -5.280   8.480  72.547  1.00  0.00    -0.043 A  
HETATM   34  C   UNL     1      -5.554   9.231  71.408  1.00  0.00    -0.063 A  
HETATM   35  C   UNL     1      -6.847   9.252  70.871  1.00  0.00    -0.103 A  
HETATM   36 CL   UNL     1      -7.093  10.241  69.472  1.00  0.00    -0.091 Cl 
ENDBRANCH  28  29
ENDBRANCH  27  28
ENDBRANCH  26  27
ENDBRANCH  25  26
ENDBRANCH  24  25
ENDBRANCH  23  24
ENDBRANCH  22  23
ENDBRANCH  21  22
ENDBRANCH  20  21
ENDBRANCH  19  20
ENDBRANCH  18  19
ENDBRANCH  16  18
ENDBRANCH  15  16
ENDBRANCH  12  15
ENDBRANCH  10  12
ENDBRANCH   2   4
TORSDOF 16
ENDMDL
MODEL      383
REMARK 921   NORMALIZED FREE ENERGY PREDICTED BY IDOCK:   -3.33 KCAL/MOL
REMARK 922        TOTAL FREE ENERGY PREDICTED BY IDOCK:   -8.52 KCAL/MOL
REMARK 923 INTER-LIGAND FREE ENERGY PREDICTED BY IDOCK:   -7.78 KCAL/MOL
REMARK 924 INTRA-LIGAND FREE ENERGY PREDICTED BY IDOCK:   -0.74 KCAL/MOL
REMARK 927      BINDING AFFINITY PREDICTED BY RF-SCORE:    0.00 PKD
ROOT
HETATM    1  O   UNL     1      -7.901   2.200  67.725  1.00  0.00    -0.059 OA 
HETATM    2  C   UNL     1      -9.056   2.968  67.384  1.00  0.00    -0.178 C  
HETATM    3  H   UNL     1      -8.070   1.645  68.477  1.00  0.00     0.000 HD 
ENDROOT
BRANCH   2   4
HETATM    4  C   UNL     1      -8.786   3.848  66.191  1.00  0.00    -0.124 A  
HETATM    5  C   UNL     1      -8.437   3.350  64.930  1.00  0.00    -0.101 A  
HETATM    6  O   UNL     1      -8.387   2.008  64.673  1.00  0.00    -0.081 OA 
HETATM    7  C   UNL     1      -8.126   4.201  63.874  1.00  0.00    -0.091 A  
HETATM    8  C   UNL     1      -8.168   5.581  64.058  1.00  0.00    -0.117 A  
HETATM    9  H   UNL     1      -8.151   1.670  63.818  1.00  0.00     0.000 HD 
HETATM   10  C   UNL     1      -8.514   6.121  65.304  1.00  0.00    -0.121 A  
HETATM   11  C   UNL     1      -8.807   5.243  66.364  1.00  0.00    -0.123 A  
BRANCH  10  12
HETATM   12  C   UNL     1      -8.487   7.622  65.504  1.00  0.00    -0.120 C  
HETATM   13  O   UNL     1      -8.561   7.936  66.901  1.00  0.00    -0.124 OA 
HETATM   14  H   UNL     1      -8.544   8.878  67.027  1.00  0.00     0.000 HD 
BRANCH  12  15
HETATM   15  C   UNL     1      -7.195   8.219  64.907  1.00  0.00    -0.081 C  
BRANCH  15  16
HETATM   16  N   UNL     1      -7.351   9.655  64.622  1.00  0.00    -0.117 NA 
HETATM   17  H   UNL     1      -6.497  10.178  64.818  1.00  0.00     0.000 HD 
BRANCH  16  18
HETATM   18  C   UNL     1      -7.805   9.848  63.249  1.00  0.00    -0.146 C  
BRANCH  18  19
HETATM   19  C   UNL     1      -9.323  10.006  63.215  1.00  0.00    -0.296 C  
BRANCH  19  20
HETATM   20  C   UNL     1      -9.695  11.462  62.937  1.00  0.00    -0.344 C  
BRANCH  20  21
HETATM   21  C   UNL     1     -10.469  12.064  64.103  1.00  0.00    -0.393 C  
BRANCH  21  22
HETATM   22  C   UNL     1     -11.862  12.511  63.669  1.00  0.00    -0.610 C  
BRANCH  22  23
HETATM   23  C   UNL     1     -12.279  13.767  64.417  1.00  0.00    -0.399 C  
BRANCH  23  24
HETATM   24  O   UNL     1     -11.143  14.295  65.094  1.00  0.00    -0.318 OA 
BRANCH  24  25
HETATM   25  C   UNL     1     -10.909  15.647  64.706  1.00  0.00    -0.355 C  
BRANCH  25  26
HETATM   26  C   UNL     1     -10.174  16.379  65.816  1.00  0.00    -0.348 C  
BRANCH  26  27
HETATM   27  O   UNL     1     -10.352  15.661  67.037  1.00  0.00    -0.276 OA 
BRANCH  27  28
HETATM   28  C   UNL     1     -10.566  16.543  68.130  1.00  0.00    -0.329 C  
BRANCH  28  29
HETATM   29  C   UNL     1      -9.315  17.347  68.354  1.00  0.00    -0.285 A  
HETATM   30  C   UNL     1      -9.308  18.745  68.205  1.00  0.00    -0.337 A  
HETATM   31 CL   UNL     1     -10.708  19.626  67.694  1.00  0.00    -0.550 Cl 
HETATM   32  C   UNL     1      -8.153  19.495  68.465  1.00  0.00    -0.376 A  
HETATM   33  C   UNL     1      -6.978  18.860  68.854  1.00  0.00    -0.342 A  
HETATM   34  C   UNL     1      -6.948  17.473  68.955  1.00  0.00    -0.237 A  
HETATM   35  C   UNL     1      -8.102  16.722  68.696  1.00  0.00    -0.251 A  
HETATM   36 CL   UNL     1      -7.954  15.002  68.818  1.00  0.00    -0.152 Cl 
ENDBRANCH  28  29
ENDBRANCH  27  28
ENDBRANCH  26  27
ENDBRANCH  25  26
ENDBRANCH  24  25
ENDBRANCH  23  24
ENDBRANCH  22  23
ENDBRANCH  21  22
ENDBRANCH  20  21
ENDBRANCH  19  20
ENDBRANCH  18  19
ENDBRANCH  16  18
ENDBRANCH  15  16
ENDBRANCH  12  15
ENDBRANCH  10  12
ENDBRANCH   2   4
TORSDOF 16
ENDMDL
MODEL      384
REMARK 921   NORMALIZED FREE ENERGY PREDICTED BY IDOCK:   -3.33 KCAL/MOL
REMARK 922        TOTAL FREE ENERGY PREDICTED BY IDOCK:   -8.51 KCAL/MOL
REMARK 923 INTER-LIGAND FREE ENERGY PREDICTED BY IDOCK:   -7.46 KCAL/MOL
REMARK 924 INTRA-LIGAND FREE ENERGY PREDICTED BY IDOCK:   -1.05 KCAL/MOL
REMARK 927      BINDING AFFINITY PREDICTED BY RF-SCORE:    0.00 PKD
ROOT
HETATM    1  O   UNL     1     -10.656   6.915  72.536  1.00  0.00    -0.206 OA 
HETATM    2  C   UNL     1      -9.401   7.544  72.795  1.00  0.00    -0.167 C  
HETATM    3  H   UNL     1     -11.181   6.862  73.326  1.00  0.00     0.000 HD 
ENDROOT
BRANCH   2   4
HETATM    4  C   UNL     1      -8.568   7.626  71.542  1.00  0.00    -0.126 A  
HETATM    5  C   UNL     1      -7.400   8.390  71.443  1.00  0.00    -0.091 A  
HETATM    6  O   UNL     1      -6.887   9.065  72.515  1.00  0.00    -0.313 OA 
HETATM    7  C   UNL     1      -6.700   8.495  70.245  1.00  0.00    -0.039 A  
HETATM    8  C   UNL     1      -7.157   7.825  69.113  1.00  0.00    -0.073 A  
HETATM    9  H   UNL     1      -6.094   9.584  72.449  1.00  0.00     0.000 HD 
HETATM   10  C   UNL     1      -8.322   7.048  69.169  1.00  0.00    -0.125 A  
HETATM   11  C   UNL     1      -9.024   6.969  70.386  1.00  0.00    -0.155 A  
BRANCH  10  12
HETATM   12  C   UNL     1      -8.840   6.382  67.912  1.00  0.00    -0.113 C  
HETATM   13  O   UNL     1      -8.767   4.955  68.040  1.00  0.00    -0.102 OA 
HETATM   14  H   UNL     1      -9.092   4.538  67.251  1.00  0.00     0.000 HD 
BRANCH  12  15
HETATM   15  C   UNL     1     -10.301   6.803  67.645  1.00  0.00    -0.203 C  
BRANCH  15  16
HETATM   16  N   UNL     1     -10.413   7.591  66.406  1.00  0.00    -0.423 NA 
HETATM   17  H   UNL     1     -11.260   7.365  65.884  1.00  0.00     0.000 HD 
BRANCH  16  18
HETATM   18  C   UNL     1     -10.322   9.016  66.706  1.00  0.00    -0.240 C  
BRANCH  18  19
HETATM   19  C   UNL     1      -9.342   9.693  65.753  1.00  0.00    -0.286 C  
BRANCH  19  20
HETATM   20  C   UNL     1     -10.028  10.850  65.027  1.00  0.00    -0.356 C  
BRANCH  20  21
HETATM   21  C   UNL     1     -11.067  11.520  65.918  1.00  0.00    -0.274 C  
BRANCH  21  22
HETATM   22  C   UNL     1     -11.515  12.856  65.335  1.00  0.00    -0.360 C  
BRANCH  22  23
HETATM   23  C   UNL     1     -10.315  13.744  65.047  1.00  0.00    -0.382 C  
BRANCH  23  24
HETATM   24  O   UNL     1     -10.409  14.917  65.850  1.00  0.00    -0.281 OA 
BRANCH  24  25
HETATM   25  C   UNL     1     -10.487  14.576  67.232  1.00  0.00    -0.266 C  
BRANCH  25  26
HETATM   26  C   UNL     1      -9.091  14.325  67.778  1.00  0.00    -0.195 C  
BRANCH  26  27
HETATM   27  O   UNL     1      -8.270  15.455  67.480  1.00  0.00    -0.147 OA 
BRANCH  27  28
HETATM   28  C   UNL     1      -8.046  16.251  68.635  1.00  0.00    -0.213 C  
BRANCH  28  29
HETATM   29  C   UNL     1      -8.407  17.676  68.317  1.00  0.00    -0.274 A  
HETATM   30  C   UNL     1      -7.473  18.555  67.740  1.00  0.00    -0.230 A  
HETATM   31 CL   UNL     1      -5.838  18.085  67.420  1.00  0.00    -0.155 Cl 
HETATM   32  C   UNL     1      -7.830  19.867  67.398  1.00  0.00    -0.321 A  
HETATM   33  C   UNL     1      -9.117  20.331  67.648  1.00  0.00    -0.423 A  
HETATM   34  C   UNL     1     -10.040  19.495  68.267  1.00  0.00    -0.542 A  
HETATM   35  C   UNL     1      -9.686  18.184  68.609  1.00  0.00    -0.357 A  
HETATM   36 CL   UNL     1     -10.895  17.234  69.405  1.00  0.00    -0.027 Cl 
ENDBRANCH  28  29
ENDBRANCH  27  28
ENDBRANCH  26  27
ENDBRANCH  25  26
ENDBRANCH  24  25
ENDBRANCH  23  24
ENDBRANCH  22  23
ENDBRANCH  21  22
ENDBRANCH  20  21
ENDBRANCH  19  20
ENDBRANCH  18  19
ENDBRANCH  16  18
ENDBRANCH  15  16
ENDBRANCH  12  15
ENDBRANCH  10  12
ENDBRANCH   2   4
TORSDOF 16
ENDMDL
MODEL      385
REMARK 921   NORMALIZED FREE ENERGY PREDICTED BY IDOCK:   -3.31 KCAL/MOL
REMARK 922        TOTAL FREE ENERGY PREDICTED BY IDOCK:   -8.47 KCAL/MOL
REMARK 923 INTER-LIGAND FREE ENERGY PREDICTED BY IDOCK:   -7.06 KCAL/MOL
REMARK 924 INTRA-LIGAND FREE ENERGY PREDICTED BY IDOCK:   -1.41 KCAL/MOL
REMARK 927      BINDING AFFINITY PREDICTED BY RF-SCORE:    0.00 PKD
ROOT
HETATM    1  O   UNL     1     -13.469  15.727  70.308  1.00  0.00    -0.719 OA 
HETATM    2  C   UNL     1     -12.591  14.603  70.246  1.00  0.00    -0.318 C  
HETATM    3  H   UNL     1     -13.953  15.739  71.125  1.00  0.00     0.000 HD 
ENDROOT
BRANCH   2   4
HETATM    4  C   UNL     1     -11.824  14.586  68.950  1.00  0.00    -0.359 A  
HETATM    5  C   UNL     1     -11.283  15.734  68.361  1.00  0.00    -0.362 A  
HETATM    6  O   UNL     1     -11.351  16.957  68.968  1.00  0.00    -0.201 OA 
HETATM    7  C   UNL     1     -10.644  15.685  67.126  1.00  0.00    -0.308 A  
HETATM    8  C   UNL     1     -10.525  14.470  66.453  1.00  0.00    -0.295 A  
HETATM    9  H   UNL     1     -10.984  17.736  68.569  1.00  0.00     0.000 HD 
HETATM   10  C   UNL     1     -11.052  13.296  67.009  1.00  0.00    -0.304 A  
HETATM   11  C   UNL     1     -11.710  13.372  68.249  1.00  0.00    -0.391 A  
BRANCH  10  12
HETATM   12  C   UNL     1     -10.975  11.999  66.231  1.00  0.00    -0.299 C  
HETATM   13  O   UNL     1     -11.386  12.211  64.873  1.00  0.00    -0.315 OA 
HETATM   14  H   UNL     1     -11.337  11.397  64.385  1.00  0.00     0.000 HD 
BRANCH  12  15
HETATM   15  C   UNL     1      -9.535  11.445  66.255  1.00  0.00    -0.209 C  
BRANCH  15  16
HETATM   16  N   UNL     1      -9.194  10.897  67.579  1.00  0.00    -0.147 NA 
HETATM   17  H   UNL     1      -9.251  11.604  68.311  1.00  0.00     0.000 HD 
BRANCH  16  18
HETATM   18  C   UNL     1     -10.031   9.738  67.873  1.00  0.00    -0.163 C  
BRANCH  18  19
HETATM   19  C   UNL     1      -9.759   9.240  69.290  1.00  0.00    -0.169 C  
BRANCH  19  20
HETATM   20  C   UNL     1     -10.738   9.886  70.271  1.00  0.00    -0.367 C  
BRANCH  20  21
HETATM   21  C   UNL     1     -11.556   8.831  71.006  1.00  0.00    -0.337 C  
BRANCH  21  22
HETATM   22  C   UNL     1     -11.484   7.483  70.295  1.00  0.00    -0.173 C  
BRANCH  22  23
HETATM   23  C   UNL     1     -11.370   6.351  71.303  1.00  0.00    -0.306 C  
BRANCH  23  24
HETATM   24  O   UNL     1     -10.086   6.410  71.915  1.00  0.00    -0.183 OA 
BRANCH  24  25
HETATM   25  C   UNL     1      -9.474   5.122  71.929  1.00  0.00    -0.147 C  
BRANCH  25  26
HETATM   26  C   UNL     1      -9.920   4.330  70.710  1.00  0.00    -0.154 C  
BRANCH  26  27
HETATM   27  O   UNL     1      -8.811   4.190  69.821  1.00  0.00    -0.078 OA 
BRANCH  27  28
HETATM   28  C   UNL     1      -8.983   4.977  68.652  1.00  0.00    -0.106 C  
BRANCH  28  29
HETATM   29  C   UNL     1      -8.118   4.411  67.558  1.00  0.00    -0.099 A  
HETATM   30  C   UNL     1      -7.136   5.193  66.924  1.00  0.00    -0.073 A  
HETATM   31 CL   UNL     1      -6.899   6.865  67.305  1.00  0.00    -0.070 Cl 
HETATM   32  C   UNL     1      -6.299   4.646  65.943  1.00  0.00    -0.036 A  
HETATM   33  C   UNL     1      -6.443   3.317  65.559  1.00  0.00    -0.032 A  
HETATM   34  C   UNL     1      -7.444   2.541  66.136  1.00  0.00    -0.067 A  
HETATM   35  C   UNL     1      -8.282   3.086  67.117  1.00  0.00    -0.084 A  
HETATM   36 CL   UNL     1      -9.516   2.049  67.749  1.00  0.00    -0.188 Cl 
ENDBRANCH  28  29
ENDBRANCH  27  28
ENDBRANCH  26  27
ENDBRANCH  25  26
ENDBRANCH  24  25
ENDBRANCH  23  24
ENDBRANCH  22  23
ENDBRANCH  21  22
ENDBRANCH  20  21
ENDBRANCH  19  20
ENDBRANCH  18  19
ENDBRANCH  16  18
ENDBRANCH  15  16
ENDBRANCH  12  15
ENDBRANCH  10  12
ENDBRANCH   2   4
TORSDOF 16
ENDMDL
MODEL      386
REMARK 921   NORMALIZED FREE ENERGY PREDICTED BY IDOCK:   -3.29 KCAL/MOL
REMARK 922        TOTAL FREE ENERGY PREDICTED BY IDOCK:   -8.43 KCAL/MOL
REMARK 923 INTER-LIGAND FREE ENERGY PREDICTED BY IDOCK:   -7.68 KCAL/MOL
REMARK 924 INTRA-LIGAND FREE ENERGY PREDICTED BY IDOCK:   -0.75 KCAL/MOL
REMARK 927      BINDING AFFINITY PREDICTED BY RF-SCORE:    0.00 PKD
ROOT
HETATM    1  O   UNL     1     -10.990  17.839  64.819  1.00  0.00    -0.855 OA 
HETATM    2  C   UNL     1     -10.655  19.018  65.552  1.00  0.00    -0.040 C  
HETATM    3  H   UNL     1     -11.613  18.033  64.128  1.00  0.00     0.000 HD 
ENDROOT
BRANCH   2   4
HETATM    4  C   UNL     1      -9.666  18.711  66.647  1.00  0.00    -0.360 A  
HETATM    5  C   UNL     1      -9.337  19.616  67.662  1.00  0.00    -0.338 A  
HETATM    6  O   UNL     1      -9.953  20.831  67.773  1.00  0.00    -0.323 OA 
HETATM    7  C   UNL     1      -8.365  19.319  68.613  1.00  0.00    -0.407 A  
HETATM    8  C   UNL     1      -7.703  18.094  68.570  1.00  0.00    -0.307 A  
HETATM    9  H   UNL     1      -9.730  21.445  68.462  1.00  0.00     0.000 HD 
HETATM   10  C   UNL     1      -8.004  17.158  67.570  1.00  0.00    -0.190 A  
HETATM   11  C   UNL     1      -8.977  17.486  66.609  1.00  0.00    -0.283 A  
BRANCH  10  12
HETATM   12  C   UNL     1      -7.226  15.861  67.499  1.00  0.00    -0.177 C  
HETATM   13  O   UNL     1      -5.861  16.081  67.883  1.00  0.00    -0.114 OA 
HETATM   14  H   UNL     1      -5.373  15.268  67.839  1.00  0.00     0.000 HD 
BRANCH  12  15
HETATM   15  C   UNL     1      -7.860  14.804  68.427  1.00  0.00    -0.128 C  
BRANCH  15  16
HETATM   16  N   UNL     1      -9.315  15.001  68.549  1.00  0.00    -0.190 NA 
HETATM   17  H   UNL     1      -9.589  15.960  68.332  1.00  0.00     0.000 HD 
BRANCH  16  18
HETATM   18  C   UNL     1     -10.024  14.031  67.722  1.00  0.00    -0.236 C  
BRANCH  18  19
HETATM   19  C   UNL     1     -11.503  14.001  68.099  1.00  0.00    -0.341 C  
BRANCH  19  20
HETATM   20  C   UNL     1     -11.736  14.800  69.381  1.00  0.00    -0.358 C  
BRANCH  20  21
HETATM   21  C   UNL     1     -12.045  13.879  70.555  1.00  0.00    -0.426 C  
BRANCH  21  22
HETATM   22  C   UNL     1     -12.582  12.535  70.074  1.00  0.00     0.109 C  
BRANCH  22  23
HETATM   23  C   UNL     1     -12.125  11.415  70.995  1.00  0.00    -0.198 C  
BRANCH  23  24
HETATM   24  O   UNL     1     -12.060  10.205  70.248  1.00  0.00    -0.258 OA 
BRANCH  24  25
HETATM   25  C   UNL     1     -11.097  10.310  69.201  1.00  0.00    -0.235 C  
BRANCH  25  26
HETATM   26  C   UNL     1      -9.710  10.017  69.750  1.00  0.00    -0.226 C  
BRANCH  26  27
HETATM   27  O   UNL     1      -9.347   8.682  69.395  1.00  0.00    -0.149 OA 
BRANCH  27  28
HETATM   28  C   UNL     1     -10.408   7.772  69.646  1.00  0.00    -0.212 C  
BRANCH  28  29
HETATM   29  C   UNL     1      -9.933   6.737  70.629  1.00  0.00    -0.201 A  
HETATM   30  C   UNL     1      -9.965   6.974  72.014  1.00  0.00    -0.159 A  
HETATM   31 CL   UNL     1     -10.485   8.485  72.680  1.00  0.00    -0.316 Cl 
HETATM   32  C   UNL     1      -9.570   5.987  72.927  1.00  0.00    -0.158 A  
HETATM   33  C   UNL     1      -9.113   4.755  72.472  1.00  0.00    -0.142 A  
HETATM   34  C   UNL     1      -9.022   4.518  71.104  1.00  0.00    -0.168 A  
HETATM   35  C   UNL     1      -9.417   5.504  70.190  1.00  0.00    -0.163 A  
HETATM   36 CL   UNL     1      -9.236   5.125  68.511  1.00  0.00    -0.134 Cl 
ENDBRANCH  28  29
ENDBRANCH  27  28
ENDBRANCH  26  27
ENDBRANCH  25  26
ENDBRANCH  24  25
ENDBRANCH  23  24
ENDBRANCH  22  23
ENDBRANCH  21  22
ENDBRANCH  20  21
ENDBRANCH  19  20
ENDBRANCH  18  19
ENDBRANCH  16  18
ENDBRANCH  15  16
ENDBRANCH  12  15
ENDBRANCH  10  12
ENDBRANCH   2   4
TORSDOF 16
ENDMDL
MODEL      387
REMARK 921   NORMALIZED FREE ENERGY PREDICTED BY IDOCK:   -3.26 KCAL/MOL
REMARK 922        TOTAL FREE ENERGY PREDICTED BY IDOCK:   -8.38 KCAL/MOL
REMARK 923 INTER-LIGAND FREE ENERGY PREDICTED BY IDOCK:   -6.52 KCAL/MOL
REMARK 924 INTRA-LIGAND FREE ENERGY PREDICTED BY IDOCK:   -1.87 KCAL/MOL
REMARK 927      BINDING AFFINITY PREDICTED BY RF-SCORE:    0.00 PKD
ROOT
HETATM    1  O   UNL     1     -12.660  13.476  64.441  1.00  0.00    -0.618 OA 
HETATM    2  C   UNL     1     -11.300  13.041  64.424  1.00  0.00    -0.357 C  
HETATM    3  H   UNL     1     -13.039  13.443  63.570  1.00  0.00     0.000 HD 
ENDROOT
BRANCH   2   4
HETATM    4  C   UNL     1     -10.699  13.094  65.805  1.00  0.00    -0.292 A  
HETATM    5  C   UNL     1     -10.957  14.123  66.717  1.00  0.00    -0.300 A  
HETATM    6  O   UNL     1     -11.842  15.127  66.441  1.00  0.00    -0.123 OA 
HETATM    7  C   UNL     1     -10.324  14.171  67.956  1.00  0.00    -0.231 A  
HETATM    8  C   UNL     1      -9.418  13.175  68.312  1.00  0.00    -0.210 A  
HETATM    9  H   UNL     1     -12.018  15.826  67.060  1.00  0.00     0.000 HD 
HETATM   10  C   UNL     1      -9.133  12.126  67.428  1.00  0.00    -0.181 A  
HETATM   11  C   UNL     1      -9.769  12.106  66.174  1.00  0.00    -0.254 A  
BRANCH  10  12
HETATM   12  C   UNL     1      -8.094  11.090  67.805  1.00  0.00    -0.116 C  
HETATM   13  O   UNL     1      -7.164  11.642  68.748  1.00  0.00    -0.103 OA 
HETATM   14  H   UNL     1      -6.513  10.993  68.985  1.00  0.00     0.000 HD 
BRANCH  12  15
HETATM   15  C   UNL     1      -8.773   9.846  68.416  1.00  0.00    -0.120 C  
BRANCH  15  16
HETATM   16  N   UNL     1      -8.997  10.014  69.861  1.00  0.00    -0.346 NA 
HETATM   17  H   UNL     1      -9.977  10.196  70.078  1.00  0.00     0.000 HD 
BRANCH  16  18
HETATM   18  C   UNL     1      -8.486   8.855  70.586  1.00  0.00    -0.184 C  
BRANCH  18  19
HETATM   19  C   UNL     1      -7.021   9.072  70.958  1.00  0.00    -0.097 C  
BRANCH  19  20
HETATM   20  C   UNL     1      -6.239   7.769  70.800  1.00  0.00    -0.034 C  
BRANCH  20  21
HETATM   21  C   UNL     1      -6.718   6.984  69.585  1.00  0.00    -0.049 C  
BRANCH  21  22
HETATM   22  C   UNL     1      -6.631   5.481  69.829  1.00  0.00    -0.050 C  
BRANCH  22  23
HETATM   23  C   UNL     1      -7.201   4.712  68.648  1.00  0.00    -0.057 C  
BRANCH  23  24
HETATM   24  O   UNL     1      -7.761   3.492  69.122  1.00  0.00    -0.052 OA 
BRANCH  24  25
HETATM   25  C   UNL     1      -7.988   3.554  70.528  1.00  0.00    -0.053 C  
BRANCH  25  26
HETATM   26  C   UNL     1      -9.333   2.929  70.858  1.00  0.00    -0.150 C  
BRANCH  26  27
HETATM   27  O   UNL     1     -10.106   3.868  71.606  1.00  0.00    -0.173 OA 
BRANCH  27  28
HETATM   28  C   UNL     1      -9.435   5.114  71.725  1.00  0.00    -0.149 C  
BRANCH  28  29
HETATM   29  C   UNL     1     -10.447   6.221  71.605  1.00  0.00    -0.258 A  
HETATM   30  C   UNL     1     -10.839   6.978  72.722  1.00  0.00    -0.288 A  
HETATM   31 CL   UNL     1     -10.243   6.651  74.314  1.00  0.00    -0.386 Cl 
HETATM   32  C   UNL     1     -11.743   8.041  72.595  1.00  0.00    -0.418 A  
HETATM   33  C   UNL     1     -12.290   8.351  71.354  1.00  0.00    -0.328 A  
HETATM   34  C   UNL     1     -11.957   7.581  70.245  1.00  0.00     0.100 A  
HETATM   35  C   UNL     1     -11.053   6.518  70.370  1.00  0.00    -0.332 A  
HETATM   36 CL   UNL     1     -10.728   5.600  68.939  1.00  0.00    -0.309 Cl 
ENDBRANCH  28  29
ENDBRANCH  27  28
ENDBRANCH  26  27
ENDBRANCH  25  26
ENDBRANCH  24  25
ENDBRANCH  23  24
ENDBRANCH  22  23
ENDBRANCH  21  22
ENDBRANCH  20  21
ENDBRANCH  19  20
ENDBRANCH  18  19
ENDBRANCH  16  18
ENDBRANCH  15  16
ENDBRANCH  12  15
ENDBRANCH  10  12
ENDBRANCH   2   4
TORSDOF 16
ENDMDL
MODEL      388
REMARK 921   NORMALIZED FREE ENERGY PREDICTED BY IDOCK:   -3.25 KCAL/MOL
REMARK 922        TOTAL FREE ENERGY PREDICTED BY IDOCK:   -8.37 KCAL/MOL
REMARK 923 INTER-LIGAND FREE ENERGY PREDICTED BY IDOCK:   -7.70 KCAL/MOL
REMARK 924 INTRA-LIGAND FREE ENERGY PREDICTED BY IDOCK:   -0.67 KCAL/MOL
REMARK 927      BINDING AFFINITY PREDICTED BY RF-SCORE:    0.00 PKD
ROOT
HETATM    1  O   UNL     1      -7.618  10.571  63.732  1.00  0.00    -0.322 OA 
HETATM    2  C   UNL     1      -7.033  10.042  64.922  1.00  0.00    -0.136 C  
HETATM    3  H   UNL     1      -7.321  11.459  63.572  1.00  0.00     0.000 HD 
ENDROOT
BRANCH   2   4
HETATM    4  C   UNL     1      -7.505   8.633  65.176  1.00  0.00    -0.090 A  
HETATM    5  C   UNL     1      -7.486   7.629  64.202  1.00  0.00    -0.102 A  
HETATM    6  O   UNL     1      -6.964   7.841  62.956  1.00  0.00    -0.076 OA 
HETATM    7  C   UNL     1      -7.998   6.360  64.457  1.00  0.00    -0.117 A  
HETATM    8  C   UNL     1      -8.536   6.067  65.708  1.00  0.00    -0.155 A  
HETATM    9  H   UNL     1      -6.952   7.159  62.295  1.00  0.00     0.000 HD 
HETATM   10  C   UNL     1      -8.572   7.044  66.713  1.00  0.00    -0.120 A  
HETATM   11  C   UNL     1      -8.066   8.325  66.428  1.00  0.00    -0.105 A  
BRANCH  10  12
HETATM   12  C   UNL     1      -9.222   6.727  68.043  1.00  0.00    -0.117 C  
HETATM   13  O   UNL     1      -9.083   7.838  68.939  1.00  0.00    -0.141 OA 
HETATM   14  H   UNL     1      -9.491   7.640  69.774  1.00  0.00     0.000 HD 
BRANCH  12  15
HETATM   15  C   UNL     1     -10.719   6.406  67.845  1.00  0.00    -0.299 C  
BRANCH  15  16
HETATM   16  N   UNL     1     -11.439   6.397  69.130  1.00  0.00    -0.608 NA 
HETATM   17  H   UNL     1     -12.395   6.057  69.029  1.00  0.00     0.000 HD 
BRANCH  16  18
HETATM   18  C   UNL     1     -10.690   5.629  70.120  1.00  0.00    -0.305 C  
BRANCH  18  19
HETATM   19  C   UNL     1     -11.057   6.088  71.528  1.00  0.00    -0.336 C  
BRANCH  19  20
HETATM   20  C   UNL     1     -12.442   6.735  71.527  1.00  0.00    -0.390 C  
BRANCH  20  21
HETATM   21  C   UNL     1     -12.409   8.106  72.192  1.00  0.00    -0.383 C  
BRANCH  21  22
HETATM   22  C   UNL     1     -11.006   8.704  72.152  1.00  0.00    -0.434 C  
BRANCH  22  23
HETATM   23  C   UNL     1     -10.863   9.656  70.975  1.00  0.00    -0.342 C  
BRANCH  23  24
HETATM   24  O   UNL     1     -11.982  10.536  70.958  1.00  0.00    -0.343 OA 
BRANCH  24  25
HETATM   25  C   UNL     1     -11.930  11.396  69.822  1.00  0.00    -0.353 C  
BRANCH  25  26
HETATM   26  C   UNL     1     -12.359  12.798  70.221  1.00  0.00    -0.204 C  
BRANCH  26  27
HETATM   27  O   UNL     1     -12.121  13.682  69.125  1.00  0.00    -0.345 OA 
BRANCH  27  28
HETATM   28  C   UNL     1     -11.069  13.209  68.296  1.00  0.00    -0.266 C  
BRANCH  28  29
HETATM   29  C   UNL     1      -9.892  14.135  68.436  1.00  0.00    -0.231 A  
HETATM   30  C   UNL     1      -8.572  13.655  68.372  1.00  0.00    -0.151 A  
HETATM   31 CL   UNL     1      -8.209  11.972  68.198  1.00  0.00    -0.155 Cl 
HETATM   32  C   UNL     1      -7.480  14.530  68.452  1.00  0.00    -0.116 A  
HETATM   33  C   UNL     1      -7.685  15.895  68.620  1.00  0.00    -0.161 A  
HETATM   34  C   UNL     1      -8.981  16.384  68.740  1.00  0.00    -0.245 A  
HETATM   35  C   UNL     1     -10.075  15.512  68.661  1.00  0.00    -0.210 A  
HETATM   36 CL   UNL     1     -11.645  16.214  68.853  1.00  0.00    -0.341 Cl 
ENDBRANCH  28  29
ENDBRANCH  27  28
ENDBRANCH  26  27
ENDBRANCH  25  26
ENDBRANCH  24  25
ENDBRANCH  23  24
ENDBRANCH  22  23
ENDBRANCH  21  22
ENDBRANCH  20  21
ENDBRANCH  19  20
ENDBRANCH  18  19
ENDBRANCH  16  18
ENDBRANCH  15  16
ENDBRANCH  12  15
ENDBRANCH  10  12
ENDBRANCH   2   4
TORSDOF 16
ENDMDL
MODEL      389
REMARK 921   NORMALIZED FREE ENERGY PREDICTED BY IDOCK:   -3.24 KCAL/MOL
REMARK 922        TOTAL FREE ENERGY PREDICTED BY IDOCK:   -8.35 KCAL/MOL
REMARK 923 INTER-LIGAND FREE ENERGY PREDICTED BY IDOCK:   -6.86 KCAL/MOL
REMARK 924 INTRA-LIGAND FREE ENERGY PREDICTED BY IDOCK:   -1.49 KCAL/MOL
REMARK 927      BINDING AFFINITY PREDICTED BY RF-SCORE:    0.00 PKD
ROOT
HETATM    1  O   UNL     1     -12.167  15.613  68.825  1.00  0.00    -0.578 OA 
HETATM    2  C   UNL     1     -11.301  15.303  67.733  1.00  0.00    -0.326 C  
HETATM    3  H   UNL     1     -12.726  16.353  68.617  1.00  0.00     0.000 HD 
ENDROOT
BRANCH   2   4
HETATM    4  C   UNL     1     -10.414  14.130  68.063  1.00  0.00    -0.240 A  
HETATM    5  C   UNL     1      -9.024  14.228  68.193  1.00  0.00    -0.189 A  
HETATM    6  O   UNL     1      -8.374  15.427  68.100  1.00  0.00    -0.141 OA 
HETATM    7  C   UNL     1      -8.235  13.106  68.428  1.00  0.00    -0.130 A  
HETATM    8  C   UNL     1      -8.830  11.852  68.547  1.00  0.00    -0.108 A  
HETATM    9  H   UNL     1      -7.431  15.495  68.188  1.00  0.00     0.000 HD 
HETATM   10  C   UNL     1     -10.219  11.710  68.425  1.00  0.00    -0.211 A  
HETATM   11  C   UNL     1     -10.996  12.854  68.170  1.00  0.00    -0.273 A  
BRANCH  10  12
HETATM   12  C   UNL     1     -10.839  10.330  68.489  1.00  0.00    -0.240 C  
HETATM   13  O   UNL     1     -12.239  10.429  68.782  1.00  0.00    -0.750 OA 
HETATM   14  H   UNL     1     -12.628   9.564  68.822  1.00  0.00     0.000 HD 
BRANCH  12  15
HETATM   15  C   UNL     1     -10.642   9.591  67.148  1.00  0.00    -0.225 C  
BRANCH  15  16
HETATM   16  N   UNL     1     -10.280  10.526  66.069  1.00  0.00    -0.254 NA 
HETATM   17  H   UNL     1      -9.586  11.208  66.373  1.00  0.00     0.000 HD 
BRANCH  16  18
HETATM   18  C   UNL     1      -9.840   9.787  64.891  1.00  0.00    -0.113 C  
BRANCH  18  19
HETATM   19  C   UNL     1      -8.530   9.061  65.185  1.00  0.00    -0.183 C  
BRANCH  19  20
HETATM   20  C   UNL     1      -7.390  10.069  65.326  1.00  0.00    -0.137 C  
BRANCH  20  21
HETATM   21  C   UNL     1      -6.291   9.532  66.236  1.00  0.00    -0.069 C  
BRANCH  21  22
HETATM   22  C   UNL     1      -6.862   9.057  67.568  1.00  0.00    -0.077 C  
BRANCH  22  23
HETATM   23  C   UNL     1      -6.008   7.941  68.149  1.00  0.00    -0.041 C  
BRANCH  23  24
HETATM   24  O   UNL     1      -6.761   7.259  69.146  1.00  0.00    -0.046 OA 
BRANCH  24  25
HETATM   25  C   UNL     1      -6.616   7.899  70.412  1.00  0.00    -0.037 C  
BRANCH  25  26
HETATM   26  C   UNL     1      -7.204   7.018  71.502  1.00  0.00    -0.078 C  
BRANCH  26  27
HETATM   27  O   UNL     1      -7.917   5.943  70.890  1.00  0.00    -0.107 OA 
BRANCH  27  28
HETATM   28  C   UNL     1      -8.966   5.475  71.726  1.00  0.00    -0.136 C  
BRANCH  28  29
HETATM   29  C   UNL     1     -10.137   6.411  71.601  1.00  0.00    -0.209 A  
HETATM   30  C   UNL     1     -10.997   6.360  70.490  1.00  0.00    -0.306 A  
HETATM   31 CL   UNL     1     -10.735   5.275  69.167  1.00  0.00    -0.180 Cl 
HETATM   32  C   UNL     1     -12.116   7.199  70.403  1.00  0.00    -0.139 A  
HETATM   33  C   UNL     1     -12.383   8.120  71.411  1.00  0.00    -0.323 A  
HETATM   34  C   UNL     1     -11.514   8.223  72.493  1.00  0.00    -0.454 A  
HETATM   35  C   UNL     1     -10.395   7.385  72.582  1.00  0.00    -0.244 A  
HETATM   36 CL   UNL     1      -9.359   7.614  73.950  1.00  0.00    -0.318 Cl 
ENDBRANCH  28  29
ENDBRANCH  27  28
ENDBRANCH  26  27
ENDBRANCH  25  26
ENDBRANCH  24  25
ENDBRANCH  23  24
ENDBRANCH  22  23
ENDBRANCH  21  22
ENDBRANCH  20  21
ENDBRANCH  19  20
ENDBRANCH  18  19
ENDBRANCH  16  18
ENDBRANCH  15  16
ENDBRANCH  12  15
ENDBRANCH  10  12
ENDBRANCH   2   4
TORSDOF 16
ENDMDL
MODEL      390
REMARK 921   NORMALIZED FREE ENERGY PREDICTED BY IDOCK:   -3.24 KCAL/MOL
REMARK 922        TOTAL FREE ENERGY PREDICTED BY IDOCK:   -8.35 KCAL/MOL
REMARK 923 INTER-LIGAND FREE ENERGY PREDICTED BY IDOCK:   -7.42 KCAL/MOL
REMARK 924 INTRA-LIGAND FREE ENERGY PREDICTED BY IDOCK:   -0.93 KCAL/MOL
REMARK 927      BINDING AFFINITY PREDICTED BY RF-SCORE:    0.00 PKD
ROOT
HETATM    1  O   UNL     1      -8.319  18.783  67.334  1.00  0.00    -0.261 OA 
HETATM    2  C   UNL     1      -9.532  18.048  67.161  1.00  0.00    -0.264 C  
HETATM    3  H   UNL     1      -8.492  19.714  67.402  1.00  0.00     0.000 HD 
ENDROOT
BRANCH   2   4
HETATM    4  C   UNL     1      -9.259  16.571  67.053  1.00  0.00    -0.233 A  
HETATM    5  C   UNL     1      -8.253  15.920  67.777  1.00  0.00    -0.146 A  
HETATM    6  O   UNL     1      -7.487  16.577  68.700  1.00  0.00    -0.178 OA 
HETATM    7  C   UNL     1      -7.987  14.566  67.594  1.00  0.00    -0.190 A  
HETATM    8  C   UNL     1      -8.735  13.828  66.679  1.00  0.00    -0.026 A  
HETATM    9  H   UNL     1      -6.805  16.135  69.191  1.00  0.00     0.000 HD 
HETATM   10  C   UNL     1      -9.752  14.442  65.935  1.00  0.00    -0.305 A  
HETATM   11  C   UNL     1      -9.993  15.815  66.122  1.00  0.00    -0.334 A  
BRANCH  10  12
HETATM   12  C   UNL     1     -10.508  13.640  64.897  1.00  0.00    -0.409 C  
HETATM   13  O   UNL     1      -9.686  12.575  64.399  1.00  0.00    -0.524 OA 
HETATM   14  H   UNL     1     -10.161  12.071  63.748  1.00  0.00     0.000 HD 
BRANCH  12  15
HETATM   15  C   UNL     1     -11.800  13.056  65.506  1.00  0.00    -0.395 C  
BRANCH  15  16
HETATM   16  N   UNL     1     -11.604  12.675  66.914  1.00  0.00    -0.353 NA 
HETATM   17  H   UNL     1     -12.341  13.041  67.516  1.00  0.00     0.000 HD 
BRANCH  16  18
HETATM   18  C   UNL     1     -11.476  11.226  67.029  1.00  0.00    -0.096 C  
BRANCH  18  19
HETATM   19  C   UNL     1     -11.723  10.788  68.470  1.00  0.00    -0.259 C  
BRANCH  19  20
HETATM   20  C   UNL     1     -12.150  11.987  69.317  1.00  0.00    -0.249 C  
BRANCH  20  21
HETATM   21  C   UNL     1     -12.546  11.552  70.723  1.00  0.00    -0.390 C  
BRANCH  21  22
HETATM   22  C   UNL     1     -11.678  10.395  71.209  1.00  0.00    -0.320 C  
BRANCH  22  23
HETATM   23  C   UNL     1     -12.489   9.443  72.073  1.00  0.00    -0.365 C  
BRANCH  23  24
HETATM   24  O   UNL     1     -11.720   8.268  72.307  1.00  0.00    -0.338 OA 
BRANCH  24  25
HETATM   25  C   UNL     1     -10.378   8.447  71.860  1.00  0.00    -0.283 C  
BRANCH  25  26
HETATM   26  C   UNL     1      -9.704   7.094  71.705  1.00  0.00    -0.159 C  
BRANCH  26  27
HETATM   27  O   UNL     1      -8.654   6.989  72.666  1.00  0.00    -0.119 OA 
BRANCH  27  28
HETATM   28  C   UNL     1      -9.145   6.547  73.924  1.00  0.00    -0.148 C  
BRANCH  28  29
HETATM   29  C   UNL     1      -8.999   5.052  74.000  1.00  0.00    -0.113 A  
HETATM   30  C   UNL     1      -7.761   4.452  74.289  1.00  0.00    -0.084 A  
HETATM   31 CL   UNL     1      -6.315   5.378  74.508  1.00  0.00    -0.068 Cl 
HETATM   32  C   UNL     1      -7.642   3.061  74.410  1.00  0.00    -0.056 A  
HETATM   33  C   UNL     1      -8.751   2.243  74.221  1.00  0.00    -0.073 A  
HETATM   34  C   UNL     1      -9.973   2.812  73.882  1.00  0.00    -0.159 A  
HETATM   35  C   UNL     1     -10.095   4.203  73.761  1.00  0.00    -0.142 A  
HETATM   36 CL   UNL     1     -11.650   4.811  73.304  1.00  0.00    -0.377 Cl 
ENDBRANCH  28  29
ENDBRANCH  27  28
ENDBRANCH  26  27
ENDBRANCH  25  26
ENDBRANCH  24  25
ENDBRANCH  23  24
ENDBRANCH  22  23
ENDBRANCH  21  22
ENDBRANCH  20  21
ENDBRANCH  19  20
ENDBRANCH  18  19
ENDBRANCH  16  18
ENDBRANCH  15  16
ENDBRANCH  12  15
ENDBRANCH  10  12
ENDBRANCH   2   4
TORSDOF 16
ENDMDL
MODEL      391
REMARK 921   NORMALIZED FREE ENERGY PREDICTED BY IDOCK:   -3.24 KCAL/MOL
REMARK 922        TOTAL FREE ENERGY PREDICTED BY IDOCK:   -8.35 KCAL/MOL
REMARK 923 INTER-LIGAND FREE ENERGY PREDICTED BY IDOCK:   -7.50 KCAL/MOL
REMARK 924 INTRA-LIGAND FREE ENERGY PREDICTED BY IDOCK:   -0.85 KCAL/MOL
REMARK 927      BINDING AFFINITY PREDICTED BY RF-SCORE:    0.00 PKD
ROOT
HETATM    1  O   UNL     1     -11.232  16.117  64.150  1.00  0.00    -1.120 OA 
HETATM    2  C   UNL     1     -10.496  16.005  65.369  1.00  0.00    -0.392 C  
HETATM    3  H   UNL     1     -10.962  16.883  63.657  1.00  0.00     0.000 HD 
ENDROOT
BRANCH   2   4
HETATM    4  C   UNL     1     -10.925  14.791  66.151  1.00  0.00    -0.332 A  
HETATM    5  C   UNL     1     -11.346  14.843  67.485  1.00  0.00    -0.342 A  
HETATM    6  O   UNL     1     -11.466  16.028  68.157  1.00  0.00    -0.338 OA 
HETATM    7  C   UNL     1     -11.665  13.688  68.191  1.00  0.00    -0.392 A  
HETATM    8  C   UNL     1     -11.578  12.445  67.568  1.00  0.00    -0.431 A  
HETATM    9  H   UNL     1     -11.751  16.063  69.062  1.00  0.00     0.000 HD 
HETATM   10  C   UNL     1     -11.163  12.349  66.232  1.00  0.00    -0.361 A  
HETATM   11  C   UNL     1     -10.827  13.527  65.542  1.00  0.00    -0.293 A  
BRANCH  10  12
HETATM   12  C   UNL     1     -11.008  10.985  65.593  1.00  0.00    -0.020 C  
HETATM   13  O   UNL     1     -10.611  11.124  64.221  1.00  0.00    -0.340 OA 
HETATM   14  H   UNL     1     -10.513  10.268  63.820  1.00  0.00     0.000 HD 
BRANCH  12  15
HETATM   15  C   UNL     1      -9.955  10.152  66.354  1.00  0.00    -0.234 C  
BRANCH  15  16
HETATM   16  N   UNL     1      -9.007   9.510  65.428  1.00  0.00    -0.186 NA 
HETATM   17  H   UNL     1      -9.445   9.274  64.537  1.00  0.00     0.000 HD 
BRANCH  16  18
HETATM   18  C   UNL     1      -7.830  10.353  65.250  1.00  0.00    -0.137 C  
BRANCH  18  19
HETATM   19  C   UNL     1      -6.903  10.223  66.455  1.00  0.00    -0.101 C  
BRANCH  19  20
HETATM   20  C   UNL     1      -6.731  11.581  67.136  1.00  0.00    -0.129 C  
BRANCH  20  21
HETATM   21  C   UNL     1      -7.609  11.689  68.376  1.00  0.00    -0.126 C  
BRANCH  21  22
HETATM   22  C   UNL     1      -6.991  10.947  69.557  1.00  0.00    -0.131 C  
BRANCH  22  23
HETATM   23  C   UNL     1      -8.027  10.070  70.240  1.00  0.00    -0.010 C  
BRANCH  23  24
HETATM   24  O   UNL     1      -7.355   9.125  71.066  1.00  0.00    -0.109 OA 
BRANCH  24  25
HETATM   25  C   UNL     1      -7.126   7.909  70.357  1.00  0.00    -0.046 C  
BRANCH  25  26
HETATM   26  C   UNL     1      -8.418   7.445  69.706  1.00  0.00    -0.136 C  
BRANCH  26  27
HETATM   27  O   UNL     1      -9.140   6.638  70.637  1.00  0.00    -0.154 OA 
BRANCH  27  28
HETATM   28  C   UNL     1      -8.347   5.560  71.111  1.00  0.00    -0.125 C  
BRANCH  28  29
HETATM   29  C   UNL     1      -9.244   4.567  71.799  1.00  0.00    -0.179 A  
HETATM   30  C   UNL     1      -9.386   3.253  71.317  1.00  0.00    -0.136 A  
HETATM   31 CL   UNL     1      -8.598   2.708  69.876  1.00  0.00    -0.097 Cl 
HETATM   32  C   UNL     1     -10.183   2.318  71.991  1.00  0.00    -0.155 A  
HETATM   33  C   UNL     1     -10.872   2.684  73.143  1.00  0.00    -0.244 A  
HETATM   34  C   UNL     1     -10.789   3.993  73.605  1.00  0.00    -0.338 A  
HETATM   35  C   UNL     1      -9.992   4.930  72.934  1.00  0.00    -0.157 A  
HETATM   36 CL   UNL     1      -9.981   6.540  73.569  1.00  0.00    -0.206 Cl 
ENDBRANCH  28  29
ENDBRANCH  27  28
ENDBRANCH  26  27
ENDBRANCH  25  26
ENDBRANCH  24  25
ENDBRANCH  23  24
ENDBRANCH  22  23
ENDBRANCH  21  22
ENDBRANCH  20  21
ENDBRANCH  19  20
ENDBRANCH  18  19
ENDBRANCH  16  18
ENDBRANCH  15  16
ENDBRANCH  12  15
ENDBRANCH  10  12
ENDBRANCH   2   4
TORSDOF 16
ENDMDL
MODEL      392
REMARK 921   NORMALIZED FREE ENERGY PREDICTED BY IDOCK:   -3.22 KCAL/MOL
REMARK 922        TOTAL FREE ENERGY PREDICTED BY IDOCK:   -8.30 KCAL/MOL
REMARK 923 INTER-LIGAND FREE ENERGY PREDICTED BY IDOCK:   -6.85 KCAL/MOL
REMARK 924 INTRA-LIGAND FREE ENERGY PREDICTED BY IDOCK:   -1.45 KCAL/MOL
REMARK 927      BINDING AFFINITY PREDICTED BY RF-SCORE:    0.00 PKD
ROOT
HETATM    1  O   UNL     1      -9.357   6.378  65.412  1.00  0.00    -0.359 OA 
HETATM    2  C   UNL     1      -9.338   5.593  66.605  1.00  0.00    -0.144 C  
HETATM    3  H   UNL     1      -9.460   5.829  64.644  1.00  0.00     0.000 HD 
ENDROOT
BRANCH   2   4
HETATM    4  C   UNL     1      -9.175   6.465  67.823  1.00  0.00    -0.112 A  
HETATM    5  C   UNL     1      -8.967   5.957  69.110  1.00  0.00    -0.119 A  
HETATM    6  O   UNL     1      -8.823   4.618  69.343  1.00  0.00    -0.084 OA 
HETATM    7  C   UNL     1      -8.894   6.796  70.219  1.00  0.00    -0.152 A  
HETATM    8  C   UNL     1      -9.020   8.173  70.057  1.00  0.00    -0.143 A  
HETATM    9  H   UNL     1      -8.682   4.273  70.217  1.00  0.00     0.000 HD 
HETATM   10  C   UNL     1      -9.227   8.723  68.785  1.00  0.00    -0.141 A  
HETATM   11  C   UNL     1      -9.317   7.857  67.680  1.00  0.00    -0.161 A  
BRANCH  10  12
HETATM   12  C   UNL     1      -9.431  10.216  68.638  1.00  0.00    -0.164 C  
HETATM   13  O   UNL     1      -9.540  10.830  69.930  1.00  0.00    -0.360 OA 
HETATM   14  H   UNL     1      -9.667  11.767  69.838  1.00  0.00     0.000 HD 
BRANCH  12  15
HETATM   15  C   UNL     1      -8.253  10.845  67.864  1.00  0.00    -0.114 C  
BRANCH  15  16
HETATM   16  N   UNL     1      -7.373  11.614  68.760  1.00  0.00    -0.114 NA 
HETATM   17  H   UNL     1      -6.791  11.008  69.338  1.00  0.00     0.000 HD 
BRANCH  16  18
HETATM   18  C   UNL     1      -6.574  12.561  67.988  1.00  0.00    -0.086 C  
BRANCH  18  19
HETATM   19  C   UNL     1      -7.465  13.666  67.427  1.00  0.00    -0.139 C  
BRANCH  19  20
HETATM   20  C   UNL     1      -7.156  14.993  68.119  1.00  0.00    -0.126 C  
BRANCH  20  21
HETATM   21  C   UNL     1      -6.195  15.835  67.289  1.00  0.00    -0.068 C  
BRANCH  21  22
HETATM   22  C   UNL     1      -6.205  17.292  67.742  1.00  0.00    -0.160 C  
BRANCH  22  23
HETATM   23  C   UNL     1      -7.317  17.531  68.750  1.00  0.00    -0.260 C  
BRANCH  23  24
HETATM   24  O   UNL     1      -7.876  18.820  68.518  1.00  0.00    -0.315 OA 
BRANCH  24  25
HETATM   25  C   UNL     1      -9.134  18.950  69.176  1.00  0.00    -0.052 C  
BRANCH  25  26
HETATM   26  C   UNL     1     -10.234  19.144  68.146  1.00  0.00    -0.403 C  
BRANCH  26  27
HETATM   27  O   UNL     1     -10.890  17.895  67.930  1.00  0.00    -0.365 OA 
BRANCH  27  28
HETATM   28  C   UNL     1     -10.163  17.078  67.024  1.00  0.00    -0.303 C  
BRANCH  28  29
HETATM   29  C   UNL     1     -10.767  15.700  67.026  1.00  0.00    -0.314 A  
HETATM   30  C   UNL     1     -10.909  14.966  68.217  1.00  0.00    -0.257 A  
HETATM   31 CL   UNL     1     -10.344  15.559  69.741  1.00  0.00    -0.297 Cl 
HETATM   32  C   UNL     1     -11.520  13.704  68.220  1.00  0.00    -0.348 A  
HETATM   33  C   UNL     1     -11.977  13.143  67.032  1.00  0.00    -0.412 A  
HETATM   34  C   UNL     1     -11.797  13.829  65.835  1.00  0.00    -0.405 A  
HETATM   35  C   UNL     1     -11.187  15.091  65.830  1.00  0.00    -0.318 A  
HETATM   36 CL   UNL     1     -10.981  15.849  64.287  1.00  0.00    -0.052 Cl 
ENDBRANCH  28  29
ENDBRANCH  27  28
ENDBRANCH  26  27
ENDBRANCH  25  26
ENDBRANCH  24  25
ENDBRANCH  23  24
ENDBRANCH  22  23
ENDBRANCH  21  22
ENDBRANCH  20  21
ENDBRANCH  19  20
ENDBRANCH  18  19
ENDBRANCH  16  18
ENDBRANCH  15  16
ENDBRANCH  12  15
ENDBRANCH  10  12
ENDBRANCH   2   4
TORSDOF 16
ENDMDL
MODEL      393
REMARK 921   NORMALIZED FREE ENERGY PREDICTED BY IDOCK:   -3.19 KCAL/MOL
REMARK 922        TOTAL FREE ENERGY PREDICTED BY IDOCK:   -8.25 KCAL/MOL
REMARK 923 INTER-LIGAND FREE ENERGY PREDICTED BY IDOCK:   -7.21 KCAL/MOL
REMARK 924 INTRA-LIGAND FREE ENERGY PREDICTED BY IDOCK:   -1.04 KCAL/MOL
REMARK 927      BINDING AFFINITY PREDICTED BY RF-SCORE:    0.00 PKD
ROOT
HETATM    1  O   UNL     1      -7.587   4.645  68.959  1.00  0.00    -0.059 OA 
HETATM    2  C   UNL     1      -7.395   3.507  68.118  1.00  0.00    -0.051 C  
HETATM    3  H   UNL     1      -7.133   4.538  69.787  1.00  0.00     0.000 HD 
ENDROOT
BRANCH   2   4
HETATM    4  C   UNL     1      -8.116   3.676  66.806  1.00  0.00    -0.095 A  
HETATM    5  C   UNL     1      -9.175   2.858  66.399  1.00  0.00    -0.099 A  
HETATM    6  O   UNL     1      -9.684   1.880  67.207  1.00  0.00    -0.394 OA 
HETATM    7  C   UNL     1      -9.766   3.003  65.147  1.00  0.00     0.024 A  
HETATM    8  C   UNL     1      -9.309   3.987  64.273  1.00  0.00    -0.158 A  
HETATM    9  H   UNL     1     -10.402   1.324  66.931  1.00  0.00     0.000 HD 
HETATM   10  C   UNL     1      -8.251   4.829  64.643  1.00  0.00    -0.113 A  
HETATM   11  C   UNL     1      -7.656   4.653  65.905  1.00  0.00    -0.090 A  
BRANCH  10  12
HETATM   12  C   UNL     1      -7.723   5.847  63.654  1.00  0.00    -0.099 C  
HETATM   13  O   UNL     1      -8.362   5.679  62.381  1.00  0.00    -0.105 OA 
HETATM   14  H   UNL     1      -8.031   6.317  61.761  1.00  0.00     0.000 HD 
BRANCH  12  15
HETATM   15  C   UNL     1      -7.971   7.279  64.173  1.00  0.00    -0.084 C  
BRANCH  15  16
HETATM   16  N   UNL     1      -8.892   8.016  63.291  1.00  0.00    -0.102 NA 
HETATM   17  H   UNL     1      -9.868   7.798  63.492  1.00  0.00     0.000 HD 
BRANCH  16  18
HETATM   18  C   UNL     1      -8.626   9.448  63.371  1.00  0.00    -0.211 C  
BRANCH  18  19
HETATM   19  C   UNL     1      -9.727  10.144  64.166  1.00  0.00    -0.301 C  
BRANCH  19  20
HETATM   20  C   UNL     1     -10.396  11.218  63.308  1.00  0.00    -0.406 C  
BRANCH  20  21
HETATM   21  C   UNL     1     -10.377  12.572  64.009  1.00  0.00    -0.429 C  
BRANCH  21  22
HETATM   22  C   UNL     1     -11.731  13.266  63.905  1.00  0.00    -0.486 C  
BRANCH  22  23
HETATM   23  C   UNL     1     -12.574  12.984  65.138  1.00  0.00    -0.469 C  
BRANCH  23  24
HETATM   24  O   UNL     1     -11.975  13.625  66.259  1.00  0.00    -0.375 OA 
BRANCH  24  25
HETATM   25  C   UNL     1     -11.886  12.729  67.364  1.00  0.00    -0.342 C  
BRANCH  25  26
HETATM   26  C   UNL     1     -10.963  11.573  67.014  1.00  0.00    -0.294 C  
BRANCH  26  27
HETATM   27  O   UNL     1     -11.190  10.507  67.936  1.00  0.00    -0.296 OA 
BRANCH  27  28
HETATM   28  C   UNL     1     -10.450   9.348  67.580  1.00  0.00    -0.280 C  
BRANCH  28  29
HETATM   29  C   UNL     1     -10.609   8.321  68.668  1.00  0.00    -0.144 A  
HETATM   30  C   UNL     1     -10.472   8.665  70.024  1.00  0.00    -0.223 A  
HETATM   31 CL   UNL     1     -10.048  10.264  70.532  1.00  0.00     0.040 Cl 
HETATM   32  C   UNL     1     -10.672   7.715  71.035  1.00  0.00    -0.239 A  
HETATM   33  C   UNL     1     -10.989   6.401  70.709  1.00  0.00    -0.346 A  
HETATM   34  C   UNL     1     -11.076   6.027  69.372  1.00  0.00    -0.445 A  
HETATM   35  C   UNL     1     -10.876   6.975  68.360  1.00  0.00    -0.138 A  
HETATM   36 CL   UNL     1     -10.974   6.403  66.729  1.00  0.00    -0.401 Cl 
ENDBRANCH  28  29
ENDBRANCH  27  28
ENDBRANCH  26  27
ENDBRANCH  25  26
ENDBRANCH  24  25
ENDBRANCH  23  24
ENDBRANCH  22  23
ENDBRANCH  21  22
ENDBRANCH  20  21
ENDBRANCH  19  20
ENDBRANCH  18  19
ENDBRANCH  16  18
ENDBRANCH  15  16
ENDBRANCH  12  15
ENDBRANCH  10  12
ENDBRANCH   2   4
TORSDOF 16
ENDMDL
MODEL      394
REMARK 921   NORMALIZED FREE ENERGY PREDICTED BY IDOCK:   -3.19 KCAL/MOL
REMARK 922        TOTAL FREE ENERGY PREDICTED BY IDOCK:   -8.24 KCAL/MOL
REMARK 923 INTER-LIGAND FREE ENERGY PREDICTED BY IDOCK:   -6.99 KCAL/MOL
REMARK 924 INTRA-LIGAND FREE ENERGY PREDICTED BY IDOCK:   -1.26 KCAL/MOL
REMARK 927      BINDING AFFINITY PREDICTED BY RF-SCORE:    0.00 PKD
ROOT
HETATM    1  O   UNL     1      -9.207   4.776  68.563  1.00  0.00    -0.112 OA 
HETATM    2  C   UNL     1      -7.801   4.614  68.376  1.00  0.00    -0.080 C  
HETATM    3  H   UNL     1      -9.576   4.038  69.033  1.00  0.00     0.000 HD 
ENDROOT
BRANCH   2   4
HETATM    4  C   UNL     1      -7.216   5.786  67.631  1.00  0.00    -0.076 A  
HETATM    5  C   UNL     1      -6.568   5.667  66.396  1.00  0.00    -0.055 A  
HETATM    6  O   UNL     1      -6.485   4.472  65.737  1.00  0.00    -0.038 OA 
HETATM    7  C   UNL     1      -5.979   6.765  65.776  1.00  0.00    -0.034 A  
HETATM    8  C   UNL     1      -6.035   8.018  66.383  1.00  0.00    -0.041 A  
HETATM    9  H   UNL     1      -6.045   4.391  64.899  1.00  0.00     0.000 HD 
HETATM   10  C   UNL     1      -6.676   8.181  67.619  1.00  0.00    -0.062 A  
HETATM   11  C   UNL     1      -7.249   7.055  68.236  1.00  0.00    -0.091 A  
BRANCH  10  12
HETATM   12  C   UNL     1      -6.667   9.536  68.294  1.00  0.00    -0.058 C  
HETATM   13  O   UNL     1      -5.414   9.750  68.958  1.00  0.00    -0.036 OA 
HETATM   14  H   UNL     1      -5.408  10.600  69.382  1.00  0.00     0.000 HD 
BRANCH  12  15
HETATM   15  C   UNL     1      -6.901  10.654  67.257  1.00  0.00    -0.079 C  
BRANCH  15  16
HETATM   16  N   UNL     1      -5.767  11.593  67.217  1.00  0.00    -0.090 NA 
HETATM   17  H   UNL     1      -5.409  11.719  66.270  1.00  0.00     0.000 HD 
BRANCH  16  18
HETATM   18  C   UNL     1      -6.145  12.863  67.829  1.00  0.00    -0.143 C  
BRANCH  18  19
HETATM   19  C   UNL     1      -7.642  13.105  67.657  1.00  0.00    -0.171 C  
BRANCH  19  20
HETATM   20  C   UNL     1      -7.904  14.578  67.344  1.00  0.00    -0.221 C  
BRANCH  20  21
HETATM   21  C   UNL     1      -9.117  14.739  66.435  1.00  0.00    -0.267 C  
BRANCH  21  22
HETATM   22  C   UNL     1      -9.299  16.193  66.011  1.00  0.00    -0.368 C  
BRANCH  22  23
HETATM   23  C   UNL     1     -10.404  16.853  66.821  1.00  0.00    -0.298 C  
BRANCH  23  24
HETATM   24  O   UNL     1      -9.814  17.577  67.896  1.00  0.00    -0.274 OA 
BRANCH  24  25
HETATM   25  C   UNL     1     -10.466  17.273  69.127  1.00  0.00    -0.263 C  
BRANCH  25  26
HETATM   26  C   UNL     1      -9.908  15.979  69.696  1.00  0.00    -0.196 C  
BRANCH  26  27
HETATM   27  O   UNL     1     -10.907  15.366  70.511  1.00  0.00    -0.309 OA 
BRANCH  27  28
HETATM   28  C   UNL     1     -11.929  14.775  69.720  1.00  0.00    -0.321 C  
BRANCH  28  29
HETATM   29  C   UNL     1     -12.280  13.435  70.308  1.00  0.00    -0.405 A  
HETATM   30  C   UNL     1     -11.905  12.238  69.674  1.00  0.00    -0.324 A  
HETATM   31 CL   UNL     1     -11.080  12.219  68.152  1.00  0.00    -0.261 Cl 
HETATM   32  C   UNL     1     -12.189  10.994  70.252  1.00  0.00    -0.447 A  
HETATM   33  C   UNL     1     -12.873  10.922  71.460  1.00  0.00    -0.560 A  
HETATM   34  C   UNL     1     -13.301  12.092  72.078  1.00  0.00    -0.470 A  
HETATM   35  C   UNL     1     -13.017  13.338  71.502  1.00  0.00    -0.337 A  
HETATM   36 CL   UNL     1     -13.620  14.733  72.331  1.00  0.00    -0.497 Cl 
ENDBRANCH  28  29
ENDBRANCH  27  28
ENDBRANCH  26  27
ENDBRANCH  25  26
ENDBRANCH  24  25
ENDBRANCH  23  24
ENDBRANCH  22  23
ENDBRANCH  21  22
ENDBRANCH  20  21
ENDBRANCH  19  20
ENDBRANCH  18  19
ENDBRANCH  16  18
ENDBRANCH  15  16
ENDBRANCH  12  15
ENDBRANCH  10  12
ENDBRANCH   2   4
TORSDOF 16
ENDMDL
MODEL      395
REMARK 921   NORMALIZED FREE ENERGY PREDICTED BY IDOCK:   -3.19 KCAL/MOL
REMARK 922        TOTAL FREE ENERGY PREDICTED BY IDOCK:   -8.24 KCAL/MOL
REMARK 923 INTER-LIGAND FREE ENERGY PREDICTED BY IDOCK:   -7.17 KCAL/MOL
REMARK 924 INTRA-LIGAND FREE ENERGY PREDICTED BY IDOCK:   -1.07 KCAL/MOL
REMARK 927      BINDING AFFINITY PREDICTED BY RF-SCORE:    0.00 PKD
ROOT
HETATM    1  O   UNL     1     -12.754   7.440  70.278  1.00  0.00    -0.305 OA 
HETATM    2  C   UNL     1     -12.222   7.082  71.554  1.00  0.00    -0.368 C  
HETATM    3  H   UNL     1     -13.397   8.134  70.359  1.00  0.00     0.000 HD 
ENDROOT
BRANCH   2   4
HETATM    4  C   UNL     1     -11.203   5.980  71.425  1.00  0.00    -0.325 A  
HETATM    5  C   UNL     1     -10.693   5.272  72.519  1.00  0.00    -0.236 A  
HETATM    6  O   UNL     1     -11.147   5.485  73.791  1.00  0.00    -0.420 OA 
HETATM    7  C   UNL     1      -9.699   4.310  72.363  1.00  0.00    -0.207 A  
HETATM    8  C   UNL     1      -9.197   4.031  71.094  1.00  0.00    -0.196 A  
HETATM    9  H   UNL     1     -10.801   5.004  74.534  1.00  0.00     0.000 HD 
HETATM   10  C   UNL     1      -9.681   4.716  69.972  1.00  0.00    -0.277 A  
HETATM   11  C   UNL     1     -10.673   5.697  70.154  1.00  0.00    -0.376 A  
BRANCH  10  12
HETATM   12  C   UNL     1      -9.074   4.448  68.611  1.00  0.00    -0.124 C  
HETATM   13  O   UNL     1      -9.945   3.610  67.837  1.00  0.00    -0.040 OA 
HETATM   14  H   UNL     1      -9.564   3.442  66.983  1.00  0.00     0.000 HD 
BRANCH  12  15
HETATM   15  C   UNL     1      -8.830   5.774  67.861  1.00  0.00    -0.108 C  
BRANCH  15  16
HETATM   16  N   UNL     1      -7.525   6.357  68.215  1.00  0.00    -0.089 NA 
HETATM   17  H   UNL     1      -6.937   6.504  67.394  1.00  0.00     0.000 HD 
BRANCH  16  18
HETATM   18  C   UNL     1      -7.714   7.587  68.977  1.00  0.00    -0.117 C  
BRANCH  18  19
HETATM   19  C   UNL     1      -7.050   8.758  68.259  1.00  0.00    -0.078 C  
BRANCH  19  20
HETATM   20  C   UNL     1      -6.046   8.242  67.228  1.00  0.00    -0.055 C  
BRANCH  20  21
HETATM   21  C   UNL     1      -6.254   8.913  65.875  1.00  0.00    -0.056 C  
BRANCH  21  22
HETATM   22  C   UNL     1      -6.919   7.962  64.885  1.00  0.00    -0.059 C  
BRANCH  22  23
HETATM   23  C   UNL     1      -8.076   8.650  64.177  1.00  0.00    -0.162 C  
BRANCH  23  24
HETATM   24  O   UNL     1      -8.335   9.892  64.822  1.00  0.00    -0.142 OA 
BRANCH  24  25
HETATM   25  C   UNL     1      -9.673   9.937  65.312  1.00  0.00    -0.313 C  
BRANCH  25  26
HETATM   26  C   UNL     1     -10.350  11.213  64.839  1.00  0.00    -0.313 C  
BRANCH  26  27
HETATM   27  O   UNL     1     -11.558  11.395  65.578  1.00  0.00    -0.079 OA 
BRANCH  27  28
HETATM   28  C   UNL     1     -11.320  12.084  66.797  1.00  0.00    -0.339 C  
BRANCH  28  29
HETATM   29  C   UNL     1     -10.547  13.340  66.499  1.00  0.00    -0.289 A  
HETATM   30  C   UNL     1     -11.090  14.358  65.697  1.00  0.00    -0.321 A  
HETATM   31 CL   UNL     1     -12.642  14.214  64.946  1.00  0.00    -0.400 Cl 
HETATM   32  C   UNL     1     -10.386  15.548  65.465  1.00  0.00    -0.419 A  
HETATM   33  C   UNL     1      -9.120  15.732  66.010  1.00  0.00    -0.361 A  
HETATM   34  C   UNL     1      -8.542  14.714  66.762  1.00  0.00    -0.195 A  
HETATM   35  C   UNL     1      -9.244  13.524  66.995  1.00  0.00    -0.246 A  
HETATM   36 CL   UNL     1      -8.427  12.307  67.916  1.00  0.00    -0.155 Cl 
ENDBRANCH  28  29
ENDBRANCH  27  28
ENDBRANCH  26  27
ENDBRANCH  25  26
ENDBRANCH  24  25
ENDBRANCH  23  24
ENDBRANCH  22  23
ENDBRANCH  21  22
ENDBRANCH  20  21
ENDBRANCH  19  20
ENDBRANCH  18  19
ENDBRANCH  16  18
ENDBRANCH  15  16
ENDBRANCH  12  15
ENDBRANCH  10  12
ENDBRANCH   2   4
TORSDOF 16
ENDMDL
MODEL      396
REMARK 921   NORMALIZED FREE ENERGY PREDICTED BY IDOCK:   -3.18 KCAL/MOL
REMARK 922        TOTAL FREE ENERGY PREDICTED BY IDOCK:   -8.23 KCAL/MOL
REMARK 923 INTER-LIGAND FREE ENERGY PREDICTED BY IDOCK:   -6.84 KCAL/MOL
REMARK 924 INTRA-LIGAND FREE ENERGY PREDICTED BY IDOCK:   -1.39 KCAL/MOL
REMARK 927      BINDING AFFINITY PREDICTED BY RF-SCORE:    0.00 PKD
ROOT
HETATM    1  O   UNL     1      -7.209   5.481  70.968  1.00  0.00    -0.073 OA 
HETATM    2  C   UNL     1      -7.379   5.008  72.305  1.00  0.00    -0.091 C  
HETATM    3  H   UNL     1      -6.288   5.543  70.742  1.00  0.00     0.000 HD 
ENDROOT
BRANCH   2   4
HETATM    4  C   UNL     1      -8.839   4.911  72.663  1.00  0.00    -0.125 A  
HETATM    5  C   UNL     1      -9.397   3.810  73.323  1.00  0.00    -0.105 A  
HETATM    6  O   UNL     1      -8.631   2.766  73.760  1.00  0.00    -0.071 OA 
HETATM    7  C   UNL     1     -10.765   3.729  73.570  1.00  0.00    -0.304 A  
HETATM    8  C   UNL     1     -11.607   4.762  73.165  1.00  0.00    -0.288 A  
HETATM    9  H   UNL     1      -9.010   2.019  74.209  1.00  0.00     0.000 HD 
HETATM   10  C   UNL     1     -11.087   5.883  72.502  1.00  0.00    -0.328 A  
HETATM   11  C   UNL     1      -9.705   5.936  72.246  1.00  0.00    -0.178 A  
BRANCH  10  12
HETATM   12  C   UNL     1     -12.027   6.962  72.007  1.00  0.00    -0.306 C  
HETATM   13  O   UNL     1     -12.185   7.978  73.008  1.00  0.00    -0.659 OA 
HETATM   14  H   UNL     1     -12.774   8.655  72.698  1.00  0.00     0.000 HD 
BRANCH  12  15
HETATM   15  C   UNL     1     -11.482   7.595  70.710  1.00  0.00    -0.277 C  
BRANCH  15  16
HETATM   16  N   UNL     1     -11.868   6.808  69.527  1.00  0.00    -0.633 NA 
HETATM   17  H   UNL     1     -12.808   7.040  69.204  1.00  0.00     0.000 HD 
BRANCH  16  18
HETATM   18  C   UNL     1     -10.874   6.967  68.471  1.00  0.00    -0.180 C  
BRANCH  18  19
HETATM   19  C   UNL     1     -10.367   5.601  68.017  1.00  0.00    -0.258 C  
BRANCH  19  20
HETATM   20  C   UNL     1     -10.307   5.542  66.490  1.00  0.00    -0.309 C  
BRANCH  20  21
HETATM   21  C   UNL     1      -8.866   5.534  65.996  1.00  0.00    -0.147 C  
BRANCH  21  22
HETATM   22  C   UNL     1      -7.894   5.866  67.124  1.00  0.00    -0.102 C  
BRANCH  22  23
HETATM   23  C   UNL     1      -6.521   6.206  66.566  1.00  0.00    -0.046 C  
BRANCH  23  24
HETATM   24  O   UNL     1      -6.417   7.620  66.435  1.00  0.00    -0.047 OA 
BRANCH  24  25
HETATM   25  C   UNL     1      -6.254   8.234  67.711  1.00  0.00    -0.052 C  
BRANCH  25  26
HETATM   26  C   UNL     1      -7.358   9.254  67.933  1.00  0.00    -0.080 C  
BRANCH  26  27
HETATM   27  O   UNL     1      -6.863  10.550  67.595  1.00  0.00    -0.072 OA 
BRANCH  27  28
HETATM   28  C   UNL     1      -7.371  10.989  66.344  1.00  0.00    -0.128 C  
BRANCH  28  29
HETATM   29  C   UNL     1      -8.711  11.635  66.567  1.00  0.00    -0.182 A  
HETATM   30  C   UNL     1      -9.906  10.973  66.234  1.00  0.00    -0.215 A  
HETATM   31 CL   UNL     1      -9.920   9.412  65.488  1.00  0.00    -0.268 Cl 
HETATM   32  C   UNL     1     -11.153  11.559  66.492  1.00  0.00    -0.341 A  
HETATM   33  C   UNL     1     -11.229  12.824  67.064  1.00  0.00    -0.336 A  
HETATM   34  C   UNL     1     -10.058  13.518  67.352  1.00  0.00    -0.237 A  
HETATM   35  C   UNL     1      -8.811  12.935  67.096  1.00  0.00    -0.210 A  
HETATM   36 CL   UNL     1      -7.415  13.892  67.459  1.00  0.00    -0.186 Cl 
ENDBRANCH  28  29
ENDBRANCH  27  28
ENDBRANCH  26  27
ENDBRANCH  25  26
ENDBRANCH  24  25
ENDBRANCH  23  24
ENDBRANCH  22  23
ENDBRANCH  21  22
ENDBRANCH  20  21
ENDBRANCH  19  20
ENDBRANCH  18  19
ENDBRANCH  16  18
ENDBRANCH  15  16
ENDBRANCH  12  15
ENDBRANCH  10  12
ENDBRANCH   2   4
TORSDOF 16
ENDMDL
MODEL      397
REMARK 921   NORMALIZED FREE ENERGY PREDICTED BY IDOCK:   -3.18 KCAL/MOL
REMARK 922        TOTAL FREE ENERGY PREDICTED BY IDOCK:   -8.22 KCAL/MOL
REMARK 923 INTER-LIGAND FREE ENERGY PREDICTED BY IDOCK:   -7.82 KCAL/MOL
REMARK 924 INTRA-LIGAND FREE ENERGY PREDICTED BY IDOCK:   -0.40 KCAL/MOL
REMARK 927      BINDING AFFINITY PREDICTED BY RF-SCORE:    0.00 PKD
ROOT
HETATM    1  O   UNL     1      -7.597  19.330  69.321  1.00  0.00    -0.305 OA 
HETATM    2  C   UNL     1      -7.611  18.312  68.320  1.00  0.00    -0.278 C  
HETATM    3  H   UNL     1      -6.926  19.160  69.971  1.00  0.00     0.000 HD 
ENDROOT
BRANCH   2   4
HETATM    4  C   UNL     1      -8.676  18.582  67.288  1.00  0.00    -0.272 A  
HETATM    5  C   UNL     1      -8.972  19.862  66.806  1.00  0.00    -0.360 A  
HETATM    6  O   UNL     1      -8.255  20.962  67.189  1.00  0.00    -0.550 OA 
HETATM    7  C   UNL     1     -10.012  20.077  65.907  1.00  0.00    -0.471 A  
HETATM    8  C   UNL     1     -10.779  19.002  65.462  1.00  0.00    -0.105 A  
HETATM    9  H   UNL     1      -8.456  21.830  66.862  1.00  0.00     0.000 HD 
HETATM   10  C   UNL     1     -10.514  17.704  65.919  1.00  0.00    -0.247 A  
HETATM   11  C   UNL     1      -9.470  17.512  66.841  1.00  0.00    -0.278 A  
BRANCH  10  12
HETATM   12  C   UNL     1     -11.401  16.559  65.477  1.00  0.00     0.371 C  
HETATM   13  O   UNL     1     -11.352  16.416  64.051  1.00  0.00    -1.416 OA 
HETATM   14  H   UNL     1     -11.908  15.697  63.774  1.00  0.00     0.000 HD 
BRANCH  12  15
HETATM   15  C   UNL     1     -10.952  15.243  66.146  1.00  0.00    -0.307 C  
BRANCH  15  16
HETATM   16  N   UNL     1      -9.561  14.911  65.793  1.00  0.00    -0.454 NA 
HETATM   17  H   UNL     1      -8.889  15.433  66.355  1.00  0.00     0.000 HD 
BRANCH  16  18
HETATM   18  C   UNL     1      -9.349  13.470  65.888  1.00  0.00     0.081 C  
BRANCH  18  19
HETATM   19  C   UNL     1     -10.333  12.859  66.882  1.00  0.00    -0.247 C  
BRANCH  19  20
HETATM   20  C   UNL     1     -10.203  11.336  66.882  1.00  0.00    -0.254 C  
BRANCH  20  21
HETATM   21  C   UNL     1     -10.394  10.769  68.284  1.00  0.00    -0.195 C  
BRANCH  21  22
HETATM   22  C   UNL     1     -10.799   9.299  68.233  1.00  0.00    -0.132 C  
BRANCH  22  23
HETATM   23  C   UNL     1      -9.916   8.533  67.261  1.00  0.00    -0.225 C  
BRANCH  23  24
HETATM   24  O   UNL     1      -8.671   8.256  67.893  1.00  0.00    -0.133 OA 
BRANCH  24  25
HETATM   25  C   UNL     1      -8.875   7.770  69.217  1.00  0.00    -0.139 C  
BRANCH  25  26
HETATM   26  C   UNL     1      -7.628   7.044  69.694  1.00  0.00    -0.104 C  
BRANCH  26  27
HETATM   27  O   UNL     1      -7.886   6.480  70.980  1.00  0.00    -0.105 OA 
BRANCH  27  28
HETATM   28  C   UNL     1      -9.279   6.308  71.200  1.00  0.00    -0.153 C  
BRANCH  28  29
HETATM   29  C   UNL     1      -9.484   5.100  72.073  1.00  0.00    -0.182 A  
HETATM   30  C   UNL     1      -9.530   3.804  71.530  1.00  0.00    -0.151 A  
HETATM   31 CL   UNL     1      -9.423   3.513  69.827  1.00  0.00    -0.248 Cl 
HETATM   32  C   UNL     1      -9.669   2.679  72.354  1.00  0.00    -0.206 A  
HETATM   33  C   UNL     1      -9.789   2.829  73.731  1.00  0.00    -0.148 A  
HETATM   34  C   UNL     1      -9.800   4.105  74.284  1.00  0.00    -0.166 A  
HETATM   35  C   UNL     1      -9.661   5.232  73.463  1.00  0.00    -0.134 A  
HETATM   36 CL   UNL     1      -9.719   6.776  74.243  1.00  0.00    -0.308 Cl 
ENDBRANCH  28  29
ENDBRANCH  27  28
ENDBRANCH  26  27
ENDBRANCH  25  26
ENDBRANCH  24  25
ENDBRANCH  23  24
ENDBRANCH  22  23
ENDBRANCH  21  22
ENDBRANCH  20  21
ENDBRANCH  19  20
ENDBRANCH  18  19
ENDBRANCH  16  18
ENDBRANCH  15  16
ENDBRANCH  12  15
ENDBRANCH  10  12
ENDBRANCH   2   4
TORSDOF 16
ENDMDL
MODEL      398
REMARK 921   NORMALIZED FREE ENERGY PREDICTED BY IDOCK:   -3.16 KCAL/MOL
REMARK 922        TOTAL FREE ENERGY PREDICTED BY IDOCK:   -8.19 KCAL/MOL
REMARK 923 INTER-LIGAND FREE ENERGY PREDICTED BY IDOCK:   -6.80 KCAL/MOL
REMARK 924 INTRA-LIGAND FREE ENERGY PREDICTED BY IDOCK:   -1.39 KCAL/MOL
REMARK 927      BINDING AFFINITY PREDICTED BY RF-SCORE:    0.00 PKD
ROOT
HETATM    1  O   UNL     1      -9.147  15.065  69.612  1.00  0.00    -0.432 OA 
HETATM    2  C   UNL     1     -10.504  15.034  69.168  1.00  0.00    -0.247 C  
HETATM    3  H   UNL     1      -8.922  15.917  69.965  1.00  0.00     0.000 HD 
ENDROOT
BRANCH   2   4
HETATM    4  C   UNL     1     -10.860  13.682  68.608  1.00  0.00    -0.283 A  
HETATM    5  C   UNL     1     -11.543  12.702  69.338  1.00  0.00    -0.306 A  
HETATM    6  O   UNL     1     -12.005  12.937  70.603  1.00  0.00    -0.508 OA 
HETATM    7  C   UNL     1     -11.788  11.439  68.807  1.00  0.00    -0.388 A  
HETATM    8  C   UNL     1     -11.358  11.132  67.519  1.00  0.00    -0.351 A  
HETATM    9  H   UNL     1     -12.469  12.272  71.099  1.00  0.00     0.000 HD 
HETATM   10  C   UNL     1     -10.671  12.085  66.753  1.00  0.00    -0.280 A  
HETATM   11  C   UNL     1     -10.418  13.349  67.315  1.00  0.00    -0.248 A  
BRANCH  10  12
HETATM   12  C   UNL     1     -10.151  11.710  65.381  1.00  0.00    -0.259 C  
HETATM   13  O   UNL     1      -9.830  12.891  64.634  1.00  0.00    -0.547 OA 
HETATM   14  H   UNL     1      -9.503  12.656  63.773  1.00  0.00     0.000 HD 
BRANCH  12  15
HETATM   15  C   UNL     1      -8.896  10.821  65.509  1.00  0.00    -0.190 C  
BRANCH  15  16
HETATM   16  N   UNL     1      -7.768  11.566  66.093  1.00  0.00    -0.379 NA 
HETATM   17  H   UNL     1      -8.064  12.159  66.868  1.00  0.00     0.000 HD 
BRANCH  16  18
HETATM   18  C   UNL     1      -6.707  10.644  66.486  1.00  0.00    -0.116 C  
BRANCH  18  19
HETATM   19  C   UNL     1      -6.083  11.093  67.805  1.00  0.00    -0.047 C  
BRANCH  19  20
HETATM   20  C   UNL     1      -6.208   9.985  68.850  1.00  0.00    -0.044 C  
BRANCH  20  21
HETATM   21  C   UNL     1      -7.111   8.861  68.355  1.00  0.00    -0.077 C  
BRANCH  21  22
HETATM   22  C   UNL     1      -8.426   8.830  69.128  1.00  0.00    -0.123 C  
BRANCH  22  23
HETATM   23  C   UNL     1      -8.902   7.398  69.316  1.00  0.00    -0.136 C  
BRANCH  23  24
HETATM   24  O   UNL     1     -10.244   7.297  68.852  1.00  0.00    -0.182 OA 
BRANCH  24  25
HETATM   25  C   UNL     1     -10.337   7.700  67.487  1.00  0.00    -0.257 C  
BRANCH  25  26
HETATM   26  C   UNL     1      -9.614   6.695  66.606  1.00  0.00    -0.163 C  
BRANCH  26  27
HETATM   27  O   UNL     1     -10.510   5.628  66.293  1.00  0.00    -0.193 OA 
BRANCH  27  28
HETATM   28  C   UNL     1      -9.973   4.371  66.678  1.00  0.00    -0.210 C  
BRANCH  28  29
HETATM   29  C   UNL     1      -8.917   3.972  65.684  1.00  0.00    -0.131 A  
HETATM   30  C   UNL     1      -7.550   4.032  66.007  1.00  0.00    -0.089 A  
HETATM   31 CL   UNL     1      -6.986   4.626  67.532  1.00  0.00    -0.060 Cl 
HETATM   32  C   UNL     1      -6.572   3.611  65.095  1.00  0.00    -0.040 A  
HETATM   33  C   UNL     1      -6.940   3.147  63.837  1.00  0.00    -0.048 A  
HETATM   34  C   UNL     1      -8.284   3.130  63.478  1.00  0.00    -0.085 A  
HETATM   35  C   UNL     1      -9.263   3.550  64.387  1.00  0.00    -0.134 A  
HETATM   36 CL   UNL     1     -10.903   3.522  63.834  1.00  0.00    -0.252 Cl 
ENDBRANCH  28  29
ENDBRANCH  27  28
ENDBRANCH  26  27
ENDBRANCH  25  26
ENDBRANCH  24  25
ENDBRANCH  23  24
ENDBRANCH  22  23
ENDBRANCH  21  22
ENDBRANCH  20  21
ENDBRANCH  19  20
ENDBRANCH  18  19
ENDBRANCH  16  18
ENDBRANCH  15  16
ENDBRANCH  12  15
ENDBRANCH  10  12
ENDBRANCH   2   4
TORSDOF 16
ENDMDL
MODEL      399
REMARK 921   NORMALIZED FREE ENERGY PREDICTED BY IDOCK:   -3.14 KCAL/MOL
REMARK 922        TOTAL FREE ENERGY PREDICTED BY IDOCK:   -8.15 KCAL/MOL
REMARK 923 INTER-LIGAND FREE ENERGY PREDICTED BY IDOCK:   -7.33 KCAL/MOL
REMARK 924 INTRA-LIGAND FREE ENERGY PREDICTED BY IDOCK:   -0.82 KCAL/MOL
REMARK 927      BINDING AFFINITY PREDICTED BY RF-SCORE:    0.00 PKD
ROOT
HETATM    1  O   UNL     1     -10.166   9.521  71.563  1.00  0.00    -0.247 OA 
HETATM    2  C   UNL     1      -9.393   8.370  71.904  1.00  0.00    -0.244 C  
HETATM    3  H   UNL     1      -9.936  10.262  72.111  1.00  0.00     0.000 HD 
ENDROOT
BRANCH   2   4
HETATM    4  C   UNL     1      -9.759   7.196  71.033  1.00  0.00    -0.165 A  
HETATM    5  C   UNL     1      -9.571   5.864  71.419  1.00  0.00    -0.164 A  
HETATM    6  O   UNL     1      -9.103   5.531  72.660  1.00  0.00    -0.138 OA 
HETATM    7  C   UNL     1      -9.856   4.810  70.556  1.00  0.00    -0.301 A  
HETATM    8  C   UNL     1     -10.348   5.072  69.279  1.00  0.00    -0.199 A  
HETATM    9  H   UNL     1      -8.975   4.628  72.922  1.00  0.00     0.000 HD 
HETATM   10  C   UNL     1     -10.552   6.392  68.854  1.00  0.00    -0.298 A  
HETATM   11  C   UNL     1     -10.241   7.442  69.735  1.00  0.00    -0.210 A  
BRANCH  10  12
HETATM   12  C   UNL     1     -11.022   6.659  67.439  1.00  0.00    -0.360 C  
HETATM   13  O   UNL     1     -10.518   7.921  66.980  1.00  0.00    -0.315 OA 
HETATM   14  H   UNL     1     -10.813   8.088  66.092  1.00  0.00     0.000 HD 
BRANCH  12  15
HETATM   15  C   UNL     1     -10.544   5.536  66.495  1.00  0.00    -0.279 C  
BRANCH  15  16
HETATM   16  N   UNL     1      -9.730   6.074  65.392  1.00  0.00    -0.124 NA 
HETATM   17  H   UNL     1      -9.759   7.093  65.357  1.00  0.00     0.000 HD 
BRANCH  16  18
HETATM   18  C   UNL     1      -8.363   5.572  65.486  1.00  0.00    -0.136 C  
BRANCH  18  19
HETATM   19  C   UNL     1      -7.391   6.729  65.699  1.00  0.00    -0.079 C  
BRANCH  19  20
HETATM   20  C   UNL     1      -7.424   7.672  64.497  1.00  0.00    -0.094 C  
BRANCH  20  21
HETATM   21  C   UNL     1      -7.727   9.103  64.928  1.00  0.00    -0.110 C  
BRANCH  21  22
HETATM   22  C   UNL     1      -6.615   9.659  65.812  1.00  0.00    -0.081 C  
BRANCH  22  23
HETATM   23  C   UNL     1      -7.198  10.404  67.001  1.00  0.00    -0.093 C  
BRANCH  23  24
HETATM   24  O   UNL     1      -8.605  10.187  67.034  1.00  0.00    -0.128 OA 
BRANCH  24  25
HETATM   25  C   UNL     1      -9.276  11.313  67.594  1.00  0.00    -0.156 C  
BRANCH  25  26
HETATM   26  C   UNL     1      -9.440  12.391  66.535  1.00  0.00    -0.242 C  
BRANCH  26  27
HETATM   27  O   UNL     1     -10.731  12.983  66.676  1.00  0.00    -0.270 OA 
BRANCH  27  28
HETATM   28  C   UNL     1     -11.548  12.238  67.567  1.00  0.00    -0.353 C  
BRANCH  28  29
HETATM   29  C   UNL     1     -11.734  13.034  68.831  1.00  0.00    -0.371 A  
HETATM   30  C   UNL     1     -12.194  12.430  70.014  1.00  0.00    -0.194 A  
HETATM   31 CL   UNL     1     -12.641  10.759  70.084  1.00  0.00    -0.359 Cl 
HETATM   32  C   UNL     1     -12.316  13.165  71.201  1.00  0.00    -0.295 A  
HETATM   33  C   UNL     1     -12.003  14.520  71.222  1.00  0.00    -0.396 A  
HETATM   34  C   UNL     1     -11.597  15.149  70.049  1.00  0.00    -0.326 A  
HETATM   35  C   UNL     1     -11.475  14.416  68.862  1.00  0.00    -0.289 A  
HETATM   36 CL   UNL     1     -10.994  15.296  67.451  1.00  0.00    -0.316 Cl 
ENDBRANCH  28  29
ENDBRANCH  27  28
ENDBRANCH  26  27
ENDBRANCH  25  26
ENDBRANCH  24  25
ENDBRANCH  23  24
ENDBRANCH  22  23
ENDBRANCH  21  22
ENDBRANCH  20  21
ENDBRANCH  19  20
ENDBRANCH  18  19
ENDBRANCH  16  18
ENDBRANCH  15  16
ENDBRANCH  12  15
ENDBRANCH  10  12
ENDBRANCH   2   4
TORSDOF 16
ENDMDL
MODEL      400
REMARK 921   NORMALIZED FREE ENERGY PREDICTED BY IDOCK:   -3.14 KCAL/MOL
REMARK 922        TOTAL FREE ENERGY PREDICTED BY IDOCK:   -8.15 KCAL/MOL
REMARK 923 INTER-LIGAND FREE ENERGY PREDICTED BY IDOCK:   -6.04 KCAL/MOL
REMARK 924 INTRA-LIGAND FREE ENERGY PREDICTED BY IDOCK:   -2.11 KCAL/MOL
REMARK 927      BINDING AFFINITY PREDICTED BY RF-SCORE:    0.00 PKD
ROOT
HETATM    1  O   UNL     1     -10.665   4.199  64.061  1.00  0.00    -0.449 OA 
HETATM    2  C   UNL     1     -10.843   4.361  65.469  1.00  0.00     0.029 C  
HETATM    3  H   UNL     1     -11.445   3.838  63.658  1.00  0.00     0.000 HD 
ENDROOT
BRANCH   2   4
HETATM    4  C   UNL     1      -9.605   4.933  66.109  1.00  0.00    -0.183 A  
HETATM    5  C   UNL     1      -8.677   5.721  65.419  1.00  0.00    -0.119 A  
HETATM    6  O   UNL     1      -8.870   6.090  64.117  1.00  0.00    -0.337 OA 
HETATM    7  C   UNL     1      -7.509   6.170  66.029  1.00  0.00    -0.082 A  
HETATM    8  C   UNL     1      -7.250   5.843  67.358  1.00  0.00    -0.076 A  
HETATM    9  H   UNL     1      -8.241   6.625  63.648  1.00  0.00     0.000 HD 
HETATM   10  C   UNL     1      -8.155   5.058  68.085  1.00  0.00    -0.086 A  
HETATM   11  C   UNL     1      -9.320   4.599  67.444  1.00  0.00    -0.162 A  
BRANCH  10  12
HETATM   12  C   UNL     1      -7.823   4.655  69.507  1.00  0.00    -0.062 C  
HETATM   13  O   UNL     1      -6.456   4.230  69.595  1.00  0.00    -0.031 OA 
HETATM   14  H   UNL     1      -6.248   3.978  70.487  1.00  0.00     0.000 HD 
BRANCH  12  15
HETATM   15  C   UNL     1      -8.060   5.839  70.469  1.00  0.00    -0.110 C  
BRANCH  15  16
HETATM   16  N   UNL     1      -9.039   5.493  71.513  1.00  0.00    -0.139 NA 
HETATM   17  H   UNL     1      -8.605   5.417  72.433  1.00  0.00     0.000 HD 
BRANCH  16  18
HETATM   18  C   UNL     1     -10.139   6.451  71.507  1.00  0.00    -0.192 C  
BRANCH  18  19
HETATM   19  C   UNL     1      -9.703   7.756  72.168  1.00  0.00    -0.240 C  
BRANCH  19  20
HETATM   20  C   UNL     1     -10.416   8.940  71.515  1.00  0.00    -0.393 C  
BRANCH  20  21
HETATM   21  C   UNL     1     -11.928   8.754  71.543  1.00  0.00    -0.386 C  
BRANCH  21  22
HETATM   22  C   UNL     1     -12.651  10.093  71.424  1.00  0.00    -0.526 C  
BRANCH  22  23
HETATM   23  C   UNL     1     -12.456  10.685  70.037  1.00  0.00    -0.225 C  
BRANCH  23  24
HETATM   24  O   UNL     1     -11.774  11.928  70.161  1.00  0.00    -0.314 OA 
BRANCH  24  25
HETATM   25  C   UNL     1     -12.070  12.778  69.055  1.00  0.00    -0.144 C  
BRANCH  25  26
HETATM   26  C   UNL     1     -10.790  13.108  68.305  1.00  0.00    -0.253 C  
BRANCH  26  27
HETATM   27  O   UNL     1     -10.809  12.436  67.045  1.00  0.00    -0.235 OA 
BRANCH  27  28
HETATM   28  C   UNL     1      -9.498  12.285  66.520  1.00  0.00    -0.236 C  
BRANCH  28  29
HETATM   29  C   UNL     1      -8.726  11.351  67.412  1.00  0.00    -0.145 A  
HETATM   30  C   UNL     1      -7.632  11.803  68.172  1.00  0.00    -0.117 A  
HETATM   31 CL   UNL     1      -7.059  13.434  68.085  1.00  0.00    -0.100 Cl 
HETATM   32  C   UNL     1      -6.949  10.940  69.040  1.00  0.00    -0.089 A  
HETATM   33  C   UNL     1      -7.330   9.607  69.147  1.00  0.00    -0.077 A  
HETATM   34  C   UNL     1      -8.374   9.127  68.364  1.00  0.00    -0.120 A  
HETATM   35  C   UNL     1      -9.059   9.987  67.496  1.00  0.00    -0.134 A  
HETATM   36 CL   UNL     1     -10.322   9.286  66.542  1.00  0.00    -0.308 Cl 
ENDBRANCH  28  29
ENDBRANCH  27  28
ENDBRANCH  26  27
ENDBRANCH  25  26
ENDBRANCH  24  25
ENDBRANCH  23  24
ENDBRANCH  22  23
ENDBRANCH  21  22
ENDBRANCH  20  21
ENDBRANCH  19  20
ENDBRANCH  18  19
ENDBRANCH  16  18
ENDBRANCH  15  16
ENDBRANCH  12  15
ENDBRANCH  10  12
ENDBRANCH   2   4
TORSDOF 16
ENDMDL
MODEL      401
REMARK 921   NORMALIZED FREE ENERGY PREDICTED BY IDOCK:   -3.13 KCAL/MOL
REMARK 922        TOTAL FREE ENERGY PREDICTED BY IDOCK:   -8.14 KCAL/MOL
REMARK 923 INTER-LIGAND FREE ENERGY PREDICTED BY IDOCK:   -5.70 KCAL/MOL
REMARK 924 INTRA-LIGAND FREE ENERGY PREDICTED BY IDOCK:   -2.44 KCAL/MOL
REMARK 927      BINDING AFFINITY PREDICTED BY RF-SCORE:    0.00 PKD
ROOT
HETATM    1  O   UNL     1      -8.615   3.479  70.739  1.00  0.00    -0.068 OA 
HETATM    2  C   UNL     1      -8.378   4.885  70.662  1.00  0.00    -0.100 C  
HETATM    3  H   UNL     1      -9.217   3.273  71.445  1.00  0.00     0.000 HD 
ENDROOT
BRANCH   2   4
HETATM    4  C   UNL     1      -7.424   5.213  69.543  1.00  0.00    -0.057 A  
HETATM    5  C   UNL     1      -6.724   6.422  69.458  1.00  0.00    -0.053 A  
HETATM    6  O   UNL     1      -6.805   7.373  70.436  1.00  0.00    -0.050 OA 
HETATM    7  C   UNL     1      -5.907   6.713  68.369  1.00  0.00    -0.021 A  
HETATM    8  C   UNL     1      -5.767   5.785  67.339  1.00  0.00    -0.016 A  
HETATM    9  H   UNL     1      -6.330   8.193  70.378  1.00  0.00     0.000 HD 
HETATM   10  C   UNL     1      -6.449   4.562  67.387  1.00  0.00    -0.045 A  
HETATM   11  C   UNL     1      -7.283   4.295  68.487  1.00  0.00    -0.056 A  
BRANCH  10  12
HETATM   12  C   UNL     1      -6.337   3.596  66.225  1.00  0.00    -0.033 C  
HETATM   13  O   UNL     1      -7.216   2.480  66.423  1.00  0.00    -0.062 OA 
HETATM   14  H   UNL     1      -7.147   1.875  65.695  1.00  0.00     0.000 HD 
BRANCH  12  15
HETATM   15  C   UNL     1      -6.692   4.306  64.902  1.00  0.00    -0.048 C  
BRANCH  15  16
HETATM   16  N   UNL     1      -8.035   4.907  64.960  1.00  0.00    -0.096 NA 
HETATM   17  H   UNL     1      -8.413   4.908  65.907  1.00  0.00     0.000 HD 
BRANCH  16  18
HETATM   18  C   UNL     1      -8.011   6.246  64.381  1.00  0.00    -0.113 C  
BRANCH  18  19
HETATM   19  C   UNL     1      -8.499   7.269  65.404  1.00  0.00    -0.096 C  
BRANCH  19  20
HETATM   20  C   UNL     1      -9.438   6.602  66.408  1.00  0.00    -0.166 C  
BRANCH  20  21
HETATM   21  C   UNL     1     -10.384   7.620  67.036  1.00  0.00    -0.400 C  
BRANCH  21  22
HETATM   22  C   UNL     1     -10.768   7.214  68.455  1.00  0.00    -0.191 C  
BRANCH  22  23
HETATM   23  C   UNL     1     -10.113   8.136  69.471  1.00  0.00    -0.193 C  
BRANCH  23  24
HETATM   24  O   UNL     1     -10.046   9.448  68.924  1.00  0.00    -0.177 OA 
BRANCH  24  25
HETATM   25  C   UNL     1     -11.132  10.245  69.392  1.00  0.00    -0.252 C  
BRANCH  25  26
HETATM   26  C   UNL     1     -11.849  10.877  68.211  1.00  0.00    -0.081 C  
BRANCH  26  27
HETATM   27  O   UNL     1     -11.703  12.296  68.289  1.00  0.00    -0.305 OA 
BRANCH  27  28
HETATM   28  C   UNL     1     -10.523  12.732  67.630  1.00  0.00    -0.220 C  
BRANCH  28  29
HETATM   29  C   UNL     1     -10.588  12.301  66.189  1.00  0.00    -0.281 A  
HETATM   30  C   UNL     1      -9.689  11.354  65.669  1.00  0.00    -0.231 A  
HETATM   31 CL   UNL     1      -8.413  10.672  66.619  1.00  0.00    -0.133 Cl 
HETATM   32  C   UNL     1      -9.786  10.918  64.340  1.00  0.00    -0.365 A  
HETATM   33  C   UNL     1     -10.766  11.438  63.502  1.00  0.00    -0.453 A  
HETATM   34  C   UNL     1     -11.632  12.416  63.982  1.00  0.00    -0.488 A  
HETATM   35  C   UNL     1     -11.537  12.853  65.309  1.00  0.00    -0.340 A  
HETATM   36 CL   UNL     1     -12.638  14.095  65.801  1.00  0.00    -0.506 Cl 
ENDBRANCH  28  29
ENDBRANCH  27  28
ENDBRANCH  26  27
ENDBRANCH  25  26
ENDBRANCH  24  25
ENDBRANCH  23  24
ENDBRANCH  22  23
ENDBRANCH  21  22
ENDBRANCH  20  21
ENDBRANCH  19  20
ENDBRANCH  18  19
ENDBRANCH  16  18
ENDBRANCH  15  16
ENDBRANCH  12  15
ENDBRANCH  10  12
ENDBRANCH   2   4
TORSDOF 16
ENDMDL
MODEL      402
REMARK 921   NORMALIZED FREE ENERGY PREDICTED BY IDOCK:   -3.13 KCAL/MOL
REMARK 922        TOTAL FREE ENERGY PREDICTED BY IDOCK:   -8.14 KCAL/MOL
REMARK 923 INTER-LIGAND FREE ENERGY PREDICTED BY IDOCK:   -7.02 KCAL/MOL
REMARK 924 INTRA-LIGAND FREE ENERGY PREDICTED BY IDOCK:   -1.12 KCAL/MOL
REMARK 927      BINDING AFFINITY PREDICTED BY RF-SCORE:    0.00 PKD
ROOT
HETATM    1  O   UNL     1     -11.872  13.742  65.772  1.00  0.00    -0.340 OA 
HETATM    2  C   UNL     1     -11.784  12.330  65.966  1.00  0.00    -0.388 C  
HETATM    3  H   UNL     1     -12.520  14.126  66.352  1.00  0.00     0.000 HD 
ENDROOT
BRANCH   2   4
HETATM    4  C   UNL     1     -10.757  11.722  65.046  1.00  0.00    -0.344 A  
HETATM    5  C   UNL     1     -10.748  11.924  63.662  1.00  0.00    -0.442 A  
HETATM    6  O   UNL     1     -11.640  12.759  63.049  1.00  0.00    -0.800 OA 
HETATM    7  C   UNL     1      -9.824  11.285  62.840  1.00  0.00    -0.317 A  
HETATM    8  C   UNL     1      -8.876  10.429  63.396  1.00  0.00    -0.218 A  
HETATM    9  H   UNL     1     -11.634  12.897  62.109  1.00  0.00     0.000 HD 
HETATM   10  C   UNL     1      -8.850  10.200  64.778  1.00  0.00    -0.219 A  
HETATM   11  C   UNL     1      -9.804  10.841  65.588  1.00  0.00    -0.299 A  
BRANCH  10  12
HETATM   12  C   UNL     1      -7.857   9.213  65.355  1.00  0.00    -0.100 C  
HETATM   13  O   UNL     1      -7.423   8.297  64.341  1.00  0.00    -0.091 OA 
HETATM   14  H   UNL     1      -6.799   7.678  64.702  1.00  0.00     0.000 HD 
BRANCH  12  15
HETATM   15  C   UNL     1      -6.636   9.957  65.937  1.00  0.00    -0.091 C  
BRANCH  15  16
HETATM   16  N   UNL     1      -6.862  11.413  65.967  1.00  0.00    -0.367 NA 
HETATM   17  H   UNL     1      -7.850  11.644  66.061  1.00  0.00     0.000 HD 
BRANCH  16  18
HETATM   18  C   UNL     1      -6.057  12.023  67.020  1.00  0.00    -0.132 C  
BRANCH  18  19
HETATM   19  C   UNL     1      -6.754  11.873  68.369  1.00  0.00    -0.067 C  
BRANCH  19  20
HETATM   20  C   UNL     1      -8.270  11.845  68.178  1.00  0.00    -0.158 C  
BRANCH  20  21
HETATM   21  C   UNL     1      -8.908  10.733  69.002  1.00  0.00    -0.135 C  
BRANCH  21  22
HETATM   22  C   UNL     1      -7.862   9.986  69.824  1.00  0.00    -0.185 C  
BRANCH  22  23
HETATM   23  C   UNL     1      -7.442   8.707  69.118  1.00  0.00    -0.083 C  
BRANCH  23  24
HETATM   24  O   UNL     1      -8.588   8.118  68.515  1.00  0.00    -0.129 OA 
BRANCH  24  25
HETATM   25  C   UNL     1      -8.410   6.712  68.359  1.00  0.00    -0.122 C  
BRANCH  25  26
HETATM   26  C   UNL     1      -7.120   6.281  69.037  1.00  0.00    -0.081 C  
BRANCH  26  27
HETATM   27  O   UNL     1      -7.404   5.197  69.922  1.00  0.00    -0.057 OA 
BRANCH  27  28
HETATM   28  C   UNL     1      -7.202   5.568  71.278  1.00  0.00    -0.072 C  
BRANCH  28  29
HETATM   29  C   UNL     1      -8.509   6.049  71.846  1.00  0.00    -0.133 A  
HETATM   30  C   UNL     1      -8.602   7.271  72.535  1.00  0.00    -0.111 A  
HETATM   31 CL   UNL     1      -7.220   8.269  72.834  1.00  0.00    -0.145 Cl 
HETATM   32  C   UNL     1      -9.832   7.738  73.017  1.00  0.00    -0.344 A  
HETATM   33  C   UNL     1     -10.986   6.983  72.842  1.00  0.00    -0.337 A  
HETATM   34  C   UNL     1     -10.908   5.746  72.211  1.00  0.00    -0.298 A  
HETATM   35  C   UNL     1      -9.679   5.277  71.728  1.00  0.00    -0.158 A  
HETATM   36 CL   UNL     1      -9.681   3.712  70.987  1.00  0.00    -0.255 Cl 
ENDBRANCH  28  29
ENDBRANCH  27  28
ENDBRANCH  26  27
ENDBRANCH  25  26
ENDBRANCH  24  25
ENDBRANCH  23  24
ENDBRANCH  22  23
ENDBRANCH  21  22
ENDBRANCH  20  21
ENDBRANCH  19  20
ENDBRANCH  18  19
ENDBRANCH  16  18
ENDBRANCH  15  16
ENDBRANCH  12  15
ENDBRANCH  10  12
ENDBRANCH   2   4
TORSDOF 16
ENDMDL
MODEL      403
REMARK 921   NORMALIZED FREE ENERGY PREDICTED BY IDOCK:   -3.10 KCAL/MOL
REMARK 922        TOTAL FREE ENERGY PREDICTED BY IDOCK:   -8.07 KCAL/MOL
REMARK 923 INTER-LIGAND FREE ENERGY PREDICTED BY IDOCK:   -7.53 KCAL/MOL
REMARK 924 INTRA-LIGAND FREE ENERGY PREDICTED BY IDOCK:   -0.54 KCAL/MOL
REMARK 927      BINDING AFFINITY PREDICTED BY RF-SCORE:    0.00 PKD
ROOT
HETATM    1  O   UNL     1     -10.259   4.877  69.091  1.00  0.00    -0.195 OA 
HETATM    2  C   UNL     1      -9.915   4.391  70.389  1.00  0.00    -0.183 C  
HETATM    3  H   UNL     1     -10.170   4.194  68.437  1.00  0.00     0.000 HD 
ENDROOT
BRANCH   2   4
HETATM    4  C   UNL     1     -10.056   5.474  71.427  1.00  0.00    -0.258 A  
HETATM    5  C   UNL     1     -10.212   5.216  72.793  1.00  0.00    -0.179 A  
HETATM    6  O   UNL     1     -10.174   3.945  73.296  1.00  0.00    -0.133 OA 
HETATM    7  C   UNL     1     -10.410   6.244  73.709  1.00  0.00    -0.301 A  
HETATM    8  C   UNL     1     -10.449   7.566  73.272  1.00  0.00    -0.426 A  
HETATM    9  H   UNL     1     -10.279   3.769  74.223  1.00  0.00     0.000 HD 
HETATM   10  C   UNL     1     -10.295   7.869  71.912  1.00  0.00    -0.271 A  
HETATM   11  C   UNL     1     -10.113   6.813  71.001  1.00  0.00    -0.206 A  
BRANCH  10  12
HETATM   12  C   UNL     1     -10.408   9.306  71.447  1.00  0.00    -0.321 C  
HETATM   13  O   UNL     1      -9.150   9.758  70.927  1.00  0.00    -0.343 OA 
HETATM   14  H   UNL     1      -9.222  10.660  70.635  1.00  0.00     0.000 HD 
BRANCH  12  15
HETATM   15  C   UNL     1     -11.494   9.433  70.358  1.00  0.00    -0.223 C  
BRANCH  15  16
HETATM   16  N   UNL     1     -12.364  10.596  70.602  1.00  0.00    -0.339 NA 
HETATM   17  H   UNL     1     -12.277  10.944  71.557  1.00  0.00     0.000 HD 
BRANCH  16  18
HETATM   18  C   UNL     1     -12.098  11.638  69.616  1.00  0.00    -0.280 C  
BRANCH  18  19
HETATM   19  C   UNL     1     -11.568  11.017  68.326  1.00  0.00    -0.354 C  
BRANCH  19  20
HETATM   20  C   UNL     1     -10.771  12.053  67.533  1.00  0.00    -0.262 C  
BRANCH  20  21
HETATM   21  C   UNL     1      -9.972  11.393  66.415  1.00  0.00    -0.247 C  
BRANCH  21  22
HETATM   22  C   UNL     1     -10.849  11.120  65.197  1.00  0.00    -0.229 C  
BRANCH  22  23
HETATM   23  C   UNL     1     -11.840  12.254  64.986  1.00  0.00    -0.357 C  
BRANCH  23  24
HETATM   24  O   UNL     1     -11.241  13.237  64.149  1.00  0.00    -0.378 OA 
BRANCH  24  25
HETATM   25  C   UNL     1     -10.898  14.399  64.901  1.00  0.00    -0.416 C  
BRANCH  25  26
HETATM   26  C   UNL     1     -12.032  15.407  64.832  1.00  0.00    -0.017 C  
BRANCH  26  27
HETATM   27  O   UNL     1     -11.641  16.590  65.529  1.00  0.00     0.450 OA 
BRANCH  27  28
HETATM   28  C   UNL     1     -10.512  16.353  66.357  1.00  0.00    -0.286 C  
BRANCH  28  29
HETATM   29  C   UNL     1     -10.379  17.494  67.329  1.00  0.00    -0.337 A  
HETATM   30  C   UNL     1     -10.516  18.829  66.912  1.00  0.00    -0.414 A  
HETATM   31 CL   UNL     1     -10.778  19.257  65.256  1.00  0.00    -0.028 Cl 
HETATM   32  C   UNL     1     -10.443  19.885  67.831  1.00  0.00    -0.505 A  
HETATM   33  C   UNL     1     -10.207  19.628  69.178  1.00  0.00    -0.293 A  
HETATM   34  C   UNL     1     -10.015  18.317  69.602  1.00  0.00     0.396 A  
HETATM   35  C   UNL     1     -10.088  17.260  68.686  1.00  0.00    -0.341 A  
HETATM   36 CL   UNL     1      -9.803  15.670  69.307  1.00  0.00    -0.250 Cl 
ENDBRANCH  28  29
ENDBRANCH  27  28
ENDBRANCH  26  27
ENDBRANCH  25  26
ENDBRANCH  24  25
ENDBRANCH  23  24
ENDBRANCH  22  23
ENDBRANCH  21  22
ENDBRANCH  20  21
ENDBRANCH  19  20
ENDBRANCH  18  19
ENDBRANCH  16  18
ENDBRANCH  15  16
ENDBRANCH  12  15
ENDBRANCH  10  12
ENDBRANCH   2   4
TORSDOF 16
ENDMDL
MODEL      404
REMARK 921   NORMALIZED FREE ENERGY PREDICTED BY IDOCK:   -3.07 KCAL/MOL
REMARK 922        TOTAL FREE ENERGY PREDICTED BY IDOCK:   -8.01 KCAL/MOL
REMARK 923 INTER-LIGAND FREE ENERGY PREDICTED BY IDOCK:   -6.96 KCAL/MOL
REMARK 924 INTRA-LIGAND FREE ENERGY PREDICTED BY IDOCK:   -1.05 KCAL/MOL
REMARK 927      BINDING AFFINITY PREDICTED BY RF-SCORE:    0.00 PKD
ROOT
HETATM    1  O   UNL     1      -7.398   5.088  69.528  1.00  0.00    -0.055 OA 
HETATM    2  C   UNL     1      -7.053   4.682  70.852  1.00  0.00    -0.037 C  
HETATM    3  H   UNL     1      -6.621   5.257  69.009  1.00  0.00     0.000 HD 
ENDROOT
BRANCH   2   4
HETATM    4  C   UNL     1      -8.286   4.413  71.675  1.00  0.00    -0.104 A  
HETATM    5  C   UNL     1      -8.718   3.127  72.017  1.00  0.00    -0.081 A  
HETATM    6  O   UNL     1      -7.998   2.013  71.686  1.00  0.00    -0.040 OA 
HETATM    7  C   UNL     1      -9.903   2.920  72.717  1.00  0.00    -0.197 A  
HETATM    8  C   UNL     1     -10.683   4.009  73.099  1.00  0.00    -0.272 A  
HETATM    9  H   UNL     1      -8.291   1.140  71.918  1.00  0.00     0.000 HD 
HETATM   10  C   UNL     1     -10.286   5.315  72.777  1.00  0.00    -0.228 A  
HETATM   11  C   UNL     1      -9.094   5.500  72.054  1.00  0.00    -0.150 A  
BRANCH  10  12
HETATM   12  C   UNL     1     -11.181   6.481  73.141  1.00  0.00    -0.082 C  
HETATM   13  O   UNL     1     -10.619   7.213  74.239  1.00  0.00    -0.545 OA 
HETATM   14  H   UNL     1     -11.181   7.944  74.467  1.00  0.00     0.000 HD 
BRANCH  12  15
HETATM   15  C   UNL     1     -11.357   7.420  71.929  1.00  0.00    -0.260 C  
BRANCH  15  16
HETATM   16  N   UNL     1     -11.648   6.661  70.701  1.00  0.00    -0.362 NA 
HETATM   17  H   UNL     1     -12.618   6.349  70.666  1.00  0.00     0.000 HD 
BRANCH  16  18
HETATM   18  C   UNL     1     -11.285   7.448  69.527  1.00  0.00     0.008 C  
BRANCH  18  19
HETATM   19  C   UNL     1     -10.347   6.647  68.627  1.00  0.00    -0.208 C  
BRANCH  19  20
HETATM   20  C   UNL     1     -10.840   6.692  67.181  1.00  0.00    -0.471 C  
BRANCH  20  21
HETATM   21  C   UNL     1      -9.932   5.880  66.265  1.00  0.00    -0.107 C  
BRANCH  21  22
HETATM   22  C   UNL     1      -8.461   6.135  66.580  1.00  0.00    -0.119 C  
BRANCH  22  23
HETATM   23  C   UNL     1      -7.789   6.877  65.436  1.00  0.00    -0.115 C  
BRANCH  23  24
HETATM   24  O   UNL     1      -8.464   8.114  65.233  1.00  0.00    -0.157 OA 
BRANCH  24  25
HETATM   25  C   UNL     1      -7.667   9.204  65.693  1.00  0.00    -0.094 C  
BRANCH  25  26
HETATM   26  C   UNL     1      -8.543  10.204  66.429  1.00  0.00    -0.130 C  
BRANCH  26  27
HETATM   27  O   UNL     1      -9.451  10.794  65.499  1.00  0.00    -0.188 OA 
BRANCH  27  28
HETATM   28  C   UNL     1     -10.683  11.129  66.120  1.00  0.00    -0.225 C  
BRANCH  28  29
HETATM   29  C   UNL     1     -10.984  12.577  65.844  1.00  0.00    -0.314 A  
HETATM   30  C   UNL     1     -10.571  13.591  66.726  1.00  0.00    -0.272 A  
HETATM   31 CL   UNL     1      -9.752  13.245  68.212  1.00  0.00    -0.226 Cl 
HETATM   32  C   UNL     1     -10.809  14.941  66.438  1.00  0.00    -0.325 A  
HETATM   33  C   UNL     1     -11.485  15.302  65.278  1.00  0.00    -0.217 A  
HETATM   34  C   UNL     1     -11.950  14.313  64.419  1.00  0.00    -0.476 A  
HETATM   35  C   UNL     1     -11.713  12.962  64.704  1.00  0.00    -0.359 A  
HETATM   36 CL   UNL     1     -12.360  11.806  63.590  1.00  0.00    -0.550 Cl 
ENDBRANCH  28  29
ENDBRANCH  27  28
ENDBRANCH  26  27
ENDBRANCH  25  26
ENDBRANCH  24  25
ENDBRANCH  23  24
ENDBRANCH  22  23
ENDBRANCH  21  22
ENDBRANCH  20  21
ENDBRANCH  19  20
ENDBRANCH  18  19
ENDBRANCH  16  18
ENDBRANCH  15  16
ENDBRANCH  12  15
ENDBRANCH  10  12
ENDBRANCH   2   4
TORSDOF 16
ENDMDL
MODEL      405
REMARK 921   NORMALIZED FREE ENERGY PREDICTED BY IDOCK:   -3.03 KCAL/MOL
REMARK 922        TOTAL FREE ENERGY PREDICTED BY IDOCK:   -7.93 KCAL/MOL
REMARK 923 INTER-LIGAND FREE ENERGY PREDICTED BY IDOCK:   -6.96 KCAL/MOL
REMARK 924 INTRA-LIGAND FREE ENERGY PREDICTED BY IDOCK:   -0.97 KCAL/MOL
REMARK 927      BINDING AFFINITY PREDICTED BY RF-SCORE:    0.00 PKD
ROOT
HETATM    1  O   UNL     1     -10.393  20.371  68.797  1.00  0.00    -0.252 OA 
HETATM    2  C   UNL     1     -10.790  19.562  67.689  1.00  0.00    -0.316 C  
HETATM    3  H   UNL     1     -11.095  20.955  69.062  1.00  0.00     0.000 HD 
ENDROOT
BRANCH   2   4
HETATM    4  C   UNL     1      -9.677  18.637  67.270  1.00  0.00    -0.326 A  
HETATM    5  C   UNL     1      -8.412  19.086  66.872  1.00  0.00    -0.290 A  
HETATM    6  O   UNL     1      -8.073  20.410  66.906  1.00  0.00    -0.388 OA 
HETATM    7  C   UNL     1      -7.436  18.202  66.423  1.00  0.00    -0.287 A  
HETATM    8  C   UNL     1      -7.706  16.836  66.371  1.00  0.00    -0.345 A  
HETATM    9  H   UNL     1      -7.215  20.715  66.636  1.00  0.00     0.000 HD 
HETATM   10  C   UNL     1      -8.959  16.345  66.763  1.00  0.00    -0.264 A  
HETATM   11  C   UNL     1      -9.938  17.258  67.196  1.00  0.00    -0.282 A  
BRANCH  10  12
HETATM   12  C   UNL     1      -9.257  14.866  66.635  1.00  0.00    -0.276 C  
HETATM   13  O   UNL     1      -8.991  14.198  67.876  1.00  0.00    -0.171 OA 
HETATM   14  H   UNL     1      -9.178  13.270  67.796  1.00  0.00     0.000 HD 
BRANCH  12  15
HETATM   15  C   UNL     1     -10.732  14.648  66.236  1.00  0.00    -0.316 C  
BRANCH  15  16
HETATM   16  N   UNL     1     -10.898  13.411  65.455  1.00  0.00    -0.288 NA 
HETATM   17  H   UNL     1     -10.070  12.818  65.498  1.00  0.00     0.000 HD 
BRANCH  16  18
HETATM   18  C   UNL     1     -12.099  12.703  65.885  1.00  0.00    -0.396 C  
BRANCH  18  19
HETATM   19  C   UNL     1     -11.831  11.956  67.188  1.00  0.00    -0.216 C  
BRANCH  19  20
HETATM   20  C   UNL     1     -10.677  10.970  67.001  1.00  0.00    -0.319 C  
BRANCH  20  21
HETATM   21  C   UNL     1     -10.815   9.779  67.941  1.00  0.00    -0.298 C  
BRANCH  21  22
HETATM   22  C   UNL     1     -10.115  10.041  69.271  1.00  0.00    -0.226 C  
BRANCH  22  23
HETATM   23  C   UNL     1      -9.360   8.805  69.732  1.00  0.00    -0.163 C  
BRANCH  23  24
HETATM   24  O   UNL     1     -10.287   7.735  69.891  1.00  0.00    -0.212 OA 
BRANCH  24  25
HETATM   25  C   UNL     1      -9.736   6.709  70.714  1.00  0.00    -0.179 C  
BRANCH  25  26
HETATM   26  C   UNL     1     -10.023   5.350  70.098  1.00  0.00    -0.232 C  
BRANCH  26  27
HETATM   27  O   UNL     1      -9.675   5.388  68.714  1.00  0.00    -0.126 OA 
BRANCH  27  28
HETATM   28  C   UNL     1      -8.423   4.761  68.476  1.00  0.00    -0.093 C  
BRANCH  28  29
HETATM   29  C   UNL     1      -7.981   5.082  67.074  1.00  0.00    -0.103 A  
HETATM   30  C   UNL     1      -7.445   6.339  66.746  1.00  0.00    -0.087 A  
HETATM   31 CL   UNL     1      -7.318   7.620  67.904  1.00  0.00    -0.100 Cl 
HETATM   32  C   UNL     1      -6.988   6.614  65.450  1.00  0.00    -0.056 A  
HETATM   33  C   UNL     1      -7.080   5.648  64.454  1.00  0.00    -0.053 A  
HETATM   34  C   UNL     1      -7.656   4.416  64.744  1.00  0.00    -0.073 A  
HETATM   35  C   UNL     1      -8.114   4.138  66.039  1.00  0.00    -0.098 A  
HETATM   36 CL   UNL     1      -8.844   2.589  66.291  1.00  0.00    -0.127 Cl 
ENDBRANCH  28  29
ENDBRANCH  27  28
ENDBRANCH  26  27
ENDBRANCH  25  26
ENDBRANCH  24  25
ENDBRANCH  23  24
ENDBRANCH  22  23
ENDBRANCH  21  22
ENDBRANCH  20  21
ENDBRANCH  19  20
ENDBRANCH  18  19
ENDBRANCH  16  18
ENDBRANCH  15  16
ENDBRANCH  12  15
ENDBRANCH  10  12
ENDBRANCH   2   4
TORSDOF 16
ENDMDL
MODEL      406
REMARK 921   NORMALIZED FREE ENERGY PREDICTED BY IDOCK:   -3.02 KCAL/MOL
REMARK 922        TOTAL FREE ENERGY PREDICTED BY IDOCK:   -7.91 KCAL/MOL
REMARK 923 INTER-LIGAND FREE ENERGY PREDICTED BY IDOCK:   -6.50 KCAL/MOL
REMARK 924 INTRA-LIGAND FREE ENERGY PREDICTED BY IDOCK:   -1.41 KCAL/MOL
REMARK 927      BINDING AFFINITY PREDICTED BY RF-SCORE:    0.00 PKD
ROOT
HETATM    1  O   UNL     1      -6.331   4.154  72.469  1.00  0.00    -0.019 OA 
HETATM    2  C   UNL     1      -7.520   3.542  71.967  1.00  0.00    -0.056 C  
HETATM    3  H   UNL     1      -5.574   3.600  72.324  1.00  0.00     0.000 HD 
ENDROOT
BRANCH   2   4
HETATM    4  C   UNL     1      -8.720   4.423  72.198  1.00  0.00    -0.124 A  
HETATM    5  C   UNL     1      -9.683   4.169  73.181  1.00  0.00    -0.125 A  
HETATM    6  O   UNL     1      -9.560   3.129  74.060  1.00  0.00    -0.091 OA 
HETATM    7  C   UNL     1     -10.815   4.968  73.313  1.00  0.00    -0.356 A  
HETATM    8  C   UNL     1     -11.003   6.053  72.460  1.00  0.00    -0.300 A  
HETATM    9  H   UNL     1     -10.213   2.956  74.727  1.00  0.00     0.000 HD 
HETATM   10  C   UNL     1     -10.061   6.343  71.463  1.00  0.00    -0.215 A  
HETATM   11  C   UNL     1      -8.934   5.512  71.335  1.00  0.00    -0.150 A  
BRANCH  10  12
HETATM   12  C   UNL     1     -10.317   7.485  70.501  1.00  0.00    -0.215 C  
HETATM   13  O   UNL     1      -9.107   7.834  69.814  1.00  0.00    -0.146 OA 
HETATM   14  H   UNL     1      -9.267   8.550  69.211  1.00  0.00     0.000 HD 
BRANCH  12  15
HETATM   15  C   UNL     1     -11.399   7.090  69.475  1.00  0.00    -0.092 C  
BRANCH  15  16
HETATM   16  N   UNL     1     -10.933   6.004  68.596  1.00  0.00    -0.309 NA 
HETATM   17  H   UNL     1     -11.444   5.136  68.757  1.00  0.00     0.000 HD 
BRANCH  16  18
HETATM   18  C   UNL     1     -10.999   6.424  67.200  1.00  0.00    -0.399 C  
BRANCH  18  19
HETATM   19  C   UNL     1     -10.231   5.443  66.319  1.00  0.00    -0.234 C  
BRANCH  19  20
HETATM   20  C   UNL     1      -8.752   5.436  66.704  1.00  0.00    -0.115 C  
BRANCH  20  21
HETATM   21  C   UNL     1      -7.863   5.521  65.469  1.00  0.00    -0.099 C  
BRANCH  21  22
HETATM   22  C   UNL     1      -6.821   6.626  65.615  1.00  0.00    -0.048 C  
BRANCH  22  23
HETATM   23  C   UNL     1      -7.476   7.925  66.055  1.00  0.00    -0.078 C  
BRANCH  23  24
HETATM   24  O   UNL     1      -6.462   8.900  66.272  1.00  0.00    -0.063 OA 
BRANCH  24  25
HETATM   25  C   UNL     1      -7.016  10.090  66.830  1.00  0.00    -0.089 C  
BRANCH  25  26
HETATM   26  C   UNL     1      -8.532  10.046  66.725  1.00  0.00    -0.125 C  
BRANCH  26  27
HETATM   27  O   UNL     1      -9.039  11.376  66.835  1.00  0.00    -0.166 OA 
BRANCH  27  28
HETATM   28  C   UNL     1     -10.456  11.400  66.733  1.00  0.00    -0.244 C  
BRANCH  28  29
HETATM   29  C   UNL     1     -10.974  12.588  67.497  1.00  0.00    -0.288 A  
HETATM   30  C   UNL     1     -11.294  12.496  68.863  1.00  0.00    -0.297 A  
HETATM   31 CL   UNL     1     -11.180  11.008  69.740  1.00  0.00    -0.335 Cl 
HETATM   32  C   UNL     1     -11.728  13.619  69.581  1.00  0.00    -0.383 A  
HETATM   33  C   UNL     1     -11.872  14.846  68.944  1.00  0.00    -0.334 A  
HETATM   34  C   UNL     1     -11.613  14.946  67.581  1.00  0.00    -0.357 A  
HETATM   35  C   UNL     1     -11.179  13.826  66.861  1.00  0.00    -0.313 A  
HETATM   36 CL   UNL     1     -10.914  14.046  65.164  1.00  0.00    -0.334 Cl 
ENDBRANCH  28  29
ENDBRANCH  27  28
ENDBRANCH  26  27
ENDBRANCH  25  26
ENDBRANCH  24  25
ENDBRANCH  23  24
ENDBRANCH  22  23
ENDBRANCH  21  22
ENDBRANCH  20  21
ENDBRANCH  19  20
ENDBRANCH  18  19
ENDBRANCH  16  18
ENDBRANCH  15  16
ENDBRANCH  12  15
ENDBRANCH  10  12
ENDBRANCH   2   4
TORSDOF 16
ENDMDL
MODEL      407
REMARK 921   NORMALIZED FREE ENERGY PREDICTED BY IDOCK:   -2.99 KCAL/MOL
REMARK 922        TOTAL FREE ENERGY PREDICTED BY IDOCK:   -7.85 KCAL/MOL
REMARK 923 INTER-LIGAND FREE ENERGY PREDICTED BY IDOCK:   -6.68 KCAL/MOL
REMARK 924 INTRA-LIGAND FREE ENERGY PREDICTED BY IDOCK:   -1.17 KCAL/MOL
REMARK 927      BINDING AFFINITY PREDICTED BY RF-SCORE:    0.00 PKD
ROOT
HETATM    1  O   UNL     1      -9.980   2.618  62.994  1.00  0.00    -0.096 OA 
HETATM    2  C   UNL     1     -10.720   3.568  63.761  1.00  0.00    -0.256 C  
HETATM    3  H   UNL     1     -10.530   2.204  62.340  1.00  0.00     0.000 HD 
ENDROOT
BRANCH   2   4
HETATM    4  C   UNL     1      -9.847   4.224  64.799  1.00  0.00    -0.167 A  
HETATM    5  C   UNL     1      -8.834   5.139  64.485  1.00  0.00    -0.060 A  
HETATM    6  O   UNL     1      -8.614   5.560  63.204  1.00  0.00    -0.268 OA 
HETATM    7  C   UNL     1      -8.003   5.667  65.469  1.00  0.00    -0.113 A  
HETATM    8  C   UNL     1      -8.176   5.293  66.799  1.00  0.00    -0.108 A  
HETATM    9  H   UNL     1      -7.927   6.180  62.991  1.00  0.00     0.000 HD 
HETATM   10  C   UNL     1      -9.179   4.381  67.156  1.00  0.00    -0.157 A  
HETATM   11  C   UNL     1      -9.997   3.846  66.145  1.00  0.00    -0.070 A  
BRANCH  10  12
HETATM   12  C   UNL     1      -9.308   3.934  68.597  1.00  0.00    -0.164 C  
HETATM   13  O   UNL     1      -8.168   3.149  68.975  1.00  0.00    -0.059 OA 
HETATM   14  H   UNL     1      -8.249   2.869  69.879  1.00  0.00     0.000 HD 
BRANCH  12  15
HETATM   15  C   UNL     1      -9.425   5.158  69.530  1.00  0.00    -0.146 C  
BRANCH  15  16
HETATM   16  N   UNL     1     -10.712   5.850  69.347  1.00  0.00    -0.306 NA 
HETATM   17  H   UNL     1     -11.268   5.855  70.202  1.00  0.00     0.000 HD 
BRANCH  16  18
HETATM   18  C   UNL     1     -10.490   7.197  68.833  1.00  0.00    -0.207 C  
BRANCH  18  19
HETATM   19  C   UNL     1      -9.515   7.949  69.736  1.00  0.00    -0.163 C  
BRANCH  19  20
HETATM   20  C   UNL     1      -8.617   8.858  68.898  1.00  0.00    -0.135 C  
BRANCH  20  21
HETATM   21  C   UNL     1      -8.210  10.101  69.680  1.00  0.00    -0.176 C  
BRANCH  21  22
HETATM   22  C   UNL     1      -7.324  11.017  68.840  1.00  0.00    -0.111 C  
BRANCH  22  23
HETATM   23  C   UNL     1      -8.156  11.778  67.820  1.00  0.00    -0.143 C  
BRANCH  23  24
HETATM   24  O   UNL     1      -7.447  12.950  67.434  1.00  0.00    -0.148 OA 
BRANCH  24  25
HETATM   25  C   UNL     1      -7.069  13.711  68.578  1.00  0.00    -0.107 C  
BRANCH  25  26
HETATM   26  C   UNL     1      -7.845  15.017  68.605  1.00  0.00    -0.138 C  
BRANCH  26  27
HETATM   27  O   UNL     1      -7.310  15.892  67.611  1.00  0.00    -0.132 OA 
BRANCH  27  28
HETATM   28  C   UNL     1      -8.237  16.107  66.556  1.00  0.00    -0.308 C  
BRANCH  28  29
HETATM   29  C   UNL     1      -8.793  17.499  66.680  1.00  0.00    -0.284 A  
HETATM   30  C   UNL     1     -10.058  17.734  67.246  1.00  0.00    -0.337 A  
HETATM   31 CL   UNL     1     -11.086  16.446  67.775  1.00  0.00    -0.256 Cl 
HETATM   32  C   UNL     1     -10.549  19.037  67.405  1.00  0.00    -0.559 A  
HETATM   33  C   UNL     1      -9.796  20.126  66.980  1.00  0.00    -0.595 A  
HETATM   34  C   UNL     1      -8.565  19.914  66.368  1.00  0.00    -0.386 A  
HETATM   35  C   UNL     1      -8.072  18.612  66.208  1.00  0.00    -0.244 A  
HETATM   36 CL   UNL     1      -6.547  18.451  65.407  1.00  0.00    -0.284 Cl 
ENDBRANCH  28  29
ENDBRANCH  27  28
ENDBRANCH  26  27
ENDBRANCH  25  26
ENDBRANCH  24  25
ENDBRANCH  23  24
ENDBRANCH  22  23
ENDBRANCH  21  22
ENDBRANCH  20  21
ENDBRANCH  19  20
ENDBRANCH  18  19
ENDBRANCH  16  18
ENDBRANCH  15  16
ENDBRANCH  12  15
ENDBRANCH  10  12
ENDBRANCH   2   4
TORSDOF 16
ENDMDL
MODEL      408
REMARK 921   NORMALIZED FREE ENERGY PREDICTED BY IDOCK:   -2.98 KCAL/MOL
REMARK 922        TOTAL FREE ENERGY PREDICTED BY IDOCK:   -7.84 KCAL/MOL
REMARK 923 INTER-LIGAND FREE ENERGY PREDICTED BY IDOCK:   -6.46 KCAL/MOL
REMARK 924 INTRA-LIGAND FREE ENERGY PREDICTED BY IDOCK:   -1.38 KCAL/MOL
REMARK 927      BINDING AFFINITY PREDICTED BY RF-SCORE:    0.00 PKD
ROOT
HETATM    1  O   UNL     1      -6.332   3.784  73.652  1.00  0.00    -0.026 OA 
HETATM    2  C   UNL     1      -7.510   3.137  73.169  1.00  0.00    -0.051 C  
HETATM    3  H   UNL     1      -5.622   3.162  73.763  1.00  0.00     0.000 HD 
ENDROOT
BRANCH   2   4
HETATM    4  C   UNL     1      -8.635   4.123  72.992  1.00  0.00    -0.100 A  
HETATM    5  C   UNL     1      -9.869   4.007  73.641  1.00  0.00    -0.115 A  
HETATM    6  O   UNL     1     -10.117   3.015  74.549  1.00  0.00    -0.125 OA 
HETATM    7  C   UNL     1     -10.907   4.901  73.394  1.00  0.00    -0.360 A  
HETATM    8  C   UNL     1     -10.724   5.945  72.490  1.00  0.00    -0.274 A  
HETATM    9  H   UNL     1     -10.954   2.935  74.989  1.00  0.00     0.000 HD 
HETATM   10  C   UNL     1      -9.502   6.098  71.821  1.00  0.00    -0.162 A  
HETATM   11  C   UNL     1      -8.473   5.173  72.071  1.00  0.00    -0.126 A  
BRANCH  10  12
HETATM   12  C   UNL     1      -9.345   7.198  70.791  1.00  0.00    -0.160 C  
HETATM   13  O   UNL     1      -8.252   6.900  69.912  1.00  0.00    -0.123 OA 
HETATM   14  H   UNL     1      -8.153   7.590  69.266  1.00  0.00     0.000 HD 
BRANCH  12  15
HETATM   15  C   UNL     1     -10.643   7.352  69.970  1.00  0.00    -0.232 C  
BRANCH  15  16
HETATM   16  N   UNL     1     -10.814   6.237  69.024  1.00  0.00    -0.302 NA 
HETATM   17  H   UNL     1     -11.657   5.697  69.218  1.00  0.00     0.000 HD 
BRANCH  16  18
HETATM   18  C   UNL     1     -10.788   6.734  67.652  1.00  0.00    -0.289 C  
BRANCH  18  19
HETATM   19  C   UNL     1     -10.431   5.604  66.690  1.00  0.00    -0.340 C  
BRANCH  19  20
HETATM   20  C   UNL     1      -9.205   4.847  67.200  1.00  0.00    -0.130 C  
BRANCH  20  21
HETATM   21  C   UNL     1      -8.343   4.354  66.043  1.00  0.00    -0.113 C  
BRANCH  21  22
HETATM   22  C   UNL     1      -6.970   5.018  66.056  1.00  0.00    -0.066 C  
BRANCH  22  23
HETATM   23  C   UNL     1      -7.107   6.532  66.048  1.00  0.00    -0.063 C  
BRANCH  23  24
HETATM   24  O   UNL     1      -7.719   6.931  64.825  1.00  0.00    -0.100 OA 
BRANCH  24  25
HETATM   25  C   UNL     1      -7.772   8.352  64.728  1.00  0.00    -0.109 C  
BRANCH  25  26
HETATM   26  C   UNL     1      -8.086   8.947  66.091  1.00  0.00    -0.114 C  
BRANCH  26  27
HETATM   27  O   UNL     1      -8.745  10.200  65.906  1.00  0.00    -0.138 OA 
BRANCH  27  28
HETATM   28  C   UNL     1     -10.083  10.022  65.464  1.00  0.00    -0.255 C  
BRANCH  28  29
HETATM   29  C   UNL     1     -10.815  11.329  65.602  1.00  0.00    -0.242 A  
HETATM   30  C   UNL     1     -11.000  12.183  64.501  1.00  0.00    -0.314 A  
HETATM   31 CL   UNL     1     -10.348  11.828  62.937  1.00  0.00    -0.202 Cl 
HETATM   32  C   UNL     1     -11.727  13.375  64.624  1.00  0.00    -0.406 A  
HETATM   33  C   UNL     1     -12.261  13.746  65.853  1.00  0.00    -0.501 A  
HETATM   34  C   UNL     1     -12.043  12.943  66.967  1.00  0.00    -0.296 A  
HETATM   35  C   UNL     1     -11.317  11.751  66.847  1.00  0.00    -0.320 A  
HETATM   36 CL   UNL     1     -11.073  10.838  68.297  1.00  0.00    -0.302 Cl 
ENDBRANCH  28  29
ENDBRANCH  27  28
ENDBRANCH  26  27
ENDBRANCH  25  26
ENDBRANCH  24  25
ENDBRANCH  23  24
ENDBRANCH  22  23
ENDBRANCH  21  22
ENDBRANCH  20  21
ENDBRANCH  19  20
ENDBRANCH  18  19
ENDBRANCH  16  18
ENDBRANCH  15  16
ENDBRANCH  12  15
ENDBRANCH  10  12
ENDBRANCH   2   4
TORSDOF 16
ENDMDL
MODEL      409
REMARK 921   NORMALIZED FREE ENERGY PREDICTED BY IDOCK:   -2.97 KCAL/MOL
REMARK 922        TOTAL FREE ENERGY PREDICTED BY IDOCK:   -7.83 KCAL/MOL
REMARK 923 INTER-LIGAND FREE ENERGY PREDICTED BY IDOCK:   -7.13 KCAL/MOL
REMARK 924 INTRA-LIGAND FREE ENERGY PREDICTED BY IDOCK:   -0.70 KCAL/MOL
REMARK 927      BINDING AFFINITY PREDICTED BY RF-SCORE:    0.00 PKD
ROOT
HETATM    1  O   UNL     1      -8.730   9.779  66.965  1.00  0.00    -0.133 OA 
HETATM    2  C   UNL     1      -8.331  10.985  66.313  1.00  0.00    -0.166 C  
HETATM    3  H   UNL     1      -8.109   9.534  67.640  1.00  0.00     0.000 HD 
ENDROOT
BRANCH   2   4
HETATM    4  C   UNL     1      -9.317  11.373  65.242  1.00  0.00    -0.192 A  
HETATM    5  C   UNL     1      -9.533  10.616  64.085  1.00  0.00    -0.281 A  
HETATM    6  O   UNL     1      -8.908   9.417  63.879  1.00  0.00    -0.270 OA 
HETATM    7  C   UNL     1     -10.400  11.047  63.086  1.00  0.00    -0.251 A  
HETATM    8  C   UNL     1     -11.082  12.253  63.231  1.00  0.00    -0.389 A  
HETATM    9  H   UNL     1      -9.054   8.903  63.095  1.00  0.00     0.000 HD 
HETATM   10  C   UNL     1     -10.895  13.041  64.375  1.00  0.00    -0.409 A  
HETATM   11  C   UNL     1     -10.000  12.596  65.364  1.00  0.00    -0.230 A  
BRANCH  10  12
HETATM   12  C   UNL     1     -11.592  14.382  64.483  1.00  0.00    -0.384 C  
HETATM   13  O   UNL     1     -12.980  14.194  64.793  1.00  0.00    -0.674 OA 
HETATM   14  H   UNL     1     -13.417  15.035  64.861  1.00  0.00     0.000 HD 
BRANCH  12  15
HETATM   15  C   UNL     1     -10.929  15.244  65.578  1.00  0.00    -0.359 C  
BRANCH  15  16
HETATM   16  N   UNL     1     -10.054  16.273  64.992  1.00  0.00    -0.410 NA 
HETATM   17  H   UNL     1      -9.862  16.095  64.007  1.00  0.00     0.000 HD 
BRANCH  16  18
HETATM   18  C   UNL     1     -10.624  17.599  65.206  1.00  0.00     0.179 C  
BRANCH  18  19
HETATM   19  C   UNL     1     -10.039  18.226  66.468  1.00  0.00    -0.396 C  
BRANCH  19  20
HETATM   20  C   UNL     1      -8.803  19.054  66.119  1.00  0.00    -0.194 C  
BRANCH  20  21
HETATM   21  C   UNL     1      -7.779  18.220  65.358  1.00  0.00     0.713 C  
BRANCH  21  22
HETATM   22  C   UNL     1      -6.682  17.710  66.287  1.00  0.00    -0.317 C  
BRANCH  22  23
HETATM   23  C   UNL     1      -7.169  16.511  67.084  1.00  0.00    -0.188 C  
BRANCH  23  24
HETATM   24  O   UNL     1      -7.489  16.936  68.404  1.00  0.00    -0.187 OA 
BRANCH  24  25
HETATM   25  C   UNL     1      -8.190  15.914  69.107  1.00  0.00    -0.240 C  
BRANCH  25  26
HETATM   26  C   UNL     1      -9.534  16.445  69.579  1.00  0.00    -0.006 C  
BRANCH  26  27
HETATM   27  O   UNL     1      -9.907  15.761  70.775  1.00  0.00     0.556 OA 
BRANCH  27  28
HETATM   28  C   UNL     1     -11.261  16.016  71.117  1.00  0.00    -0.260 C  
BRANCH  28  29
HETATM   29  C   UNL     1     -11.936  14.707  71.426  1.00  0.00    -0.405 A  
HETATM   30  C   UNL     1     -12.579  14.489  72.657  1.00  0.00    -0.303 A  
HETATM   31 CL   UNL     1     -12.583  15.673  73.919  1.00  0.00    -0.701 Cl 
HETATM   32  C   UNL     1     -13.249  13.287  72.919  1.00  0.00     0.139 A  
HETATM   33  C   UNL     1     -13.269  12.273  71.967  1.00  0.00    -0.508 A  
HETATM   34  C   UNL     1     -12.594  12.448  70.764  1.00  0.00    -0.298 A  
HETATM   35  C   UNL     1     -11.923  13.648  70.500  1.00  0.00    -0.280 A  
HETATM   36 CL   UNL     1     -11.086  13.756  68.988  1.00  0.00    -0.287 Cl 
ENDBRANCH  28  29
ENDBRANCH  27  28
ENDBRANCH  26  27
ENDBRANCH  25  26
ENDBRANCH  24  25
ENDBRANCH  23  24
ENDBRANCH  22  23
ENDBRANCH  21  22
ENDBRANCH  20  21
ENDBRANCH  19  20
ENDBRANCH  18  19
ENDBRANCH  16  18
ENDBRANCH  15  16
ENDBRANCH  12  15
ENDBRANCH  10  12
ENDBRANCH   2   4
TORSDOF 16
ENDMDL
MODEL      410
REMARK 921   NORMALIZED FREE ENERGY PREDICTED BY IDOCK:   -2.97 KCAL/MOL
REMARK 922        TOTAL FREE ENERGY PREDICTED BY IDOCK:   -7.81 KCAL/MOL
REMARK 923 INTER-LIGAND FREE ENERGY PREDICTED BY IDOCK:   -6.60 KCAL/MOL
REMARK 924 INTRA-LIGAND FREE ENERGY PREDICTED BY IDOCK:   -1.21 KCAL/MOL
REMARK 927      BINDING AFFINITY PREDICTED BY RF-SCORE:    0.00 PKD
ROOT
HETATM    1  O   UNL     1     -12.280  15.892  68.803  1.00  0.00    -0.519 OA 
HETATM    2  C   UNL     1     -11.207  15.856  67.861  1.00  0.00    -0.297 C  
HETATM    3  H   UNL     1     -12.829  16.655  68.665  1.00  0.00     0.000 HD 
ENDROOT
BRANCH   2   4
HETATM    4  C   UNL     1     -10.337  14.646  68.080  1.00  0.00    -0.230 A  
HETATM    5  C   UNL     1      -8.943  14.711  68.197  1.00  0.00    -0.179 A  
HETATM    6  O   UNL     1      -8.274  15.903  68.193  1.00  0.00    -0.146 OA 
HETATM    7  C   UNL     1      -8.171  13.561  68.326  1.00  0.00    -0.157 A  
HETATM    8  C   UNL     1      -8.785  12.311  68.350  1.00  0.00    -0.139 A  
HETATM    9  H   UNL     1      -7.329  15.948  68.272  1.00  0.00     0.000 HD 
HETATM   10  C   UNL     1     -10.178  12.201  68.238  1.00  0.00    -0.209 A  
HETATM   11  C   UNL     1     -10.938  13.375  68.090  1.00  0.00    -0.277 A  
BRANCH  10  12
HETATM   12  C   UNL     1     -10.820  10.831  68.197  1.00  0.00    -0.236 C  
HETATM   13  O   UNL     1     -12.098  10.863  68.849  1.00  0.00    -0.623 OA 
HETATM   14  H   UNL     1     -12.501  10.004  68.823  1.00  0.00     0.000 HD 
BRANCH  12  15
HETATM   15  C   UNL     1     -10.996  10.364  66.737  1.00  0.00    -0.046 C  
BRANCH  15  16
HETATM   16  N   UNL     1     -10.393  11.320  65.793  1.00  0.00    -0.251 NA 
HETATM   17  H   UNL     1      -9.631  11.848  66.218  1.00  0.00     0.000 HD 
BRANCH  16  18
HETATM   18  C   UNL     1      -9.967  10.629  64.581  1.00  0.00    -0.337 C  
BRANCH  18  19
HETATM   19  C   UNL     1      -8.805   9.689  64.893  1.00  0.00    -0.234 C  
BRANCH  19  20
HETATM   20  C   UNL     1      -7.548  10.496  65.215  1.00  0.00    -0.074 C  
BRANCH  20  21
HETATM   21  C   UNL     1      -6.756   9.851  66.346  1.00  0.00    -0.085 C  
BRANCH  21  22
HETATM   22  C   UNL     1      -7.675   9.105  67.308  1.00  0.00    -0.095 C  
BRANCH  22  23
HETATM   23  C   UNL     1      -6.888   8.095  68.127  1.00  0.00    -0.076 C  
BRANCH  23  24
HETATM   24  O   UNL     1      -7.516   6.823  68.014  1.00  0.00    -0.094 OA 
BRANCH  24  25
HETATM   25  C   UNL     1      -8.855   6.876  68.502  1.00  0.00    -0.124 C  
BRANCH  25  26
HETATM   26  C   UNL     1      -9.613   5.637  68.056  1.00  0.00    -0.120 C  
BRANCH  26  27
HETATM   27  O   UNL     1     -10.188   5.011  69.204  1.00  0.00    -0.207 OA 
BRANCH  27  28
HETATM   28  C   UNL     1      -9.198   4.699  70.173  1.00  0.00    -0.125 C  
BRANCH  28  29
HETATM   29  C   UNL     1      -9.862   4.011  71.335  1.00  0.00    -0.249 A  
HETATM   30  C   UNL     1     -10.456   4.744  72.377  1.00  0.00    -0.195 A  
HETATM   31 CL   UNL     1     -10.410   6.473  72.432  1.00  0.00    -0.201 Cl 
HETATM   32  C   UNL     1     -11.118   4.098  73.430  1.00  0.00    -0.354 A  
HETATM   33  C   UNL     1     -11.177   2.710  73.475  1.00  0.00    -0.306 A  
HETATM   34  C   UNL     1     -10.548   1.964  72.483  1.00  0.00    -0.194 A  
HETATM   35  C   UNL     1      -9.887   2.607  71.429  1.00  0.00    -0.092 A  
HETATM   36 CL   UNL     1      -9.110   1.591  70.262  1.00  0.00    -0.132 Cl 
ENDBRANCH  28  29
ENDBRANCH  27  28
ENDBRANCH  26  27
ENDBRANCH  25  26
ENDBRANCH  24  25
ENDBRANCH  23  24
ENDBRANCH  22  23
ENDBRANCH  21  22
ENDBRANCH  20  21
ENDBRANCH  19  20
ENDBRANCH  18  19
ENDBRANCH  16  18
ENDBRANCH  15  16
ENDBRANCH  12  15
ENDBRANCH  10  12
ENDBRANCH   2   4
TORSDOF 16
ENDMDL
MODEL      411
REMARK 921   NORMALIZED FREE ENERGY PREDICTED BY IDOCK:   -2.90 KCAL/MOL
REMARK 922        TOTAL FREE ENERGY PREDICTED BY IDOCK:   -7.69 KCAL/MOL
REMARK 923 INTER-LIGAND FREE ENERGY PREDICTED BY IDOCK:   -7.03 KCAL/MOL
REMARK 924 INTRA-LIGAND FREE ENERGY PREDICTED BY IDOCK:   -0.67 KCAL/MOL
REMARK 927      BINDING AFFINITY PREDICTED BY RF-SCORE:    0.00 PKD
ROOT
HETATM    1  O   UNL     1     -10.636  20.158  68.851  1.00  0.00    -0.507 OA 
HETATM    2  C   UNL     1     -10.203  18.898  68.336  1.00  0.00    -0.373 C  
HETATM    3  H   UNL     1     -11.572  20.160  69.008  1.00  0.00     0.000 HD 
ENDROOT
BRANCH   2   4
HETATM    4  C   UNL     1      -8.717  18.897  68.088  1.00  0.00    -0.342 A  
HETATM    5  C   UNL     1      -8.037  19.961  67.484  1.00  0.00    -0.306 A  
HETATM    6  O   UNL     1      -8.673  21.121  67.140  1.00  0.00    -0.551 OA 
HETATM    7  C   UNL     1      -6.675  19.888  67.208  1.00  0.00    -0.239 A  
HETATM    8  C   UNL     1      -5.958  18.741  67.542  1.00  0.00    -0.179 A  
HETATM    9  H   UNL     1      -8.211  21.843  66.731  1.00  0.00     0.000 HD 
HETATM   10  C   UNL     1      -6.601  17.654  68.149  1.00  0.00    -0.192 A  
HETATM   11  C   UNL     1      -7.982  17.740  68.403  1.00  0.00    -0.293 A  
BRANCH  10  12
HETATM   12  C   UNL     1      -5.820  16.390  68.441  1.00  0.00    -0.109 C  
HETATM   13  O   UNL     1      -5.927  16.052  69.831  1.00  0.00    -0.159 OA 
HETATM   14  H   UNL     1      -5.437  15.259  70.014  1.00  0.00     0.000 HD 
BRANCH  12  15
HETATM   15  C   UNL     1      -6.349  15.222  67.583  1.00  0.00    -0.146 C  
BRANCH  15  16
HETATM   16  N   UNL     1      -5.770  13.937  68.011  1.00  0.00    -0.125 NA 
HETATM   17  H   UNL     1      -5.785  13.831  69.025  1.00  0.00     0.000 HD 
BRANCH  16  18
HETATM   18  C   UNL     1      -6.446  12.833  67.338  1.00  0.00    -0.137 C  
BRANCH  18  19
HETATM   19  C   UNL     1      -7.829  12.614  67.946  1.00  0.00    -0.154 C  
BRANCH  19  20
HETATM   20  C   UNL     1      -7.835  11.345  68.797  1.00  0.00    -0.128 C  
BRANCH  20  21
HETATM   21  C   UNL     1      -9.198  10.665  68.762  1.00  0.00    -0.182 C  
BRANCH  21  22
HETATM   22  C   UNL     1      -9.385   9.740  69.960  1.00  0.00    -0.274 C  
BRANCH  22  23
HETATM   23  C   UNL     1      -9.034   8.308  69.591  1.00  0.00    -0.149 C  
BRANCH  23  24
HETATM   24  O   UNL     1     -10.198   7.500  69.732  1.00  0.00    -0.201 OA 
BRANCH  24  25
HETATM   25  C   UNL     1     -10.854   7.772  70.969  1.00  0.00    -0.239 C  
BRANCH  25  26
HETATM   26  C   UNL     1     -11.994   6.788  71.171  1.00  0.00    -0.370 C  
BRANCH  26  27
HETATM   27  O   UNL     1     -11.572   5.775  72.085  1.00  0.00    -0.276 OA 
BRANCH  27  28
HETATM   28  C   UNL     1     -11.090   6.338  73.296  1.00  0.00    -0.116 C  
BRANCH  28  29
HETATM   29  C   UNL     1      -9.873   5.570  73.734  1.00  0.00    -0.174 A  
HETATM   30  C   UNL     1      -9.875   4.166  73.789  1.00  0.00    -0.119 A  
HETATM   31 CL   UNL     1     -11.285   3.230  73.424  1.00  0.00    -0.285 Cl 
HETATM   32  C   UNL     1      -8.723   3.454  74.148  1.00  0.00    -0.087 A  
HETATM   33  C   UNL     1      -7.556   4.132  74.483  1.00  0.00    -0.076 A  
HETATM   34  C   UNL     1      -7.547   5.523  74.488  1.00  0.00    -0.094 A  
HETATM   35  C   UNL     1      -8.698   6.237  74.128  1.00  0.00    -0.127 A  
HETATM   36 CL   UNL     1      -8.596   7.963  74.197  1.00  0.00    -0.317 Cl 
ENDBRANCH  28  29
ENDBRANCH  27  28
ENDBRANCH  26  27
ENDBRANCH  25  26
ENDBRANCH  24  25
ENDBRANCH  23  24
ENDBRANCH  22  23
ENDBRANCH  21  22
ENDBRANCH  20  21
ENDBRANCH  19  20
ENDBRANCH  18  19
ENDBRANCH  16  18
ENDBRANCH  15  16
ENDBRANCH  12  15
ENDBRANCH  10  12
ENDBRANCH   2   4
TORSDOF 16
ENDMDL
MODEL      412
REMARK 921   NORMALIZED FREE ENERGY PREDICTED BY IDOCK:   -2.88 KCAL/MOL
REMARK 922        TOTAL FREE ENERGY PREDICTED BY IDOCK:   -7.65 KCAL/MOL
REMARK 923 INTER-LIGAND FREE ENERGY PREDICTED BY IDOCK:   -6.77 KCAL/MOL
REMARK 924 INTRA-LIGAND FREE ENERGY PREDICTED BY IDOCK:   -0.88 KCAL/MOL
REMARK 927      BINDING AFFINITY PREDICTED BY RF-SCORE:    0.00 PKD
ROOT
HETATM    1  O   UNL     1      -9.072  15.325  69.662  1.00  0.00    -0.381 OA 
HETATM    2  C   UNL     1     -10.466  15.355  69.356  1.00  0.00    -0.257 C  
HETATM    3  H   UNL     1      -8.720  16.204  69.741  1.00  0.00     0.000 HD 
ENDROOT
BRANCH   2   4
HETATM    4  C   UNL     1     -11.023  13.961  69.231  1.00  0.00    -0.222 A  
HETATM    5  C   UNL     1     -11.752  13.330  70.246  1.00  0.00    -0.143 A  
HETATM    6  O   UNL     1     -12.076  13.972  71.408  1.00  0.00    -0.371 OA 
HETATM    7  C   UNL     1     -12.186  12.014  70.117  1.00  0.00    -0.309 A  
HETATM    8  C   UNL     1     -11.904  11.300  68.955  1.00  0.00    -0.413 A  
HETATM    9  H   UNL     1     -12.570  13.544  72.097  1.00  0.00     0.000 HD 
HETATM   10  C   UNL     1     -11.178  11.895  67.914  1.00  0.00    -0.325 A  
HETATM   11  C   UNL     1     -10.733  13.220  68.072  1.00  0.00    -0.254 A  
BRANCH  10  12
HETATM   12  C   UNL     1     -10.822  11.081  66.688  1.00  0.00    -0.225 C  
HETATM   13  O   UNL     1     -10.997  11.869  65.502  1.00  0.00    -0.284 OA 
HETATM   14  H   UNL     1     -10.773  11.359  64.733  1.00  0.00     0.000 HD 
BRANCH  12  15
HETATM   15  C   UNL     1      -9.360  10.594  66.774  1.00  0.00    -0.157 C  
BRANCH  15  16
HETATM   16  N   UNL     1      -8.417  11.656  66.385  1.00  0.00    -0.305 NA 
HETATM   17  H   UNL     1      -8.710  12.571  66.728  1.00  0.00     0.000 HD 
BRANCH  16  18
HETATM   18  C   UNL     1      -7.068  11.315  66.824  1.00  0.00    -0.143 C  
BRANCH  18  19
HETATM   19  C   UNL     1      -6.312  12.578  67.226  1.00  0.00    -0.126 C  
BRANCH  19  20
HETATM   20  C   UNL     1      -5.424  12.297  68.438  1.00  0.00    -0.055 C  
BRANCH  20  21
HETATM   21  C   UNL     1      -5.566  10.851  68.899  1.00  0.00    -0.040 C  
BRANCH  21  22
HETATM   22  C   UNL     1      -6.053  10.779  70.344  1.00  0.00    -0.135 C  
BRANCH  22  23
HETATM   23  C   UNL     1      -5.134   9.897  71.174  1.00  0.00    -0.052 C  
BRANCH  23  24
HETATM   24  O   UNL     1      -5.904   8.850  71.755  1.00  0.00    -0.052 OA 
BRANCH  24  25
HETATM   25  C   UNL     1      -6.416   7.982  70.745  1.00  0.00    -0.037 C  
BRANCH  25  26
HETATM   26  C   UNL     1      -6.576   6.580  71.309  1.00  0.00    -0.051 C  
BRANCH  26  27
HETATM   27  O   UNL     1      -7.665   5.938  70.646  1.00  0.00    -0.092 OA 
BRANCH  27  28
HETATM   28  C   UNL     1      -8.425   6.865  69.882  1.00  0.00    -0.140 C  
BRANCH  28  29
HETATM   29  C   UNL     1      -9.696   7.174  70.625  1.00  0.00    -0.175 A  
HETATM   30  C   UNL     1     -10.189   8.487  70.716  1.00  0.00    -0.198 A  
HETATM   31 CL   UNL     1      -9.343   9.839  70.044  1.00  0.00    -0.270 Cl 
HETATM   32  C   UNL     1     -11.400   8.762  71.365  1.00  0.00    -0.364 A  
HETATM   33  C   UNL     1     -12.128   7.734  71.955  1.00  0.00    -0.351 A  
HETATM   34  C   UNL     1     -11.632   6.436  71.924  1.00  0.00    -0.367 A  
HETATM   35  C   UNL     1     -10.421   6.158  71.275  1.00  0.00    -0.224 A  
HETATM   36 CL   UNL     1      -9.873   4.517  71.319  1.00  0.00    -0.251 Cl 
ENDBRANCH  28  29
ENDBRANCH  27  28
ENDBRANCH  26  27
ENDBRANCH  25  26
ENDBRANCH  24  25
ENDBRANCH  23  24
ENDBRANCH  22  23
ENDBRANCH  21  22
ENDBRANCH  20  21
ENDBRANCH  19  20
ENDBRANCH  18  19
ENDBRANCH  16  18
ENDBRANCH  15  16
ENDBRANCH  12  15
ENDBRANCH  10  12
ENDBRANCH   2   4
TORSDOF 16
ENDMDL
MODEL      413
REMARK 921   NORMALIZED FREE ENERGY PREDICTED BY IDOCK:   -2.88 KCAL/MOL
REMARK 922        TOTAL FREE ENERGY PREDICTED BY IDOCK:   -7.64 KCAL/MOL
REMARK 923 INTER-LIGAND FREE ENERGY PREDICTED BY IDOCK:   -7.06 KCAL/MOL
REMARK 924 INTRA-LIGAND FREE ENERGY PREDICTED BY IDOCK:   -0.58 KCAL/MOL
REMARK 927      BINDING AFFINITY PREDICTED BY RF-SCORE:    0.00 PKD
ROOT
HETATM    1  O   UNL     1     -11.191  16.784  70.167  1.00  0.00    -0.446 OA 
HETATM    2  C   UNL     1     -10.525  17.118  68.949  1.00  0.00    -0.346 C  
HETATM    3  H   UNL     1     -11.138  17.499  70.791  1.00  0.00     0.000 HD 
ENDROOT
BRANCH   2   4
HETATM    4  C   UNL     1     -10.609  15.985  67.959  1.00  0.00    -0.295 A  
HETATM    5  C   UNL     1     -10.705  16.176  66.576  1.00  0.00    -0.220 A  
HETATM    6  O   UNL     1     -10.654  17.422  66.015  1.00  0.00    -0.320 OA 
HETATM    7  C   UNL     1     -10.853  15.103  65.703  1.00  0.00    -0.367 A  
HETATM    8  C   UNL     1     -10.900  13.803  66.201  1.00  0.00    -0.279 A  
HETATM    9  H   UNL     1     -10.719  17.553  65.077  1.00  0.00     0.000 HD 
HETATM   10  C   UNL     1     -10.806  13.567  67.580  1.00  0.00    -0.276 A  
HETATM   11  C   UNL     1     -10.675  14.667  68.446  1.00  0.00    -0.242 A  
BRANCH  10  12
HETATM   12  C   UNL     1     -10.929  12.153  68.108  1.00  0.00    -0.230 C  
HETATM   13  O   UNL     1     -12.023  11.480  67.470  1.00  0.00    -0.629 OA 
HETATM   14  H   UNL     1     -12.100  10.593  67.801  1.00  0.00     0.000 HD 
BRANCH  12  15
HETATM   15  C   UNL     1      -9.622  11.372  67.856  1.00  0.00    -0.177 C  
BRANCH  15  16
HETATM   16  N   UNL     1      -8.555  12.258  67.362  1.00  0.00    -0.169 NA 
HETATM   17  H   UNL     1      -8.407  13.058  67.977  1.00  0.00     0.000 HD 
BRANCH  16  18
HETATM   18  C   UNL     1      -7.327  11.497  67.154  1.00  0.00    -0.139 C  
BRANCH  18  19
HETATM   19  C   UNL     1      -7.126  10.502  68.293  1.00  0.00    -0.081 C  
BRANCH  19  20
HETATM   20  C   UNL     1      -5.637  10.356  68.608  1.00  0.00    -0.037 C  
BRANCH  20  21
HETATM   21  C   UNL     1      -5.161   8.929  68.366  1.00  0.00    -0.034 C  
BRANCH  21  22
HETATM   22  C   UNL     1      -6.317   7.938  68.460  1.00  0.00    -0.048 C  
BRANCH  22  23
HETATM   23  C   UNL     1      -6.253   7.164  69.767  1.00  0.00    -0.031 C  
BRANCH  23  24
HETATM   24  O   UNL     1      -5.574   5.934  69.538  1.00  0.00    -0.011 OA 
BRANCH  24  25
HETATM   25  C   UNL     1      -6.189   4.875  70.268  1.00  0.00    -0.022 C  
BRANCH  25  26
HETATM   26  C   UNL     1      -7.656   5.198  70.501  1.00  0.00    -0.071 C  
BRANCH  26  27
HETATM   27  O   UNL     1      -8.210   4.217  71.378  1.00  0.00    -0.080 OA 
BRANCH  27  28
HETATM   28  C   UNL     1      -9.622   4.140  71.243  1.00  0.00    -0.172 C  
BRANCH  28  29
HETATM   29  C   UNL     1     -10.229   5.399  71.800  1.00  0.00    -0.263 A  
HETATM   30  C   UNL     1     -10.195   5.680  73.177  1.00  0.00    -0.191 A  
HETATM   31 CL   UNL     1      -9.518   4.578  74.328  1.00  0.00    -0.127 Cl 
HETATM   32  C   UNL     1     -10.716   6.878  73.684  1.00  0.00    -0.304 A  
HETATM   33  C   UNL     1     -11.302   7.805  72.829  1.00  0.00    -0.446 A  
HETATM   34  C   UNL     1     -11.395   7.523  71.470  1.00  0.00    -0.283 A  
HETATM   35  C   UNL     1     -10.874   6.326  70.961  1.00  0.00    -0.271 A  
HETATM   36 CL   UNL     1     -11.067   6.053  69.262  1.00  0.00    -0.450 Cl 
ENDBRANCH  28  29
ENDBRANCH  27  28
ENDBRANCH  26  27
ENDBRANCH  25  26
ENDBRANCH  24  25
ENDBRANCH  23  24
ENDBRANCH  22  23
ENDBRANCH  21  22
ENDBRANCH  20  21
ENDBRANCH  19  20
ENDBRANCH  18  19
ENDBRANCH  16  18
ENDBRANCH  15  16
ENDBRANCH  12  15
ENDBRANCH  10  12
ENDBRANCH   2   4
TORSDOF 16
ENDMDL
MODEL      414
REMARK 921   NORMALIZED FREE ENERGY PREDICTED BY IDOCK:   -2.78 KCAL/MOL
REMARK 922        TOTAL FREE ENERGY PREDICTED BY IDOCK:   -7.44 KCAL/MOL
REMARK 923 INTER-LIGAND FREE ENERGY PREDICTED BY IDOCK:   -5.88 KCAL/MOL
REMARK 924 INTRA-LIGAND FREE ENERGY PREDICTED BY IDOCK:   -1.56 KCAL/MOL
REMARK 927      BINDING AFFINITY PREDICTED BY RF-SCORE:    0.00 PKD
ROOT
HETATM    1  O   UNL     1      -5.474   4.146  73.731  1.00  0.00    -0.006 OA 
HETATM    2  C   UNL     1      -5.994   2.839  73.483  1.00  0.00    -0.004 C  
HETATM    3  H   UNL     1      -4.628   4.100  74.160  1.00  0.00     0.000 HD 
ENDROOT
BRANCH   2   4
HETATM    4  C   UNL     1      -7.337   2.912  72.803  1.00  0.00    -0.045 A  
HETATM    5  C   UNL     1      -8.475   2.247  73.273  1.00  0.00    -0.069 A  
HETATM    6  O   UNL     1      -8.463   1.533  74.439  1.00  0.00    -0.051 OA 
HETATM    7  C   UNL     1      -9.678   2.282  72.574  1.00  0.00    -0.178 A  
HETATM    8  C   UNL     1      -9.768   3.000  71.384  1.00  0.00    -0.219 A  
HETATM    9  H   UNL     1      -9.235   1.082  74.759  1.00  0.00     0.000 HD 
HETATM   10  C   UNL     1      -8.653   3.682  70.879  1.00  0.00    -0.110 A  
HETATM   11  C   UNL     1      -7.442   3.617  71.591  1.00  0.00    -0.052 A  
BRANCH  10  12
HETATM   12  C   UNL     1      -8.752   4.398  69.548  1.00  0.00    -0.082 C  
HETATM   13  O   UNL     1      -8.647   3.458  68.471  1.00  0.00    -0.083 OA 
HETATM   14  H   UNL     1      -8.709   3.907  67.636  1.00  0.00     0.000 HD 
BRANCH  12  15
HETATM   15  C   UNL     1     -10.092   5.156  69.446  1.00  0.00    -0.234 C  
BRANCH  15  16
HETATM   16  N   UNL     1     -10.316   5.666  68.083  1.00  0.00    -0.195 NA 
HETATM   17  H   UNL     1     -10.926   5.053  67.541  1.00  0.00     0.000 HD 
BRANCH  16  18
HETATM   18  C   UNL     1     -10.824   7.033  68.135  1.00  0.00    -0.153 C  
BRANCH  18  19
HETATM   19  C   UNL     1     -10.422   7.791  66.873  1.00  0.00    -0.388 C  
BRANCH  19  20
HETATM   20  C   UNL     1      -9.173   7.163  66.256  1.00  0.00    -0.169 C  
BRANCH  20  21
HETATM   21  C   UNL     1      -8.520   8.107  65.254  1.00  0.00    -0.157 C  
BRANCH  21  22
HETATM   22  C   UNL     1      -7.011   8.174  65.461  1.00  0.00    -0.063 C  
BRANCH  22  23
HETATM   23  C   UNL     1      -6.673   8.162  66.943  1.00  0.00    -0.065 C  
BRANCH  23  24
HETATM   24  O   UNL     1      -7.049   9.413  67.510  1.00  0.00    -0.077 OA 
BRANCH  24  25
HETATM   25  C   UNL     1      -7.085   9.331  68.933  1.00  0.00    -0.068 C  
BRANCH  25  26
HETATM   26  C   UNL     1      -7.550   7.948  69.355  1.00  0.00    -0.103 C  
BRANCH  26  27
HETATM   27  O   UNL     1      -8.433   8.079  70.470  1.00  0.00    -0.121 OA 
BRANCH  27  28
HETATM   28  C   UNL     1      -8.921   9.407  70.590  1.00  0.00    -0.228 C  
BRANCH  28  29
HETATM   29  C   UNL     1     -10.341   9.356  71.085  1.00  0.00    -0.377 A  
HETATM   30  C   UNL     1     -11.336  10.185  70.539  1.00  0.00    -0.338 A  
HETATM   31 CL   UNL     1     -10.990  11.361  69.317  1.00  0.00    -0.283 Cl 
HETATM   32  C   UNL     1     -12.667  10.096  70.969  1.00  0.00    -0.481 A  
HETATM   33  C   UNL     1     -13.024   9.196  71.967  1.00  0.00    -0.496 A  
HETATM   34  C   UNL     1     -12.045   8.404  72.558  1.00  0.00    -0.403 A  
HETATM   35  C   UNL     1     -10.714   8.491  72.131  1.00  0.00    -0.356 A  
HETATM   36 CL   UNL     1      -9.566   7.488  72.951  1.00  0.00    -0.225 Cl 
ENDBRANCH  28  29
ENDBRANCH  27  28
ENDBRANCH  26  27
ENDBRANCH  25  26
ENDBRANCH  24  25
ENDBRANCH  23  24
ENDBRANCH  22  23
ENDBRANCH  21  22
ENDBRANCH  20  21
ENDBRANCH  19  20
ENDBRANCH  18  19
ENDBRANCH  16  18
ENDBRANCH  15  16
ENDBRANCH  12  15
ENDBRANCH  10  12
ENDBRANCH   2   4
TORSDOF 16
ENDMDL
MODEL      415
REMARK 921   NORMALIZED FREE ENERGY PREDICTED BY IDOCK:   -2.77 KCAL/MOL
REMARK 922        TOTAL FREE ENERGY PREDICTED BY IDOCK:   -7.44 KCAL/MOL
REMARK 923 INTER-LIGAND FREE ENERGY PREDICTED BY IDOCK:   -6.78 KCAL/MOL
REMARK 924 INTRA-LIGAND FREE ENERGY PREDICTED BY IDOCK:   -0.66 KCAL/MOL
REMARK 927      BINDING AFFINITY PREDICTED BY RF-SCORE:    0.00 PKD
ROOT
HETATM    1  O   UNL     1     -12.863  14.725  73.604  1.00  0.00    -0.505 OA 
HETATM    2  C   UNL     1     -13.786  14.139  72.685  1.00  0.00    -0.462 C  
HETATM    3  H   UNL     1     -13.287  15.387  74.139  1.00  0.00     0.000 HD 
ENDROOT
BRANCH   2   4
HETATM    4  C   UNL     1     -13.112  13.091  71.838  1.00  0.00    -0.483 A  
HETATM    5  C   UNL     1     -12.348  13.391  70.706  1.00  0.00    -0.354 A  
HETATM    6  O   UNL     1     -12.095  14.680  70.327  1.00  0.00    -0.281 OA 
HETATM    7  C   UNL     1     -11.803  12.388  69.910  1.00  0.00    -0.376 A  
HETATM    8  C   UNL     1     -12.008  11.050  70.241  1.00  0.00    -0.452 A  
HETATM    9  H   UNL     1     -11.576  14.885  69.558  1.00  0.00     0.000 HD 
HETATM   10  C   UNL     1     -12.766  10.706  71.368  1.00  0.00    -0.545 A  
HETATM   11  C   UNL     1     -13.323  11.736  72.149  1.00  0.00    -0.334 A  
BRANCH  10  12
HETATM   12  C   UNL     1     -13.036   9.248  71.673  1.00  0.00    -0.382 C  
HETATM   13  O   UNL     1     -13.483   8.570  70.491  1.00  0.00     0.018 OA 
HETATM   14  H   UNL     1     -13.652   7.654  70.682  1.00  0.00     0.000 HD 
BRANCH  12  15
HETATM   15  C   UNL     1     -11.759   8.567  72.209  1.00  0.00    -0.373 C  
BRANCH  15  16
HETATM   16  N   UNL     1     -12.086   7.429  73.085  1.00  0.00    -0.180 NA 
HETATM   17  H   UNL     1     -13.087   7.236  73.103  1.00  0.00     0.000 HD 
BRANCH  16  18
HETATM   18  C   UNL     1     -11.311   6.256  72.696  1.00  0.00    -0.247 C  
BRANCH  18  19
HETATM   19  C   UNL     1      -9.892   6.667  72.314  1.00  0.00    -0.162 C  
BRANCH  19  20
HETATM   20  C   UNL     1      -8.893   5.609  72.784  1.00  0.00    -0.122 C  
BRANCH  20  21
HETATM   21  C   UNL     1      -9.452   4.807  73.954  1.00  0.00    -0.131 C  
BRANCH  21  22
HETATM   22  C   UNL     1      -9.194   3.315  73.772  1.00  0.00    -0.103 C  
BRANCH  22  23
HETATM   23  C   UNL     1      -9.925   2.790  72.547  1.00  0.00    -0.159 C  
BRANCH  23  24
HETATM   24  O   UNL     1      -9.323   1.564  72.145  1.00  0.00    -0.072 OA 
BRANCH  24  25
HETATM   25  C   UNL     1      -9.261   1.475  70.723  1.00  0.00    -0.087 C  
BRANCH  25  26
HETATM   26  C   UNL     1      -9.595   2.825  70.111  1.00  0.00    -0.047 C  
BRANCH  26  27
HETATM   27  O   UNL     1      -8.431   3.339  69.464  1.00  0.00    -0.058 OA 
BRANCH  27  28
HETATM   28  C   UNL     1      -8.640   3.497  68.069  1.00  0.00    -0.098 C  
BRANCH  28  29
HETATM   29  C   UNL     1      -8.179   4.871  67.664  1.00  0.00    -0.105 A  
HETATM   30  C   UNL     1      -8.745   5.537  66.563  1.00  0.00    -0.119 A  
HETATM   31 CL   UNL     1      -9.952   4.805  65.561  1.00  0.00    -0.180 Cl 
HETATM   32  C   UNL     1      -8.348   6.837  66.222  1.00  0.00    -0.126 A  
HETATM   33  C   UNL     1      -7.363   7.486  66.959  1.00  0.00    -0.094 A  
HETATM   34  C   UNL     1      -6.753   6.825  68.020  1.00  0.00    -0.068 A  
HETATM   35  C   UNL     1      -7.148   5.525  68.362  1.00  0.00    -0.070 A  
HETATM   36 CL   UNL     1      -6.306   4.777  69.677  1.00  0.00    -0.026 Cl 
ENDBRANCH  28  29
ENDBRANCH  27  28
ENDBRANCH  26  27
ENDBRANCH  25  26
ENDBRANCH  24  25
ENDBRANCH  23  24
ENDBRANCH  22  23
ENDBRANCH  21  22
ENDBRANCH  20  21
ENDBRANCH  19  20
ENDBRANCH  18  19
ENDBRANCH  16  18
ENDBRANCH  15  16
ENDBRANCH  12  15
ENDBRANCH  10  12
ENDBRANCH   2   4
TORSDOF 16
ENDMDL
MODEL      416
REMARK 921   NORMALIZED FREE ENERGY PREDICTED BY IDOCK:   -2.76 KCAL/MOL
REMARK 922        TOTAL FREE ENERGY PREDICTED BY IDOCK:   -7.41 KCAL/MOL
REMARK 923 INTER-LIGAND FREE ENERGY PREDICTED BY IDOCK:   -6.63 KCAL/MOL
REMARK 924 INTRA-LIGAND FREE ENERGY PREDICTED BY IDOCK:   -0.78 KCAL/MOL
REMARK 927      BINDING AFFINITY PREDICTED BY RF-SCORE:    0.00 PKD
ROOT
HETATM    1  O   UNL     1     -12.864  14.726  73.604  1.00  0.00    -0.505 OA 
HETATM    2  C   UNL     1     -13.795  14.140  72.693  1.00  0.00    -0.395 C  
HETATM    3  H   UNL     1     -13.282  15.393  74.136  1.00  0.00     0.000 HD 
ENDROOT
BRANCH   2   4
HETATM    4  C   UNL     1     -13.132  13.083  71.849  1.00  0.00    -0.483 A  
HETATM    5  C   UNL     1     -12.373  13.372  70.709  1.00  0.00    -0.354 A  
HETATM    6  O   UNL     1     -12.116  14.657  70.320  1.00  0.00    -0.281 OA 
HETATM    7  C   UNL     1     -11.838  12.360  69.917  1.00  0.00    -0.376 A  
HETATM    8  C   UNL     1     -12.047  11.026  70.259  1.00  0.00    -0.448 A  
HETATM    9  H   UNL     1     -11.601  14.853  69.547  1.00  0.00     0.000 HD 
HETATM   10  C   UNL     1     -12.800  10.693  71.393  1.00  0.00    -0.556 A  
HETATM   11  C   UNL     1     -13.347  11.731  72.170  1.00  0.00    -0.334 A  
BRANCH  10  12
HETATM   12  C   UNL     1     -13.075   9.238  71.710  1.00  0.00    -0.400 C  
HETATM   13  O   UNL     1     -13.535   8.555  70.536  1.00  0.00     0.018 OA 
HETATM   14  H   UNL     1     -13.707   7.642  70.734  1.00  0.00     0.000 HD 
BRANCH  12  15
HETATM   15  C   UNL     1     -11.798   8.554  72.240  1.00  0.00    -0.383 C  
BRANCH  15  16
HETATM   16  N   UNL     1     -12.014   7.114  72.462  1.00  0.00    -0.500 NA 
HETATM   17  H   UNL     1     -12.932   6.812  72.137  1.00  0.00     0.000 HD 
BRANCH  16  18
HETATM   18  C   UNL     1     -10.938   6.344  71.848  1.00  0.00    -0.253 C  
BRANCH  18  19
HETATM   19  C   UNL     1      -9.602   7.055  72.049  1.00  0.00    -0.149 C  
BRANCH  19  20
HETATM   20  C   UNL     1      -8.493   6.032  72.292  1.00  0.00    -0.117 C  
BRANCH  20  21
HETATM   21  C   UNL     1      -9.058   4.730  72.848  1.00  0.00    -0.127 C  
BRANCH  21  22
HETATM   22  C   UNL     1      -8.444   3.521  72.150  1.00  0.00    -0.090 C  
BRANCH  22  23
HETATM   23  C   UNL     1      -8.811   3.510  70.674  1.00  0.00    -0.081 C  
BRANCH  23  24
HETATM   24  O   UNL     1      -7.886   2.681  69.978  1.00  0.00    -0.043 OA 
BRANCH  24  25
HETATM   25  C   UNL     1      -7.560   3.245  68.709  1.00  0.00    -0.048 C  
BRANCH  25  26
HETATM   26  C   UNL     1      -8.083   4.671  68.633  1.00  0.00    -0.082 C  
BRANCH  26  27
HETATM   27  O   UNL     1      -6.972   5.566  68.571  1.00  0.00    -0.060 OA 
BRANCH  27  28
HETATM   28  C   UNL     1      -6.967   6.301  67.356  1.00  0.00    -0.068 C  
BRANCH  28  29
HETATM   29  C   UNL     1      -6.770   7.758  67.675  1.00  0.00    -0.068 A  
HETATM   30  C   UNL     1      -7.274   8.765  66.834  1.00  0.00    -0.079 A  
HETATM   31 CL   UNL     1      -8.091   8.406  65.351  1.00  0.00    -0.125 Cl 
HETATM   32  C   UNL     1      -7.133  10.120  67.162  1.00  0.00    -0.089 A  
HETATM   33  C   UNL     1      -6.465  10.494  68.324  1.00  0.00    -0.055 A  
HETATM   34  C   UNL     1      -5.912   9.515  69.142  1.00  0.00    -0.038 A  
HETATM   35  C   UNL     1      -6.052   8.160  68.816  1.00  0.00    -0.044 A  
HETATM   36 CL   UNL     1      -5.300   7.021  69.881  1.00  0.00    -0.018 Cl 
ENDBRANCH  28  29
ENDBRANCH  27  28
ENDBRANCH  26  27
ENDBRANCH  25  26
ENDBRANCH  24  25
ENDBRANCH  23  24
ENDBRANCH  22  23
ENDBRANCH  21  22
ENDBRANCH  20  21
ENDBRANCH  19  20
ENDBRANCH  18  19
ENDBRANCH  16  18
ENDBRANCH  15  16
ENDBRANCH  12  15
ENDBRANCH  10  12
ENDBRANCH   2   4
TORSDOF 16
ENDMDL
MODEL      417
REMARK 921   NORMALIZED FREE ENERGY PREDICTED BY IDOCK:   -2.75 KCAL/MOL
REMARK 922        TOTAL FREE ENERGY PREDICTED BY IDOCK:   -7.40 KCAL/MOL
REMARK 923 INTER-LIGAND FREE ENERGY PREDICTED BY IDOCK:   -5.79 KCAL/MOL
REMARK 924 INTRA-LIGAND FREE ENERGY PREDICTED BY IDOCK:   -1.61 KCAL/MOL
REMARK 927      BINDING AFFINITY PREDICTED BY RF-SCORE:    0.00 PKD
ROOT
HETATM    1  O   UNL     1     -10.289   4.232  67.421  1.00  0.00    -0.029 OA 
HETATM    2  C   UNL     1      -8.894   4.107  67.138  1.00  0.00    -0.116 C  
HETATM    3  H   UNL     1     -10.739   3.406  67.290  1.00  0.00     0.000 HD 
ENDROOT
BRANCH   2   4
HETATM    4  C   UNL     1      -8.181   5.418  67.346  1.00  0.00    -0.100 A  
HETATM    5  C   UNL     1      -7.670   5.828  68.583  1.00  0.00    -0.090 A  
HETATM    6  O   UNL     1      -7.719   5.023  69.687  1.00  0.00    -0.063 OA 
HETATM    7  C   UNL     1      -7.082   7.079  68.747  1.00  0.00    -0.089 A  
HETATM    8  C   UNL     1      -6.985   7.949  67.663  1.00  0.00    -0.074 A  
HETATM    9  H   UNL     1      -7.373   5.301  70.526  1.00  0.00     0.000 HD 
HETATM   10  C   UNL     1      -7.483   7.576  66.407  1.00  0.00    -0.084 A  
HETATM   11  C   UNL     1      -8.090   6.315  66.267  1.00  0.00    -0.114 A  
BRANCH  10  12
HETATM   12  C   UNL     1      -7.431   8.562  65.258  1.00  0.00    -0.086 C  
HETATM   13  O   UNL     1      -6.601   8.052  64.206  1.00  0.00    -0.060 OA 
HETATM   14  H   UNL     1      -6.568   8.670  63.485  1.00  0.00     0.000 HD 
BRANCH  12  15
HETATM   15  C   UNL     1      -8.851   8.827  64.715  1.00  0.00    -0.045 C  
BRANCH  15  16
HETATM   16  N   UNL     1      -9.501   9.936  65.434  1.00  0.00    -0.237 NA 
HETATM   17  H   UNL     1      -9.924  10.609  64.795  1.00  0.00     0.000 HD 
BRANCH  16  18
HETATM   18  C   UNL     1     -10.468   9.413  66.394  1.00  0.00    -0.095 C  
BRANCH  18  19
HETATM   19  C   UNL     1     -10.691  10.423  67.517  1.00  0.00    -0.339 C  
BRANCH  19  20
HETATM   20  C   UNL     1      -9.511  10.399  68.489  1.00  0.00    -0.159 C  
BRANCH  20  21
HETATM   21  C   UNL     1      -8.671  11.664  68.365  1.00  0.00    -0.158 C  
BRANCH  21  22
HETATM   22  C   UNL     1      -7.184  11.333  68.285  1.00  0.00    -0.080 C  
BRANCH  22  23
HETATM   23  C   UNL     1      -6.363  12.600  68.105  1.00  0.00    -0.080 C  
BRANCH  23  24
HETATM   24  O   UNL     1      -6.209  13.231  69.372  1.00  0.00    -0.099 OA 
BRANCH  24  25
HETATM   25  C   UNL     1      -6.528  14.618  69.286  1.00  0.00    -0.122 C  
BRANCH  25  26
HETATM   26  C   UNL     1      -6.437  15.076  67.839  1.00  0.00    -0.159 C  
BRANCH  26  27
HETATM   27  O   UNL     1      -6.832  16.446  67.764  1.00  0.00    -0.118 OA 
BRANCH  27  28
HETATM   28  C   UNL     1      -7.946  16.710  68.605  1.00  0.00    -0.236 C  
BRANCH  28  29
HETATM   29  C   UNL     1      -8.745  17.836  68.007  1.00  0.00    -0.251 A  
HETATM   30  C   UNL     1      -9.827  17.587  67.145  1.00  0.00    -0.297 A  
HETATM   31 CL   UNL     1     -10.273  15.986  66.661  1.00  0.00    -0.283 Cl 
HETATM   32  C   UNL     1     -10.600  18.638  66.632  1.00  0.00    -0.410 A  
HETATM   33  C   UNL     1     -10.291  19.956  66.950  1.00  0.00    -0.596 A  
HETATM   34  C   UNL     1      -9.192  20.227  67.758  1.00  0.00    -0.395 A  
HETATM   35  C   UNL     1      -8.418  19.178  68.272  1.00  0.00    -0.332 A  
HETATM   36 CL   UNL     1      -7.053  19.621  69.240  1.00  0.00    -0.395 Cl 
ENDBRANCH  28  29
ENDBRANCH  27  28
ENDBRANCH  26  27
ENDBRANCH  25  26
ENDBRANCH  24  25
ENDBRANCH  23  24
ENDBRANCH  22  23
ENDBRANCH  21  22
ENDBRANCH  20  21
ENDBRANCH  19  20
ENDBRANCH  18  19
ENDBRANCH  16  18
ENDBRANCH  15  16
ENDBRANCH  12  15
ENDBRANCH  10  12
ENDBRANCH   2   4
TORSDOF 16
ENDMDL
MODEL      418
REMARK 921   NORMALIZED FREE ENERGY PREDICTED BY IDOCK:   -2.74 KCAL/MOL
REMARK 922        TOTAL FREE ENERGY PREDICTED BY IDOCK:   -7.37 KCAL/MOL
REMARK 923 INTER-LIGAND FREE ENERGY PREDICTED BY IDOCK:   -6.84 KCAL/MOL
REMARK 924 INTRA-LIGAND FREE ENERGY PREDICTED BY IDOCK:   -0.54 KCAL/MOL
REMARK 927      BINDING AFFINITY PREDICTED BY RF-SCORE:    0.00 PKD
ROOT
HETATM    1  O   UNL     1     -10.961  17.404  71.141  1.00  0.00     0.263 OA 
HETATM    2  C   UNL     1     -11.599  16.746  72.236  1.00  0.00     0.180 C  
HETATM    3  H   UNL     1     -10.671  18.274  71.388  1.00  0.00     0.000 HD 
ENDROOT
BRANCH   2   4
HETATM    4  C   UNL     1     -12.060  15.366  71.843  1.00  0.00    -0.463 A  
HETATM    5  C   UNL     1     -12.922  14.591  72.626  1.00  0.00    -0.449 A  
HETATM    6  O   UNL     1     -13.472  15.068  73.783  1.00  0.00    -0.473 OA 
HETATM    7  C   UNL     1     -13.266  13.293  72.260  1.00  0.00    -0.567 A  
HETATM    8  C   UNL     1     -12.754  12.743  71.087  1.00  0.00    -0.355 A  
HETATM    9  H   UNL     1     -14.057  14.543  74.314  1.00  0.00     0.000 HD 
HETATM   10  C   UNL     1     -11.888  13.486  70.273  1.00  0.00    -0.327 A  
HETATM   11  C   UNL     1     -11.539  14.790  70.670  1.00  0.00    -0.324 A  
BRANCH  10  12
HETATM   12  C   UNL     1     -11.287  12.847  69.038  1.00  0.00    -0.290 C  
HETATM   13  O   UNL     1     -12.018  13.245  67.870  1.00  0.00    -0.345 OA 
HETATM   14  H   UNL     1     -11.641  12.845  67.095  1.00  0.00     0.000 HD 
BRANCH  12  15
HETATM   15  C   UNL     1      -9.807  13.258  68.888  1.00  0.00     0.110 C  
BRANCH  15  16
HETATM   16  N   UNL     1      -9.228  12.726  67.643  1.00  0.00    -0.184 NA 
HETATM   17  H   UNL     1      -9.909  12.194  67.101  1.00  0.00     0.000 HD 
BRANCH  16  18
HETATM   18  C   UNL     1      -8.637  13.807  66.862  1.00  0.00    -0.109 C  
BRANCH  18  19
HETATM   19  C   UNL     1      -9.176  15.154  67.337  1.00  0.00    -0.199 C  
BRANCH  19  20
HETATM   20  C   UNL     1      -9.801  15.913  66.166  1.00  0.00    -0.343 C  
BRANCH  20  21
HETATM   21  C   UNL     1     -11.247  15.486  65.944  1.00  0.00    -0.120 C  
BRANCH  21  22
HETATM   22  C   UNL     1     -11.512  15.180  64.473  1.00  0.00    -0.319 C  
BRANCH  22  23
HETATM   23  C   UNL     1     -10.908  13.840  64.088  1.00  0.00    -0.082 C  
BRANCH  23  24
HETATM   24  O   UNL     1     -11.928  13.023  63.522  1.00  0.00    -0.514 OA 
BRANCH  24  25
HETATM   25  C   UNL     1     -11.501  11.665  63.443  1.00  0.00    -0.260 C  
BRANCH  25  26
HETATM   26  C   UNL     1     -10.653  11.324  64.657  1.00  0.00    -0.327 C  
BRANCH  26  27
HETATM   27  O   UNL     1     -10.157   9.993  64.513  1.00  0.00    -0.243 OA 
BRANCH  27  28
HETATM   28  C   UNL     1      -9.975   9.368  65.776  1.00  0.00    -0.208 C  
BRANCH  28  29
HETATM   29  C   UNL     1      -8.590   8.782  65.829  1.00  0.00    -0.185 A  
HETATM   30  C   UNL     1      -7.856   8.534  64.656  1.00  0.00    -0.131 A  
HETATM   31 CL   UNL     1      -8.510   8.820  63.080  1.00  0.00    -0.175 Cl 
HETATM   32  C   UNL     1      -6.547   8.036  64.714  1.00  0.00    -0.048 A  
HETATM   33  C   UNL     1      -5.958   7.754  65.942  1.00  0.00    -0.038 A  
HETATM   34  C   UNL     1      -6.687   7.941  67.112  1.00  0.00    -0.068 A  
HETATM   35  C   UNL     1      -7.995   8.439  67.057  1.00  0.00    -0.100 A  
HETATM   36 CL   UNL     1      -8.829   8.605  68.565  1.00  0.00    -0.141 Cl 
ENDBRANCH  28  29
ENDBRANCH  27  28
ENDBRANCH  26  27
ENDBRANCH  25  26
ENDBRANCH  24  25
ENDBRANCH  23  24
ENDBRANCH  22  23
ENDBRANCH  21  22
ENDBRANCH  20  21
ENDBRANCH  19  20
ENDBRANCH  18  19
ENDBRANCH  16  18
ENDBRANCH  15  16
ENDBRANCH  12  15
ENDBRANCH  10  12
ENDBRANCH   2   4
TORSDOF 16
ENDMDL
MODEL      419
REMARK 921   NORMALIZED FREE ENERGY PREDICTED BY IDOCK:   -2.72 KCAL/MOL
REMARK 922        TOTAL FREE ENERGY PREDICTED BY IDOCK:   -7.33 KCAL/MOL
REMARK 923 INTER-LIGAND FREE ENERGY PREDICTED BY IDOCK:   -5.56 KCAL/MOL
REMARK 924 INTRA-LIGAND FREE ENERGY PREDICTED BY IDOCK:   -1.77 KCAL/MOL
REMARK 927      BINDING AFFINITY PREDICTED BY RF-SCORE:    0.00 PKD
ROOT
HETATM    1  O   UNL     1      -9.923   9.785  71.306  1.00  0.00    -0.223 OA 
HETATM    2  C   UNL     1      -9.387   8.521  71.699  1.00  0.00    -0.241 C  
HETATM    3  H   UNL     1      -9.539  10.491  71.812  1.00  0.00     0.000 HD 
ENDROOT
BRANCH   2   4
HETATM    4  C   UNL     1      -9.996   7.401  70.896  1.00  0.00    -0.184 A  
HETATM    5  C   UNL     1     -10.137   6.096  71.379  1.00  0.00    -0.194 A  
HETATM    6  O   UNL     1      -9.793   5.759  72.659  1.00  0.00    -0.163 OA 
HETATM    7  C   UNL     1     -10.639   5.074  70.578  1.00  0.00    -0.150 A  
HETATM    8  C   UNL     1     -11.022   5.345  69.266  1.00  0.00     0.106 A  
HETATM    9  H   UNL     1      -9.888   4.873  72.988  1.00  0.00     0.000 HD 
HETATM   10  C   UNL     1     -10.899   6.640  68.744  1.00  0.00    -0.321 A  
HETATM   11  C   UNL     1     -10.372   7.653  69.564  1.00  0.00    -0.217 A  
BRANCH  10  12
HETATM   12  C   UNL     1     -11.255   6.900  67.295  1.00  0.00    -0.161 C  
HETATM   13  O   UNL     1     -10.215   7.654  66.657  1.00  0.00    -0.381 OA 
HETATM   14  H   UNL     1     -10.439   7.817  65.748  1.00  0.00     0.000 HD 
BRANCH  12  15
HETATM   15  C   UNL     1     -11.462   5.567  66.546  1.00  0.00     1.002 C  
BRANCH  15  16
HETATM   16  N   UNL     1     -10.561   5.459  65.386  1.00  0.00    -0.134 NA 
HETATM   17  H   UNL     1     -10.152   6.359  65.135  1.00  0.00     0.000 HD 
BRANCH  16  18
HETATM   18  C   UNL     1      -9.541   4.446  65.634  1.00  0.00    -0.187 C  
BRANCH  18  19
HETATM   19  C   UNL     1      -8.163   4.984  65.256  1.00  0.00    -0.123 C  
BRANCH  19  20
HETATM   20  C   UNL     1      -8.122   5.324  63.767  1.00  0.00    -0.117 C  
BRANCH  20  21
HETATM   21  C   UNL     1      -7.820   6.802  63.549  1.00  0.00    -0.110 C  
BRANCH  21  22
HETATM   22  C   UNL     1      -6.464   7.181  64.136  1.00  0.00    -0.043 C  
BRANCH  22  23
HETATM   23  C   UNL     1      -6.566   8.472  64.932  1.00  0.00    -0.068 C  
BRANCH  23  24
HETATM   24  O   UNL     1      -7.918   8.651  65.343  1.00  0.00    -0.099 OA 
BRANCH  24  25
HETATM   25  C   UNL     1      -8.220  10.036  65.491  1.00  0.00    -0.146 C  
BRANCH  25  26
HETATM   26  C   UNL     1      -8.868  10.558  64.219  1.00  0.00    -0.197 C  
BRANCH  26  27
HETATM   27  O   UNL     1     -10.282  10.391  64.321  1.00  0.00    -0.323 OA 
BRANCH  27  28
HETATM   28  C   UNL     1     -10.794  11.007  65.494  1.00  0.00    -0.088 C  
BRANCH  28  29
HETATM   29  C   UNL     1     -10.961  12.479  65.231  1.00  0.00    -0.329 A  
HETATM   30  C   UNL     1     -10.138  13.431  65.859  1.00  0.00    -0.293 A  
HETATM   31 CL   UNL     1      -8.932  12.988  67.018  1.00  0.00    -0.222 Cl 
HETATM   32  C   UNL     1     -10.264  14.797  65.572  1.00  0.00    -0.400 A  
HETATM   33  C   UNL     1     -11.228  15.239  64.672  1.00  0.00    -0.366 A  
HETATM   34  C   UNL     1     -12.088  14.319  64.081  1.00  0.00    -0.423 A  
HETATM   35  C   UNL     1     -11.964  12.953  64.366  1.00  0.00    -0.395 A  
HETATM   36 CL   UNL     1     -13.101  11.893  63.605  1.00  0.00    -0.369 Cl 
ENDBRANCH  28  29
ENDBRANCH  27  28
ENDBRANCH  26  27
ENDBRANCH  25  26
ENDBRANCH  24  25
ENDBRANCH  23  24
ENDBRANCH  22  23
ENDBRANCH  21  22
ENDBRANCH  20  21
ENDBRANCH  19  20
ENDBRANCH  18  19
ENDBRANCH  16  18
ENDBRANCH  15  16
ENDBRANCH  12  15
ENDBRANCH  10  12
ENDBRANCH   2   4
TORSDOF 16
ENDMDL
MODEL      420
REMARK 921   NORMALIZED FREE ENERGY PREDICTED BY IDOCK:   -2.71 KCAL/MOL
REMARK 922        TOTAL FREE ENERGY PREDICTED BY IDOCK:   -7.32 KCAL/MOL
REMARK 923 INTER-LIGAND FREE ENERGY PREDICTED BY IDOCK:   -5.93 KCAL/MOL
REMARK 924 INTRA-LIGAND FREE ENERGY PREDICTED BY IDOCK:   -1.38 KCAL/MOL
REMARK 927      BINDING AFFINITY PREDICTED BY RF-SCORE:    0.00 PKD
ROOT
HETATM    1  O   UNL     1     -11.305   5.188  66.085  1.00  0.00    -0.604 OA 
HETATM    2  C   UNL     1     -10.669   6.301  66.716  1.00  0.00    -0.293 C  
HETATM    3  H   UNL     1     -11.885   5.475  65.391  1.00  0.00     0.000 HD 
ENDROOT
BRANCH   2   4
HETATM    4  C   UNL     1      -9.748   5.846  67.817  1.00  0.00    -0.124 A  
HETATM    5  C   UNL     1      -8.864   4.769  67.685  1.00  0.00    -0.104 A  
HETATM    6  O   UNL     1      -8.721   4.094  66.505  1.00  0.00    -0.112 OA 
HETATM    7  C   UNL     1      -8.082   4.336  68.751  1.00  0.00    -0.073 A  
HETATM    8  C   UNL     1      -8.165   4.984  69.982  1.00  0.00    -0.081 A  
HETATM    9  H   UNL     1      -8.120   3.364  66.414  1.00  0.00     0.000 HD 
HETATM   10  C   UNL     1      -9.038   6.067  70.157  1.00  0.00    -0.154 A  
HETATM   11  C   UNL     1      -9.832   6.477  69.071  1.00  0.00    -0.153 A  
BRANCH  10  12
HETATM   12  C   UNL     1      -9.165   6.714  71.520  1.00  0.00    -0.146 C  
HETATM   13  O   UNL     1      -8.651   5.838  72.533  1.00  0.00    -0.121 OA 
HETATM   14  H   UNL     1      -8.731   6.244  73.388  1.00  0.00     0.000 HD 
BRANCH  12  15
HETATM   15  C   UNL     1      -8.395   8.051  71.553  1.00  0.00    -0.116 C  
BRANCH  15  16
HETATM   16  N   UNL     1      -6.999   7.856  71.977  1.00  0.00    -0.063 NA 
HETATM   17  H   UNL     1      -6.789   6.874  72.159  1.00  0.00     0.000 HD 
BRANCH  16  18
HETATM   18  C   UNL     1      -6.089   8.435  70.995  1.00  0.00    -0.035 C  
BRANCH  18  19
HETATM   19  C   UNL     1      -5.471   7.334  70.138  1.00  0.00    -0.023 C  
BRANCH  19  20
HETATM   20  C   UNL     1      -5.870   7.519  68.674  1.00  0.00    -0.024 C  
BRANCH  20  21
HETATM   21  C   UNL     1      -6.736   8.761  68.493  1.00  0.00    -0.060 C  
BRANCH  21  22
HETATM   22  C   UNL     1      -7.004   9.035  67.017  1.00  0.00    -0.078 C  
BRANCH  22  23
HETATM   23  C   UNL     1      -8.498   9.048  66.738  1.00  0.00    -0.119 C  
BRANCH  23  24
HETATM   24  O   UNL     1      -9.055  10.243  67.277  1.00  0.00    -0.138 OA 
BRANCH  24  25
HETATM   25  C   UNL     1     -10.139   9.943  68.153  1.00  0.00    -0.165 C  
BRANCH  25  26
HETATM   26  C   UNL     1     -11.068  11.142  68.249  1.00  0.00    -0.251 C  
BRANCH  26  27
HETATM   27  O   UNL     1     -10.461  12.248  67.580  1.00  0.00    -0.209 OA 
BRANCH  27  28
HETATM   28  C   UNL     1     -11.331  12.805  66.605  1.00  0.00    -0.316 C  
BRANCH  28  29
HETATM   29  C   UNL     1     -10.951  14.243  66.384  1.00  0.00    -0.311 A  
HETATM   30  C   UNL     1     -10.207  14.958  67.339  1.00  0.00    -0.234 A  
HETATM   31 CL   UNL     1      -9.738  14.263  68.853  1.00  0.00    -0.167 Cl 
HETATM   32  C   UNL     1      -9.811  16.282  67.105  1.00  0.00    -0.243 A  
HETATM   33  C   UNL     1     -10.171  16.923  65.924  1.00  0.00    -0.330 A  
HETATM   34  C   UNL     1     -10.952  16.252  64.989  1.00  0.00    -0.311 A  
HETATM   35  C   UNL     1     -11.349  14.928  65.221  1.00  0.00    -0.358 A  
HETATM   36 CL   UNL     1     -12.345  14.192  64.013  1.00  0.00    -0.417 Cl 
ENDBRANCH  28  29
ENDBRANCH  27  28
ENDBRANCH  26  27
ENDBRANCH  25  26
ENDBRANCH  24  25
ENDBRANCH  23  24
ENDBRANCH  22  23
ENDBRANCH  21  22
ENDBRANCH  20  21
ENDBRANCH  19  20
ENDBRANCH  18  19
ENDBRANCH  16  18
ENDBRANCH  15  16
ENDBRANCH  12  15
ENDBRANCH  10  12
ENDBRANCH   2   4
TORSDOF 16
ENDMDL
MODEL      421
REMARK 921   NORMALIZED FREE ENERGY PREDICTED BY IDOCK:   -2.69 KCAL/MOL
REMARK 922        TOTAL FREE ENERGY PREDICTED BY IDOCK:   -7.27 KCAL/MOL
REMARK 923 INTER-LIGAND FREE ENERGY PREDICTED BY IDOCK:   -6.73 KCAL/MOL
REMARK 924 INTRA-LIGAND FREE ENERGY PREDICTED BY IDOCK:   -0.54 KCAL/MOL
REMARK 927      BINDING AFFINITY PREDICTED BY RF-SCORE:    0.00 PKD
ROOT
HETATM    1  O   UNL     1     -12.274  11.363  62.836  1.00  0.00    -0.940 OA 
HETATM    2  C   UNL     1     -12.174  12.708  63.307  1.00  0.00    -0.417 C  
HETATM    3  H   UNL     1     -12.397  11.339  61.895  1.00  0.00     0.000 HD 
ENDROOT
BRANCH   2   4
HETATM    4  C   UNL     1     -11.977  12.745  64.800  1.00  0.00    -0.455 A  
HETATM    5  C   UNL     1     -12.386  13.815  65.604  1.00  0.00    -0.482 A  
HETATM    6  O   UNL     1     -13.067  14.884  65.090  1.00  0.00    -0.140 OA 
HETATM    7  C   UNL     1     -12.121  13.841  66.970  1.00  0.00    -0.436 A  
HETATM    8  C   UNL     1     -11.442  12.781  67.565  1.00  0.00    -0.390 A  
HETATM    9  H   UNL     1     -13.344  15.611  65.635  1.00  0.00     0.000 HD 
HETATM   10  C   UNL     1     -11.017  11.688  66.797  1.00  0.00    -0.341 A  
HETATM   11  C   UNL     1     -11.279  11.691  65.415  1.00  0.00    -0.262 A  
BRANCH  10  12
HETATM   12  C   UNL     1     -10.220  10.578  67.450  1.00  0.00    -0.211 C  
HETATM   13  O   UNL     1     -10.939   9.339  67.368  1.00  0.00    -0.421 OA 
HETATM   14  H   UNL     1     -10.439   8.643  67.778  1.00  0.00     0.000 HD 
BRANCH  12  15
HETATM   15  C   UNL     1      -8.848  10.426  66.761  1.00  0.00    -0.130 C  
BRANCH  15  16
HETATM   16  N   UNL     1      -7.798  10.072  67.731  1.00  0.00    -0.094 NA 
HETATM   17  H   UNL     1      -6.871  10.065  67.306  1.00  0.00     0.000 HD 
BRANCH  16  18
HETATM   18  C   UNL     1      -7.861  10.960  68.887  1.00  0.00    -0.142 C  
BRANCH  18  19
HETATM   19  C   UNL     1      -7.573  10.179  70.166  1.00  0.00    -0.119 C  
BRANCH  19  20
HETATM   20  C   UNL     1      -6.300  10.706  70.829  1.00  0.00     0.070 C  
BRANCH  20  21
HETATM   21  C   UNL     1      -5.579   9.601  71.592  1.00  0.00    -0.056 C  
BRANCH  21  22
HETATM   22  C   UNL     1      -5.568   9.883  73.091  1.00  0.00     0.342 C  
BRANCH  22  23
HETATM   23  C   UNL     1      -6.270   8.768  73.850  1.00  0.00    -0.062 C  
BRANCH  23  24
HETATM   24  O   UNL     1      -7.660   9.069  73.924  1.00  0.00    -0.349 OA 
BRANCH  24  25
HETATM   25  C   UNL     1      -8.434   8.013  73.360  1.00  0.00    -0.235 C  
BRANCH  25  26
HETATM   26  C   UNL     1      -9.259   8.546  72.200  1.00  0.00    -0.266 C  
BRANCH  26  27
HETATM   27  O   UNL     1      -9.117   7.662  71.089  1.00  0.00    -0.144 OA 
BRANCH  27  28
HETATM   28  C   UNL     1     -10.379   7.194  70.634  1.00  0.00    -0.204 C  
BRANCH  28  29
HETATM   29  C   UNL     1     -10.857   6.113  71.564  1.00  0.00    -0.313 A  
HETATM   30  C   UNL     1     -10.035   5.023  71.902  1.00  0.00    -0.187 A  
HETATM   31 CL   UNL     1      -8.455   4.814  71.226  1.00  0.00    -0.107 Cl 
HETATM   32  C   UNL     1     -10.466   4.046  72.809  1.00  0.00    -0.234 A  
HETATM   33  C   UNL     1     -11.734   4.126  73.376  1.00  0.00    -0.070 A  
HETATM   34  C   UNL     1     -12.583   5.167  73.014  1.00  0.00     0.696 A  
HETATM   35  C   UNL     1     -12.154   6.145  72.108  1.00  0.00    -0.207 A  
HETATM   36 CL   UNL     1     -13.295   7.380  71.697  1.00  0.00    -0.423 Cl 
ENDBRANCH  28  29
ENDBRANCH  27  28
ENDBRANCH  26  27
ENDBRANCH  25  26
ENDBRANCH  24  25
ENDBRANCH  23  24
ENDBRANCH  22  23
ENDBRANCH  21  22
ENDBRANCH  20  21
ENDBRANCH  19  20
ENDBRANCH  18  19
ENDBRANCH  16  18
ENDBRANCH  15  16
ENDBRANCH  12  15
ENDBRANCH  10  12
ENDBRANCH   2   4
TORSDOF 16
ENDMDL
MODEL      422
REMARK 921   NORMALIZED FREE ENERGY PREDICTED BY IDOCK:   -2.64 KCAL/MOL
REMARK 922        TOTAL FREE ENERGY PREDICTED BY IDOCK:   -7.19 KCAL/MOL
REMARK 923 INTER-LIGAND FREE ENERGY PREDICTED BY IDOCK:   -6.07 KCAL/MOL
REMARK 924 INTRA-LIGAND FREE ENERGY PREDICTED BY IDOCK:   -1.12 KCAL/MOL
REMARK 927      BINDING AFFINITY PREDICTED BY RF-SCORE:    0.00 PKD
ROOT
HETATM    1  O   UNL     1     -12.307  11.333  62.828  1.00  0.00    -0.856 OA 
HETATM    2  C   UNL     1     -12.284  12.657  63.361  1.00  0.00    -0.517 C  
HETATM    3  H   UNL     1     -12.483  11.343  61.894  1.00  0.00     0.000 HD 
ENDROOT
BRANCH   2   4
HETATM    4  C   UNL     1     -12.005  12.640  64.841  1.00  0.00    -0.459 A  
HETATM    5  C   UNL     1     -12.368  13.679  65.705  1.00  0.00    -0.478 A  
HETATM    6  O   UNL     1     -13.077  14.764  65.270  1.00  0.00    -0.256 OA 
HETATM    7  C   UNL     1     -12.027  13.655  67.054  1.00  0.00    -0.448 A  
HETATM    8  C   UNL     1     -11.315  12.575  67.571  1.00  0.00    -0.368 A  
HETATM    9  H   UNL     1     -13.324  15.469  65.856  1.00  0.00     0.000 HD 
HETATM   10  C   UNL     1     -10.933  11.513  66.740  1.00  0.00    -0.347 A  
HETATM   11  C   UNL     1     -11.272  11.566  65.376  1.00  0.00    -0.207 A  
BRANCH  10  12
HETATM   12  C   UNL     1     -10.100  10.381  67.306  1.00  0.00    -0.200 C  
HETATM   13  O   UNL     1     -10.866   9.169  67.333  1.00  0.00    -0.410 OA 
HETATM   14  H   UNL     1     -10.344   8.459  67.688  1.00  0.00     0.000 HD 
BRANCH  12  15
HETATM   15  C   UNL     1      -8.830  10.172  66.454  1.00  0.00    -0.143 C  
BRANCH  15  16
HETATM   16  N   UNL     1      -7.673   9.826  67.296  1.00  0.00    -0.095 NA 
HETATM   17  H   UNL     1      -6.809   9.775  66.755  1.00  0.00     0.000 HD 
BRANCH  16  18
HETATM   18  C   UNL     1      -7.564  10.760  68.411  1.00  0.00    -0.102 C  
BRANCH  18  19
HETATM   19  C   UNL     1      -7.059  10.037  69.656  1.00  0.00    -0.104 C  
BRANCH  19  20
HETATM   20  C   UNL     1      -6.243  10.993  70.526  1.00  0.00    -0.053 C  
BRANCH  20  21
HETATM   21  C   UNL     1      -5.131  10.254  71.261  1.00  0.00    -0.082 C  
BRANCH  21  22
HETATM   22  C   UNL     1      -5.401  10.204  72.762  1.00  0.00     0.234 C  
BRANCH  22  23
HETATM   23  C   UNL     1      -5.562   8.767  73.230  1.00  0.00    -0.095 C  
BRANCH  23  24
HETATM   24  O   UNL     1      -6.877   8.599  73.750  1.00  0.00    -0.273 OA 
BRANCH  24  25
HETATM   25  C   UNL     1      -7.622   7.682  72.952  1.00  0.00    -0.098 C  
BRANCH  25  26
HETATM   26  C   UNL     1      -6.716   7.066  71.898  1.00  0.00    -0.056 C  
BRANCH  26  27
HETATM   27  O   UNL     1      -6.427   5.718  72.270  1.00  0.00    -0.053 OA 
BRANCH  27  28
HETATM   28  C   UNL     1      -5.824   5.004  71.200  1.00  0.00    -0.017 C  
BRANCH  28  29
HETATM   29  C   UNL     1      -6.891   4.637  70.204  1.00  0.00    -0.037 A  
HETATM   30  C   UNL     1      -6.949   5.244  68.938  1.00  0.00    -0.056 A  
HETATM   31 CL   UNL     1      -5.851   6.495  68.463  1.00  0.00    -0.020 Cl 
HETATM   32  C   UNL     1      -7.913   4.861  67.996  1.00  0.00    -0.086 A  
HETATM   33  C   UNL     1      -8.850   3.882  68.309  1.00  0.00    -0.143 A  
HETATM   34  C   UNL     1      -8.843   3.307  69.575  1.00  0.00    -0.149 A  
HETATM   35  C   UNL     1      -7.881   3.688  70.519  1.00  0.00    -0.047 A  
HETATM   36 CL   UNL     1      -7.976   2.937  72.076  1.00  0.00    -0.054 Cl 
ENDBRANCH  28  29
ENDBRANCH  27  28
ENDBRANCH  26  27
ENDBRANCH  25  26
ENDBRANCH  24  25
ENDBRANCH  23  24
ENDBRANCH  22  23
ENDBRANCH  21  22
ENDBRANCH  20  21
ENDBRANCH  19  20
ENDBRANCH  18  19
ENDBRANCH  16  18
ENDBRANCH  15  16
ENDBRANCH  12  15
ENDBRANCH  10  12
ENDBRANCH   2   4
TORSDOF 16
ENDMDL
MODEL      423
REMARK 921   NORMALIZED FREE ENERGY PREDICTED BY IDOCK:   -2.64 KCAL/MOL
REMARK 922        TOTAL FREE ENERGY PREDICTED BY IDOCK:   -7.19 KCAL/MOL
REMARK 923 INTER-LIGAND FREE ENERGY PREDICTED BY IDOCK:   -6.21 KCAL/MOL
REMARK 924 INTRA-LIGAND FREE ENERGY PREDICTED BY IDOCK:   -0.98 KCAL/MOL
REMARK 927      BINDING AFFINITY PREDICTED BY RF-SCORE:    0.00 PKD
ROOT
HETATM    1  O   UNL     1     -11.252  16.020  64.086  1.00  0.00    -1.016 OA 
HETATM    2  C   UNL     1     -10.614  15.809  65.347  1.00  0.00    -0.421 C  
HETATM    3  H   UNL     1     -10.980  16.845  63.700  1.00  0.00     0.000 HD 
ENDROOT
BRANCH   2   4
HETATM    4  C   UNL     1     -11.045  14.501  65.958  1.00  0.00    -0.329 A  
HETATM    5  C   UNL     1     -11.665  14.405  67.209  1.00  0.00    -0.404 A  
HETATM    6  O   UNL     1     -11.992  15.513  67.941  1.00  0.00    -0.353 OA 
HETATM    7  C   UNL     1     -11.982  13.170  67.769  1.00  0.00    -0.352 A  
HETATM    8  C   UNL     1     -11.690  11.998  67.077  1.00  0.00    -0.341 A  
HETATM    9  H   UNL     1     -12.412  15.447  68.789  1.00  0.00     0.000 HD 
HETATM   10  C   UNL     1     -11.071  12.051  65.820  1.00  0.00    -0.371 A  
HETATM   11  C   UNL     1     -10.743  13.307  65.280  1.00  0.00    -0.322 A  
BRANCH  10  12
HETATM   12  C   UNL     1     -10.699  10.764  65.114  1.00  0.00    -0.089 C  
HETATM   13  O   UNL     1     -10.154  11.050  63.818  1.00  0.00    -0.302 OA 
HETATM   14  H   UNL     1      -9.921  10.243  63.375  1.00  0.00     0.000 HD 
BRANCH  12  15
HETATM   15  C   UNL     1      -9.667   9.974  65.946  1.00  0.00    -0.247 C  
BRANCH  15  16
HETATM   16  N   UNL     1      -8.660   9.333  65.083  1.00  0.00    -0.161 NA 
HETATM   17  H   UNL     1      -9.055   9.038  64.190  1.00  0.00     0.000 HD 
BRANCH  16  18
HETATM   18  C   UNL     1      -7.514  10.219  64.906  1.00  0.00    -0.114 C  
BRANCH  18  19
HETATM   19  C   UNL     1      -6.664  10.238  66.173  1.00  0.00    -0.110 C  
BRANCH  19  20
HETATM   20  C   UNL     1      -6.588  11.657  66.735  1.00  0.00    -0.094 C  
BRANCH  20  21
HETATM   21  C   UNL     1      -7.370  11.775  68.037  1.00  0.00    -0.091 C  
BRANCH  21  22
HETATM   22  C   UNL     1      -6.463  11.570  69.246  1.00  0.00    -0.103 C  
BRANCH  22  23
HETATM   23  C   UNL     1      -6.965  10.419  70.103  1.00  0.00    -0.141 C  
BRANCH  23  24
HETATM   24  O   UNL     1      -5.961   9.410  70.149  1.00  0.00    -0.033 OA 
BRANCH  24  25
HETATM   25  C   UNL     1      -6.179   8.435  69.132  1.00  0.00    -0.043 C  
BRANCH  25  26
HETATM   26  C   UNL     1      -7.632   7.990  69.151  1.00  0.00    -0.097 C  
BRANCH  26  27
HETATM   27  O   UNL     1      -7.813   7.051  70.212  1.00  0.00    -0.101 OA 
BRANCH  27  28
HETATM   28  C   UNL     1      -6.753   6.107  70.253  1.00  0.00    -0.050 C  
BRANCH  28  29
HETATM   29  C   UNL     1      -7.115   4.937  69.380  1.00  0.00    -0.055 A  
HETATM   30  C   UNL     1      -6.437   4.689  68.173  1.00  0.00    -0.041 A  
HETATM   31 CL   UNL     1      -5.196   5.738  67.578  1.00  0.00    -0.004 Cl 
HETATM   32  C   UNL     1      -6.744   3.568  67.389  1.00  0.00    -0.042 A  
HETATM   33  C   UNL     1      -7.748   2.690  67.783  1.00  0.00    -0.060 A  
HETATM   34  C   UNL     1      -8.467   2.947  68.946  1.00  0.00    -0.099 A  
HETATM   35  C   UNL     1      -8.162   4.066  69.731  1.00  0.00    -0.054 A  
HETATM   36 CL   UNL     1      -9.135   4.315  71.141  1.00  0.00    -0.170 Cl 
ENDBRANCH  28  29
ENDBRANCH  27  28
ENDBRANCH  26  27
ENDBRANCH  25  26
ENDBRANCH  24  25
ENDBRANCH  23  24
ENDBRANCH  22  23
ENDBRANCH  21  22
ENDBRANCH  20  21
ENDBRANCH  19  20
ENDBRANCH  18  19
ENDBRANCH  16  18
ENDBRANCH  15  16
ENDBRANCH  12  15
ENDBRANCH  10  12
ENDBRANCH   2   4
TORSDOF 16
ENDMDL
MODEL      424
REMARK 921   NORMALIZED FREE ENERGY PREDICTED BY IDOCK:   -2.62 KCAL/MOL
REMARK 922        TOTAL FREE ENERGY PREDICTED BY IDOCK:   -7.15 KCAL/MOL
REMARK 923 INTER-LIGAND FREE ENERGY PREDICTED BY IDOCK:   -6.56 KCAL/MOL
REMARK 924 INTRA-LIGAND FREE ENERGY PREDICTED BY IDOCK:   -0.59 KCAL/MOL
REMARK 927      BINDING AFFINITY PREDICTED BY RF-SCORE:    0.00 PKD
ROOT
HETATM    1  O   UNL     1     -12.651   7.269  70.203  1.00  0.00    -0.330 OA 
HETATM    2  C   UNL     1     -12.085   7.030  71.492  1.00  0.00    -0.353 C  
HETATM    3  H   UNL     1     -13.278   7.982  70.233  1.00  0.00     0.000 HD 
ENDROOT
BRANCH   2   4
HETATM    4  C   UNL     1     -11.090   5.899  71.444  1.00  0.00    -0.313 A  
HETATM    5  C   UNL     1     -10.578   5.276  72.588  1.00  0.00    -0.228 A  
HETATM    6  O   UNL     1     -11.008   5.605  73.843  1.00  0.00    -0.399 OA 
HETATM    7  C   UNL     1      -9.606   4.283  72.501  1.00  0.00    -0.187 A  
HETATM    8  C   UNL     1      -9.129   3.886  71.254  1.00  0.00    -0.177 A  
HETATM    9  H   UNL     1     -10.661   5.182  74.619  1.00  0.00     0.000 HD 
HETATM   10  C   UNL     1      -9.616   4.485  70.083  1.00  0.00    -0.264 A  
HETATM   11  C   UNL     1     -10.585   5.498  70.195  1.00  0.00    -0.367 A  
BRANCH  10  12
HETATM   12  C   UNL     1      -9.035   4.088  68.742  1.00  0.00    -0.117 C  
HETATM   13  O   UNL     1      -9.816   3.038  68.155  1.00  0.00    -0.106 OA 
HETATM   14  H   UNL     1      -9.452   2.790  67.314  1.00  0.00     0.000 HD 
BRANCH  12  15
HETATM   15  C   UNL     1      -9.003   5.303  67.791  1.00  0.00    -0.109 C  
BRANCH  15  16
HETATM   16  N   UNL     1      -7.655   5.890  67.717  1.00  0.00    -0.088 NA 
HETATM   17  H   UNL     1      -7.262   5.826  66.778  1.00  0.00     0.000 HD 
BRANCH  16  18
HETATM   18  C   UNL     1      -7.677   7.265  68.205  1.00  0.00    -0.120 C  
BRANCH  18  19
HETATM   19  C   UNL     1      -7.068   8.202  67.166  1.00  0.00    -0.079 C  
BRANCH  19  20
HETATM   20  C   UNL     1      -6.327   7.395  66.101  1.00  0.00    -0.042 C  
BRANCH  20  21
HETATM   21  C   UNL     1      -6.373   8.098  64.749  1.00  0.00    -0.049 C  
BRANCH  21  22
HETATM   22  C   UNL     1      -7.221   7.316  63.750  1.00  0.00    -0.075 C  
BRANCH  22  23
HETATM   23  C   UNL     1      -8.019   8.264  62.869  1.00  0.00    -0.163 C  
BRANCH  23  24
HETATM   24  O   UNL     1      -7.965   9.570  63.433  1.00  0.00    -0.127 OA 
BRANCH  24  25
HETATM   25  C   UNL     1      -9.235   9.942  63.964  1.00  0.00    -0.253 C  
BRANCH  25  26
HETATM   26  C   UNL     1      -9.678  11.261  63.352  1.00  0.00    -0.360 C  
BRANCH  26  27
HETATM   27  O   UNL     1     -10.383  12.013  64.340  1.00  0.00    -0.274 OA 
BRANCH  27  28
HETATM   28  C   UNL     1      -9.492  12.763  65.154  1.00  0.00     0.290 C  
BRANCH  28  29
HETATM   29  C   UNL     1     -10.263  13.337  66.311  1.00  0.00    -0.296 A  
HETATM   30  C   UNL     1      -9.777  13.251  67.628  1.00  0.00    -0.219 A  
HETATM   31 CL   UNL     1      -8.304  12.429  68.017  1.00  0.00    -0.161 Cl 
HETATM   32  C   UNL     1     -10.474  13.834  68.695  1.00  0.00    -0.245 A  
HETATM   33  C   UNL     1     -11.679  14.490  68.471  1.00  0.00    -0.353 A  
HETATM   34  C   UNL     1     -12.204  14.539  67.184  1.00  0.00    -0.187 A  
HETATM   35  C   UNL     1     -11.510  13.958  66.115  1.00  0.00    -0.345 A  
HETATM   36 CL   UNL     1     -12.262  14.045  64.559  1.00  0.00    -0.462 Cl 
ENDBRANCH  28  29
ENDBRANCH  27  28
ENDBRANCH  26  27
ENDBRANCH  25  26
ENDBRANCH  24  25
ENDBRANCH  23  24
ENDBRANCH  22  23
ENDBRANCH  21  22
ENDBRANCH  20  21
ENDBRANCH  19  20
ENDBRANCH  18  19
ENDBRANCH  16  18
ENDBRANCH  15  16
ENDBRANCH  12  15
ENDBRANCH  10  12
ENDBRANCH   2   4
TORSDOF 16
ENDMDL
MODEL      425
REMARK 921   NORMALIZED FREE ENERGY PREDICTED BY IDOCK:   -2.61 KCAL/MOL
REMARK 922        TOTAL FREE ENERGY PREDICTED BY IDOCK:   -7.12 KCAL/MOL
REMARK 923 INTER-LIGAND FREE ENERGY PREDICTED BY IDOCK:   -6.79 KCAL/MOL
REMARK 924 INTRA-LIGAND FREE ENERGY PREDICTED BY IDOCK:   -0.33 KCAL/MOL
REMARK 927      BINDING AFFINITY PREDICTED BY RF-SCORE:    0.00 PKD
ROOT
HETATM    1  O   UNL     1     -11.985  13.663  65.874  1.00  0.00    -0.362 OA 
HETATM    2  C   UNL     1     -11.779  12.262  66.061  1.00  0.00    -0.388 C  
HETATM    3  H   UNL     1     -12.616  14.002  66.498  1.00  0.00     0.000 HD 
ENDROOT
BRANCH   2   4
HETATM    4  C   UNL     1     -10.778  11.726  65.071  1.00  0.00    -0.344 A  
HETATM    5  C   UNL     1     -11.010  11.678  63.692  1.00  0.00    -0.431 A  
HETATM    6  O   UNL     1     -12.149  12.190  63.133  1.00  0.00    -0.718 OA 
HETATM    7  C   UNL     1     -10.088  11.108  62.819  1.00  0.00    -0.136 A  
HETATM    8  C   UNL     1      -8.899  10.577  63.315  1.00  0.00    -0.212 A  
HETATM    9  H   UNL     1     -12.306  12.158  62.197  1.00  0.00     0.000 HD 
HETATM   10  C   UNL     1      -8.627  10.606  64.689  1.00  0.00    -0.125 A  
HETATM   11  C   UNL     1      -9.581  11.170  65.556  1.00  0.00    -0.263 A  
BRANCH  10  12
HETATM   12  C   UNL     1      -7.362   9.962  65.216  1.00  0.00    -0.131 C  
HETATM   13  O   UNL     1      -6.548   9.507  64.127  1.00  0.00    -0.092 OA 
HETATM   14  H   UNL     1      -5.754   9.103  64.457  1.00  0.00     0.000 HD 
BRANCH  12  15
HETATM   15  C   UNL     1      -6.565  10.968  66.074  1.00  0.00    -0.031 C  
BRANCH  15  16
HETATM   16  N   UNL     1      -7.407  12.104  66.487  1.00  0.00    -0.352 NA 
HETATM   17  H   UNL     1      -8.370  11.820  66.664  1.00  0.00     0.000 HD 
BRANCH  16  18
HETATM   18  C   UNL     1      -6.814  12.774  67.640  1.00  0.00    -0.147 C  
BRANCH  18  19
HETATM   19  C   UNL     1      -6.984  11.916  68.891  1.00  0.00    -0.110 C  
BRANCH  19  20
HETATM   20  C   UNL     1      -8.308  11.154  68.831  1.00  0.00    -0.101 C  
BRANCH  20  21
HETATM   21  C   UNL     1      -8.193   9.799  69.519  1.00  0.00    -0.146 C  
BRANCH  21  22
HETATM   22  C   UNL     1      -9.275   8.840  69.032  1.00  0.00    -0.141 C  
BRANCH  22  23
HETATM   23  C   UNL     1     -10.486   8.888  69.950  1.00  0.00    -0.214 C  
BRANCH  23  24
HETATM   24  O   UNL     1     -10.050   9.206  71.268  1.00  0.00    -0.283 OA 
BRANCH  24  25
HETATM   25  C   UNL     1     -10.886   8.582  72.240  1.00  0.00    -0.348 C  
BRANCH  25  26
HETATM   26  C   UNL     1     -11.689   7.470  71.587  1.00  0.00    -0.282 C  
BRANCH  26  27
HETATM   27  O   UNL     1     -11.388   6.238  72.243  1.00  0.00    -0.265 OA 
BRANCH  27  28
HETATM   28  C   UNL     1     -10.523   5.430  71.458  1.00  0.00    -0.223 C  
BRANCH  28  29
HETATM   29  C   UNL     1      -9.103   5.698  71.876  1.00  0.00    -0.147 A  
HETATM   30  C   UNL     1      -8.063   5.766  70.931  1.00  0.00    -0.119 A  
HETATM   31 CL   UNL     1      -8.328   5.482  69.245  1.00  0.00    -0.101 Cl 
HETATM   32  C   UNL     1      -6.751   6.066  71.321  1.00  0.00    -0.058 A  
HETATM   33  C   UNL     1      -6.449   6.280  72.661  1.00  0.00    -0.063 A  
HETATM   34  C   UNL     1      -7.452   6.165  73.618  1.00  0.00    -0.091 A  
HETATM   35  C   UNL     1      -8.765   5.865  73.231  1.00  0.00    -0.117 A  
HETATM   36 CL   UNL     1      -9.933   5.711  74.499  1.00  0.00    -0.245 Cl 
ENDBRANCH  28  29
ENDBRANCH  27  28
ENDBRANCH  26  27
ENDBRANCH  25  26
ENDBRANCH  24  25
ENDBRANCH  23  24
ENDBRANCH  22  23
ENDBRANCH  21  22
ENDBRANCH  20  21
ENDBRANCH  19  20
ENDBRANCH  18  19
ENDBRANCH  16  18
ENDBRANCH  15  16
ENDBRANCH  12  15
ENDBRANCH  10  12
ENDBRANCH   2   4
TORSDOF 16
ENDMDL
MODEL      426
REMARK 921   NORMALIZED FREE ENERGY PREDICTED BY IDOCK:   -2.50 KCAL/MOL
REMARK 922        TOTAL FREE ENERGY PREDICTED BY IDOCK:   -6.91 KCAL/MOL
REMARK 923 INTER-LIGAND FREE ENERGY PREDICTED BY IDOCK:   -6.56 KCAL/MOL
REMARK 924 INTRA-LIGAND FREE ENERGY PREDICTED BY IDOCK:   -0.34 KCAL/MOL
REMARK 927      BINDING AFFINITY PREDICTED BY RF-SCORE:    0.00 PKD
ROOT
HETATM    1  O   UNL     1     -10.996  16.827  70.002  1.00  0.00    -0.415 OA 
HETATM    2  C   UNL     1      -9.939  17.038  69.065  1.00  0.00    -0.269 C  
HETATM    3  H   UNL     1     -10.845  17.316  70.802  1.00  0.00     0.000 HD 
ENDROOT
BRANCH   2   4
HETATM    4  C   UNL     1     -10.179  16.263  67.796  1.00  0.00    -0.270 A  
HETATM    5  C   UNL     1      -9.940  16.785  66.519  1.00  0.00    -0.298 A  
HETATM    6  O   UNL     1      -9.397  18.026  66.337  1.00  0.00    -0.304 OA 
HETATM    7  C   UNL     1     -10.244  16.061  65.370  1.00  0.00    -0.333 A  
HETATM    8  C   UNL     1     -10.789  14.783  65.478  1.00  0.00    -0.359 A  
HETATM    9  H   UNL     1      -9.235  18.380  65.471  1.00  0.00     0.000 HD 
HETATM   10  C   UNL     1     -11.042  14.223  66.738  1.00  0.00    -0.316 A  
HETATM   11  C   UNL     1     -10.745  14.979  67.886  1.00  0.00    -0.268 A  
BRANCH  10  12
HETATM   12  C   UNL     1     -11.698  12.862  66.834  1.00  0.00    -0.382 C  
HETATM   13  O   UNL     1     -12.486  12.608  65.662  1.00  0.00    -0.622 OA 
HETATM   14  H   UNL     1     -12.897  11.754  65.722  1.00  0.00     0.000 HD 
BRANCH  12  15
HETATM   15  C   UNL     1     -10.629  11.760  66.988  1.00  0.00    -0.232 C  
BRANCH  15  16
HETATM   16  N   UNL     1      -9.369  12.141  66.328  1.00  0.00    -0.253 NA 
HETATM   17  H   UNL     1      -8.877  12.874  66.838  1.00  0.00     0.000 HD 
BRANCH  16  18
HETATM   18  C   UNL     1      -8.533  10.962  66.125  1.00  0.00    -0.171 C  
BRANCH  18  19
HETATM   19  C   UNL     1      -7.971  10.480  67.460  1.00  0.00    -0.107 C  
BRANCH  19  20
HETATM   20  C   UNL     1      -6.508  10.069  67.297  1.00  0.00    -0.068 C  
BRANCH  20  21
HETATM   21  C   UNL     1      -6.387   8.589  66.955  1.00  0.00    -0.057 C  
BRANCH  21  22
HETATM   22  C   UNL     1      -7.634   7.821  67.382  1.00  0.00    -0.105 C  
BRANCH  22  23
HETATM   23  C   UNL     1      -7.253   6.513  68.057  1.00  0.00    -0.088 C  
BRANCH  23  24
HETATM   24  O   UNL     1      -7.535   5.438  67.167  1.00  0.00    -0.082 OA 
BRANCH  24  25
HETATM   25  C   UNL     1      -8.331   4.446  67.811  1.00  0.00    -0.098 C  
BRANCH  25  26
HETATM   26  C   UNL     1      -9.197   5.097  68.877  1.00  0.00    -0.118 C  
BRANCH  26  27
HETATM   27  O   UNL     1      -9.627   4.093  69.797  1.00  0.00    -0.183 OA 
BRANCH  27  28
HETATM   28  C   UNL     1     -10.024   4.662  71.036  1.00  0.00    -0.200 C  
BRANCH  28  29
HETATM   29  C   UNL     1      -8.962   5.628  71.487  1.00  0.00    -0.148 A  
HETATM   30  C   UNL     1      -9.200   7.013  71.520  1.00  0.00    -0.153 A  
HETATM   31 CL   UNL     1     -10.693   7.707  70.988  1.00  0.00    -0.229 Cl 
HETATM   32  C   UNL     1      -8.224   7.903  71.990  1.00  0.00    -0.149 A  
HETATM   33  C   UNL     1      -6.986   7.429  72.410  1.00  0.00    -0.063 A  
HETATM   34  C   UNL     1      -6.711   6.067  72.335  1.00  0.00    -0.069 A  
HETATM   35  C   UNL     1      -7.685   5.175  71.866  1.00  0.00    -0.109 A  
HETATM   36 CL   UNL     1      -7.235   3.506  71.780  1.00  0.00    -0.045 Cl 
ENDBRANCH  28  29
ENDBRANCH  27  28
ENDBRANCH  26  27
ENDBRANCH  25  26
ENDBRANCH  24  25
ENDBRANCH  23  24
ENDBRANCH  22  23
ENDBRANCH  21  22
ENDBRANCH  20  21
ENDBRANCH  19  20
ENDBRANCH  18  19
ENDBRANCH  16  18
ENDBRANCH  15  16
ENDBRANCH  12  15
ENDBRANCH  10  12
ENDBRANCH   2   4
TORSDOF 16
ENDMDL
MODEL      427
REMARK 921   NORMALIZED FREE ENERGY PREDICTED BY IDOCK:   -2.50 KCAL/MOL
REMARK 922        TOTAL FREE ENERGY PREDICTED BY IDOCK:   -6.90 KCAL/MOL
REMARK 923 INTER-LIGAND FREE ENERGY PREDICTED BY IDOCK:   -6.16 KCAL/MOL
REMARK 924 INTRA-LIGAND FREE ENERGY PREDICTED BY IDOCK:   -0.74 KCAL/MOL
REMARK 927      BINDING AFFINITY PREDICTED BY RF-SCORE:    0.00 PKD
ROOT
HETATM    1  O   UNL     1     -11.250  16.717  69.517  1.00  0.00    -0.304 OA 
HETATM    2  C   UNL     1     -10.482  17.213  68.420  1.00  0.00    -0.376 C  
HETATM    3  H   UNL     1     -11.060  17.200  70.313  1.00  0.00     0.000 HD 
ENDROOT
BRANCH   2   4
HETATM    4  C   UNL     1     -10.783  16.447  67.159  1.00  0.00    -0.233 A  
HETATM    5  C   UNL     1     -10.746  17.020  65.883  1.00  0.00    -0.139 A  
HETATM    6  O   UNL     1     -10.357  18.316  65.685  1.00  0.00    -0.607 OA 
HETATM    7  C   UNL     1     -11.101  16.295  64.749  1.00  0.00    -0.293 A  
HETATM    8  C   UNL     1     -11.496  14.965  64.872  1.00  0.00    -0.407 A  
HETATM    9  H   UNL     1     -10.332  18.706  64.819  1.00  0.00     0.000 HD 
HETATM   10  C   UNL     1     -11.545  14.352  66.132  1.00  0.00    -0.372 A  
HETATM   11  C   UNL     1     -11.200  15.108  67.266  1.00  0.00    -0.324 A  
BRANCH  10  12
HETATM   12  C   UNL     1     -12.043  12.927  66.252  1.00  0.00    -0.365 C  
HETATM   13  O   UNL     1     -12.791  12.563  65.083  1.00  0.00    -0.685 OA 
HETATM   14  H   UNL     1     -13.103  11.669  65.159  1.00  0.00     0.000 HD 
BRANCH  12  15
HETATM   15  C   UNL     1     -10.856  11.957  66.429  1.00  0.00    -0.279 C  
BRANCH  15  16
HETATM   16  N   UNL     1      -9.703  12.366  65.610  1.00  0.00    -0.374 NA 
HETATM   17  H   UNL     1      -9.686  13.374  65.451  1.00  0.00     0.000 HD 
BRANCH  16  18
HETATM   18  C   UNL     1      -8.463  11.890  66.214  1.00  0.00     0.031 C  
BRANCH  18  19
HETATM   19  C   UNL     1      -8.632  11.757  67.726  1.00  0.00    -0.151 C  
BRANCH  19  20
HETATM   20  C   UNL     1      -7.577  12.595  68.448  1.00  0.00    -0.132 C  
BRANCH  20  21
HETATM   21  C   UNL     1      -6.450  11.718  68.982  1.00  0.00    -0.084 C  
BRANCH  21  22
HETATM   22  C   UNL     1      -6.958  10.325  69.341  1.00  0.00    -0.083 C  
BRANCH  22  23
HETATM   23  C   UNL     1      -6.371   9.283  68.404  1.00  0.00    -0.053 C  
BRANCH  23  24
HETATM   24  O   UNL     1      -7.411   8.770  67.578  1.00  0.00    -0.088 OA 
BRANCH  24  25
HETATM   25  C   UNL     1      -7.443   7.346  67.633  1.00  0.00    -0.097 C  
BRANCH  25  26
HETATM   26  C   UNL     1      -7.056   6.878  69.026  1.00  0.00    -0.088 C  
BRANCH  26  27
HETATM   27  O   UNL     1      -8.245   6.665  69.788  1.00  0.00    -0.123 OA 
BRANCH  27  28
HETATM   28  C   UNL     1      -7.944   6.359  71.142  1.00  0.00    -0.116 C  
BRANCH  28  29
HETATM   29  C   UNL     1      -7.716   4.877  71.262  1.00  0.00    -0.087 A  
HETATM   30  C   UNL     1      -8.753   3.956  71.032  1.00  0.00    -0.081 A  
HETATM   31 CL   UNL     1     -10.368   4.458  70.665  1.00  0.00    -0.085 Cl 
HETATM   32  C   UNL     1      -8.522   2.575  71.095  1.00  0.00    -0.090 A  
HETATM   33  C   UNL     1      -7.257   2.090  71.411  1.00  0.00    -0.032 A  
HETATM   34  C   UNL     1      -6.230   2.984  71.695  1.00  0.00    -0.014 A  
HETATM   35  C   UNL     1      -6.459   4.364  71.633  1.00  0.00    -0.019 A  
HETATM   36 CL   UNL     1      -5.126   5.393  72.034  1.00  0.00    -0.008 Cl 
ENDBRANCH  28  29
ENDBRANCH  27  28
ENDBRANCH  26  27
ENDBRANCH  25  26
ENDBRANCH  24  25
ENDBRANCH  23  24
ENDBRANCH  22  23
ENDBRANCH  21  22
ENDBRANCH  20  21
ENDBRANCH  19  20
ENDBRANCH  18  19
ENDBRANCH  16  18
ENDBRANCH  15  16
ENDBRANCH  12  15
ENDBRANCH  10  12
ENDBRANCH   2   4
TORSDOF 16
ENDMDL
MODEL      428
REMARK 921   NORMALIZED FREE ENERGY PREDICTED BY IDOCK:   -2.46 KCAL/MOL
REMARK 922        TOTAL FREE ENERGY PREDICTED BY IDOCK:   -6.83 KCAL/MOL
REMARK 923 INTER-LIGAND FREE ENERGY PREDICTED BY IDOCK:   -6.03 KCAL/MOL
REMARK 924 INTRA-LIGAND FREE ENERGY PREDICTED BY IDOCK:   -0.80 KCAL/MOL
REMARK 927      BINDING AFFINITY PREDICTED BY RF-SCORE:    0.00 PKD
ROOT
HETATM    1  O   UNL     1     -10.810  14.970  65.341  1.00  0.00    -0.319 OA 
HETATM    2  C   UNL     1     -10.044  14.516  66.458  1.00  0.00    -0.274 C  
HETATM    3  H   UNL     1     -10.601  15.871  65.127  1.00  0.00     0.000 HD 
ENDROOT
BRANCH   2   4
HETATM    4  C   UNL     1     -10.377  13.086  66.796  1.00  0.00    -0.256 A  
HETATM    5  C   UNL     1     -11.008  12.704  67.986  1.00  0.00    -0.235 A  
HETATM    6  O   UNL     1     -11.437  13.623  68.902  1.00  0.00    -0.261 OA 
HETATM    7  C   UNL     1     -11.232  11.365  68.291  1.00  0.00    -0.326 A  
HETATM    8  C   UNL     1     -10.832  10.372  67.399  1.00  0.00    -0.344 A  
HETATM    9  H   UNL     1     -11.865  13.364  69.709  1.00  0.00     0.000 HD 
HETATM   10  C   UNL     1     -10.198  10.713  66.196  1.00  0.00    -0.308 A  
HETATM   11  C   UNL     1      -9.965  12.071  65.915  1.00  0.00    -0.260 A  
BRANCH  10  12
HETATM   12  C   UNL     1      -9.710   9.617  65.271  1.00  0.00    -0.260 C  
HETATM   13  O   UNL     1      -9.143  10.189  64.083  1.00  0.00    -0.208 OA 
HETATM   14  H   UNL     1      -8.836   9.502  63.503  1.00  0.00     0.000 HD 
BRANCH  12  15
HETATM   15  C   UNL     1      -8.653   8.747  65.982  1.00  0.00    -0.148 C  
BRANCH  15  16
HETATM   16  N   UNL     1      -7.322   8.917  65.375  1.00  0.00    -0.084 NA 
HETATM   17  H   UNL     1      -7.264   8.480  64.455  1.00  0.00     0.000 HD 
BRANCH  16  18
HETATM   18  C   UNL     1      -6.967  10.331  65.330  1.00  0.00    -0.130 C  
BRANCH  18  19
HETATM   19  C   UNL     1      -5.951  10.653  66.422  1.00  0.00    -0.098 C  
BRANCH  19  20
HETATM   20  C   UNL     1      -6.288  11.992  67.078  1.00  0.00    -0.124 C  
BRANCH  20  21
HETATM   21  C   UNL     1      -6.872  11.790  68.471  1.00  0.00    -0.075 C  
BRANCH  21  22
HETATM   22  C   UNL     1      -5.805  11.312  69.452  1.00  0.00    -0.057 C  
BRANCH  22  23
HETATM   23  C   UNL     1      -6.436  10.516  70.583  1.00  0.00     0.004 C  
BRANCH  23  24
HETATM   24  O   UNL     1      -5.702   9.309  70.759  1.00  0.00    -0.034 OA 
BRANCH  24  25
HETATM   25  C   UNL     1      -6.159   8.305  69.855  1.00  0.00    -0.032 C  
BRANCH  25  26
HETATM   26  C   UNL     1      -7.672   8.192  69.937  1.00  0.00    -0.098 C  
BRANCH  26  27
HETATM   27  O   UNL     1      -8.009   7.253  70.959  1.00  0.00    -0.096 OA 
BRANCH  27  28
HETATM   28  C   UNL     1      -8.979   7.782  71.850  1.00  0.00    -0.128 C  
BRANCH  28  29
HETATM   29  C   UNL     1      -9.540   6.657  72.676  1.00  0.00    -0.156 A  
HETATM   30  C   UNL     1     -10.764   6.048  72.347  1.00  0.00    -0.228 A  
HETATM   31 CL   UNL     1     -11.737   6.587  71.021  1.00  0.00    -0.400 Cl 
HETATM   32  C   UNL     1     -11.256   4.967  73.091  1.00  0.00    -0.403 A  
HETATM   33  C   UNL     1     -10.548   4.490  74.189  1.00  0.00    -0.335 A  
HETATM   34  C   UNL     1      -9.362   5.113  74.564  1.00  0.00    -0.132 A  
HETATM   35  C   UNL     1      -8.868   6.194  73.822  1.00  0.00    -0.123 A  
HETATM   36 CL   UNL     1      -7.402   6.921  74.388  1.00  0.00    -0.103 Cl 
ENDBRANCH  28  29
ENDBRANCH  27  28
ENDBRANCH  26  27
ENDBRANCH  25  26
ENDBRANCH  24  25
ENDBRANCH  23  24
ENDBRANCH  22  23
ENDBRANCH  21  22
ENDBRANCH  20  21
ENDBRANCH  19  20
ENDBRANCH  18  19
ENDBRANCH  16  18
ENDBRANCH  15  16
ENDBRANCH  12  15
ENDBRANCH  10  12
ENDBRANCH   2   4
TORSDOF 16
ENDMDL
MODEL      429
REMARK 921   NORMALIZED FREE ENERGY PREDICTED BY IDOCK:   -2.41 KCAL/MOL
REMARK 922        TOTAL FREE ENERGY PREDICTED BY IDOCK:   -6.73 KCAL/MOL
REMARK 923 INTER-LIGAND FREE ENERGY PREDICTED BY IDOCK:   -6.81 KCAL/MOL
REMARK 924 INTRA-LIGAND FREE ENERGY PREDICTED BY IDOCK:    0.08 KCAL/MOL
REMARK 927      BINDING AFFINITY PREDICTED BY RF-SCORE:    0.00 PKD
ROOT
HETATM    1  O   UNL     1      -9.269  15.083  69.682  1.00  0.00    -0.429 OA 
HETATM    2  C   UNL     1     -10.542  15.182  69.044  1.00  0.00    -0.245 C  
HETATM    3  H   UNL     1      -8.989  15.927  70.018  1.00  0.00     0.000 HD 
ENDROOT
BRANCH   2   4
HETATM    4  C   UNL     1     -10.985  13.844  68.511  1.00  0.00    -0.277 A  
HETATM    5  C   UNL     1     -11.633  12.881  69.293  1.00  0.00    -0.310 A  
HETATM    6  O   UNL     1     -11.978  13.121  70.594  1.00  0.00    -0.502 OA 
HETATM    7  C   UNL     1     -11.961  11.629  68.780  1.00  0.00    -0.326 A  
HETATM    8  C   UNL     1     -11.651  11.318  67.458  1.00  0.00    -0.257 A  
HETATM    9  H   UNL     1     -12.418  12.467  71.125  1.00  0.00     0.000 HD 
HETATM   10  C   UNL     1     -11.004  12.255  66.641  1.00  0.00    -0.321 A  
HETATM   11  C   UNL     1     -10.665  13.507  67.184  1.00  0.00    -0.282 A  
BRANCH  10  12
HETATM   12  C   UNL     1     -10.614  11.873  65.228  1.00  0.00    -0.275 C  
HETATM   13  O   UNL     1     -10.122  13.021  64.523  1.00  0.00    -0.541 OA 
HETATM   14  H   UNL     1      -9.877  12.782  63.637  1.00  0.00     0.000 HD 
BRANCH  12  15
HETATM   15  C   UNL     1      -9.530  10.775  65.249  1.00  0.00    -0.218 C  
BRANCH  15  16
HETATM   16  N   UNL     1      -8.329  11.222  65.976  1.00  0.00    -0.317 NA 
HETATM   17  H   UNL     1      -8.485  12.101  66.468  1.00  0.00     0.000 HD 
BRANCH  16  18
HETATM   18  C   UNL     1      -7.865  10.169  66.874  1.00  0.00    -0.107 C  
BRANCH  18  19
HETATM   19  C   UNL     1      -6.982  10.764  67.968  1.00  0.00    -0.073 C  
BRANCH  19  20
HETATM   20  C   UNL     1      -7.247  10.060  69.298  1.00  0.00    -0.078 C  
BRANCH  20  21
HETATM   21  C   UNL     1      -8.139   8.839  69.106  1.00  0.00    -0.118 C  
BRANCH  21  22
HETATM   22  C   UNL     1      -9.499   9.040  69.767  1.00  0.00    -0.181 C  
BRANCH  22  23
HETATM   23  C   UNL     1      -9.469   8.563  71.210  1.00  0.00    -0.205 C  
BRANCH  23  24
HETATM   24  O   UNL     1      -9.940   7.220  71.258  1.00  0.00    -0.188 OA 
BRANCH  24  25
HETATM   25  C   UNL     1      -9.242   6.407  70.317  1.00  0.00    -0.155 C  
BRANCH  25  26
HETATM   26  C   UNL     1      -8.728   5.153  71.005  1.00  0.00    -0.128 C  
BRANCH  26  27
HETATM   27  O   UNL     1      -9.291   4.010  70.361  1.00  0.00    -0.127 OA 
BRANCH  27  28
HETATM   28  C   UNL     1     -10.104   4.385  69.258  1.00  0.00     0.049 C  
BRANCH  28  29
HETATM   29  C   UNL     1      -9.362   4.080  67.986  1.00  0.00    -0.220 A  
HETATM   30  C   UNL     1      -8.337   3.119  67.950  1.00  0.00    -0.080 A  
HETATM   31 CL   UNL     1      -7.813   2.274  69.367  1.00  0.00    -0.047 Cl 
HETATM   32  C   UNL     1      -7.685   2.802  66.751  1.00  0.00    -0.075 A  
HETATM   33  C   UNL     1      -8.027   3.455  65.572  1.00  0.00    -0.089 A  
HETATM   34  C   UNL     1      -9.002   4.447  65.596  1.00  0.00    -0.132 A  
HETATM   35  C   UNL     1      -9.655   4.766  66.793  1.00  0.00    -0.173 A  
HETATM   36 CL   UNL     1     -10.829   6.037  66.725  1.00  0.00    -0.385 Cl 
ENDBRANCH  28  29
ENDBRANCH  27  28
ENDBRANCH  26  27
ENDBRANCH  25  26
ENDBRANCH  24  25
ENDBRANCH  23  24
ENDBRANCH  22  23
ENDBRANCH  21  22
ENDBRANCH  20  21
ENDBRANCH  19  20
ENDBRANCH  18  19
ENDBRANCH  16  18
ENDBRANCH  15  16
ENDBRANCH  12  15
ENDBRANCH  10  12
ENDBRANCH   2   4
TORSDOF 16
ENDMDL
MODEL      430
REMARK 921   NORMALIZED FREE ENERGY PREDICTED BY IDOCK:   -2.38 KCAL/MOL
REMARK 922        TOTAL FREE ENERGY PREDICTED BY IDOCK:   -6.67 KCAL/MOL
REMARK 923 INTER-LIGAND FREE ENERGY PREDICTED BY IDOCK:   -5.71 KCAL/MOL
REMARK 924 INTRA-LIGAND FREE ENERGY PREDICTED BY IDOCK:   -0.97 KCAL/MOL
REMARK 927      BINDING AFFINITY PREDICTED BY RF-SCORE:    0.00 PKD
ROOT
HETATM    1  O   UNL     1      -9.153  14.914  69.441  1.00  0.00    -0.377 OA 
HETATM    2  C   UNL     1     -10.451  14.813  68.854  1.00  0.00    -0.249 C  
HETATM    3  H   UNL     1      -8.972  15.805  69.717  1.00  0.00     0.000 HD 
ENDROOT
BRANCH   2   4
HETATM    4  C   UNL     1     -10.738  13.400  68.416  1.00  0.00    -0.271 A  
HETATM    5  C   UNL     1     -11.537  12.515  69.149  1.00  0.00    -0.320 A  
HETATM    6  O   UNL     1     -12.181  12.901  70.291  1.00  0.00    -0.339 OA 
HETATM    7  C   UNL     1     -11.718  11.195  68.745  1.00  0.00    -0.394 A  
HETATM    8  C   UNL     1     -11.103  10.734  67.584  1.00  0.00    -0.384 A  
HETATM    9  H   UNL     1     -12.724  12.301  70.789  1.00  0.00     0.000 HD 
HETATM   10  C   UNL     1     -10.295  11.588  66.820  1.00  0.00    -0.262 A  
HETATM   11  C   UNL     1     -10.111  12.913  67.256  1.00  0.00    -0.231 A  
BRANCH  10  12
HETATM   12  C   UNL     1      -9.580  11.050  65.599  1.00  0.00    -0.226 C  
HETATM   13  O   UNL     1      -9.238  12.124  64.712  1.00  0.00    -0.389 OA 
HETATM   14  H   UNL     1      -8.789  11.786  63.946  1.00  0.00     0.000 HD 
BRANCH  12  15
HETATM   15  C   UNL     1      -8.299  10.296  66.017  1.00  0.00    -0.142 C  
BRANCH  15  16
HETATM   16  N   UNL     1      -7.352  11.190  66.704  1.00  0.00    -0.144 NA 
HETATM   17  H   UNL     1      -7.828  11.851  67.319  1.00  0.00     0.000 HD 
BRANCH  16  18
HETATM   18  C   UNL     1      -6.350  10.406  67.419  1.00  0.00    -0.058 C  
BRANCH  18  19
HETATM   19  C   UNL     1      -5.731  11.239  68.538  1.00  0.00    -0.042 C  
BRANCH  19  20
HETATM   20  C   UNL     1      -6.191  10.716  69.899  1.00  0.00    -0.098 C  
BRANCH  20  21
HETATM   21  C   UNL     1      -7.109   9.509  69.742  1.00  0.00    -0.075 C  
BRANCH  21  22
HETATM   22  C   UNL     1      -8.576   9.915  69.848  1.00  0.00    -0.216 C  
BRANCH  22  23
HETATM   23  C   UNL     1      -9.296   9.057  70.875  1.00  0.00    -0.264 C  
BRANCH  23  24
HETATM   24  O   UNL     1     -10.339   8.340  70.224  1.00  0.00    -0.201 OA 
BRANCH  24  25
HETATM   25  C   UNL     1      -9.872   7.769  69.003  1.00  0.00    -0.169 C  
BRANCH  25  26
HETATM   26  C   UNL     1      -9.133   6.474  69.293  1.00  0.00    -0.137 C  
BRANCH  26  27
HETATM   27  O   UNL     1     -10.087   5.421  69.433  1.00  0.00    -0.191 OA 
BRANCH  27  28
HETATM   28  C   UNL     1      -9.777   4.585  70.539  1.00  0.00    -0.220 C  
BRANCH  28  29
HETATM   29  C   UNL     1      -8.494   3.855  70.249  1.00  0.00    -0.091 A  
HETATM   30  C   UNL     1      -8.452   2.787  69.337  1.00  0.00    -0.062 A  
HETATM   31 CL   UNL     1      -9.870   2.195  68.540  1.00  0.00     0.056 Cl 
HETATM   32  C   UNL     1      -7.244   2.144  69.031  1.00  0.00    -0.043 A  
HETATM   33  C   UNL     1      -6.063   2.541  69.649  1.00  0.00    -0.024 A  
HETATM   34  C   UNL     1      -6.092   3.560  70.595  1.00  0.00    -0.018 A  
HETATM   35  C   UNL     1      -7.298   4.204  70.901  1.00  0.00    -0.041 A  
HETATM   36 CL   UNL     1      -7.235   5.438  72.114  1.00  0.00    -0.085 Cl 
ENDBRANCH  28  29
ENDBRANCH  27  28
ENDBRANCH  26  27
ENDBRANCH  25  26
ENDBRANCH  24  25
ENDBRANCH  23  24
ENDBRANCH  22  23
ENDBRANCH  21  22
ENDBRANCH  20  21
ENDBRANCH  19  20
ENDBRANCH  18  19
ENDBRANCH  16  18
ENDBRANCH  15  16
ENDBRANCH  12  15
ENDBRANCH  10  12
ENDBRANCH   2   4
TORSDOF 16
ENDMDL
MODEL      431
REMARK 921   NORMALIZED FREE ENERGY PREDICTED BY IDOCK:   -2.29 KCAL/MOL
REMARK 922        TOTAL FREE ENERGY PREDICTED BY IDOCK:   -6.50 KCAL/MOL
REMARK 923 INTER-LIGAND FREE ENERGY PREDICTED BY IDOCK:   -5.12 KCAL/MOL
REMARK 924 INTRA-LIGAND FREE ENERGY PREDICTED BY IDOCK:   -1.38 KCAL/MOL
REMARK 927      BINDING AFFINITY PREDICTED BY RF-SCORE:    0.00 PKD
ROOT
HETATM    1  O   UNL     1     -12.451  13.823  64.472  1.00  0.00    -0.571 OA 
HETATM    2  C   UNL     1     -11.182  13.314  64.059  1.00  0.00    -0.339 C  
HETATM    3  H   UNL     1     -12.902  14.243  63.749  1.00  0.00     0.000 HD 
ENDROOT
BRANCH   2   4
HETATM    4  C   UNL     1     -10.468  12.649  65.207  1.00  0.00    -0.312 A  
HETATM    5  C   UNL     1     -10.433  13.178  66.502  1.00  0.00    -0.279 A  
HETATM    6  O   UNL     1     -11.117  14.314  66.836  1.00  0.00    -0.298 OA 
HETATM    7  C   UNL     1      -9.701  12.569  67.517  1.00  0.00    -0.196 A  
HETATM    8  C   UNL     1      -8.988  11.401  67.254  1.00  0.00    -0.159 A  
HETATM    9  H   UNL     1     -11.094  14.673  67.715  1.00  0.00     0.000 HD 
HETATM   10  C   UNL     1      -8.998  10.837  65.971  1.00  0.00    -0.196 A  
HETATM   11  C   UNL     1      -9.730  11.479  64.955  1.00  0.00    -0.268 A  
BRANCH  10  12
HETATM   12  C   UNL     1      -8.162   9.606  65.687  1.00  0.00    -0.120 C  
HETATM   13  O   UNL     1      -7.237   9.379  66.759  1.00  0.00    -0.082 OA 
HETATM   14  H   UNL     1      -6.713   8.606  66.581  1.00  0.00     0.000 HD 
BRANCH  12  15
HETATM   15  C   UNL     1      -9.070   8.370  65.516  1.00  0.00    -0.049 C  
BRANCH  15  16
HETATM   16  N   UNL     1      -9.696   7.984  66.791  1.00  0.00    -0.217 NA 
HETATM   17  H   UNL     1     -10.681   8.246  66.828  1.00  0.00     0.000 HD 
BRANCH  16  18
HETATM   18  C   UNL     1      -9.502   6.558  67.035  1.00  0.00    -0.138 C  
BRANCH  18  19
HETATM   19  C   UNL     1      -8.198   6.327  67.793  1.00  0.00    -0.118 C  
BRANCH  19  20
HETATM   20  C   UNL     1      -7.450   5.132  67.202  1.00  0.00    -0.087 C  
BRANCH  20  21
HETATM   21  C   UNL     1      -7.843   3.836  67.901  1.00  0.00    -0.073 C  
BRANCH  21  22
HETATM   22  C   UNL     1      -6.663   3.241  68.663  1.00  0.00    -0.044 C  
BRANCH  22  23
HETATM   23  C   UNL     1      -7.134   2.153  69.615  1.00  0.00    -0.033 C  
BRANCH  23  24
HETATM   24  O   UNL     1      -6.218   2.066  70.701  1.00  0.00    -0.022 OA 
BRANCH  24  25
HETATM   25  C   UNL     1      -5.552   3.311  70.900  1.00  0.00    -0.013 C  
BRANCH  25  26
HETATM   26  C   UNL     1      -5.513   3.640  72.383  1.00  0.00     0.000 C  
BRANCH  26  27
HETATM   27  O   UNL     1      -6.396   4.733  72.635  1.00  0.00    -0.034 OA 
BRANCH  27  28
HETATM   28  C   UNL     1      -7.242   4.984  71.523  1.00  0.00    -0.069 C  
BRANCH  28  29
HETATM   29  C   UNL     1      -8.607   5.362  72.030  1.00  0.00    -0.131 A  
HETATM   30  C   UNL     1      -8.988   6.708  72.169  1.00  0.00    -0.138 A  
HETATM   31 CL   UNL     1      -7.903   8.014  71.834  1.00  0.00    -0.111 Cl 
HETATM   32  C   UNL     1     -10.278   7.054  72.592  1.00  0.00    -0.218 A  
HETATM   33  C   UNL     1     -11.202   6.063  72.908  1.00  0.00    -0.265 A  
HETATM   34  C   UNL     1     -10.828   4.726  72.829  1.00  0.00    -0.280 A  
HETATM   35  C   UNL     1      -9.539   4.377  72.406  1.00  0.00    -0.147 A  
HETATM   36 CL   UNL     1      -9.161   2.689  72.372  1.00  0.00    -0.116 Cl 
ENDBRANCH  28  29
ENDBRANCH  27  28
ENDBRANCH  26  27
ENDBRANCH  25  26
ENDBRANCH  24  25
ENDBRANCH  23  24
ENDBRANCH  22  23
ENDBRANCH  21  22
ENDBRANCH  20  21
ENDBRANCH  19  20
ENDBRANCH  18  19
ENDBRANCH  16  18
ENDBRANCH  15  16
ENDBRANCH  12  15
ENDBRANCH  10  12
ENDBRANCH   2   4
TORSDOF 16
ENDMDL
MODEL      432
REMARK 921   NORMALIZED FREE ENERGY PREDICTED BY IDOCK:   -2.22 KCAL/MOL
REMARK 922        TOTAL FREE ENERGY PREDICTED BY IDOCK:   -6.36 KCAL/MOL
REMARK 923 INTER-LIGAND FREE ENERGY PREDICTED BY IDOCK:   -6.73 KCAL/MOL
REMARK 924 INTRA-LIGAND FREE ENERGY PREDICTED BY IDOCK:    0.37 KCAL/MOL
REMARK 927      BINDING AFFINITY PREDICTED BY RF-SCORE:    0.00 PKD
ROOT
HETATM    1  O   UNL     1      -8.230  18.092  67.272  1.00  0.00    -0.214 OA 
HETATM    2  C   UNL     1      -9.366  17.232  67.174  1.00  0.00    -0.243 C  
HETATM    3  H   UNL     1      -8.490  19.005  67.249  1.00  0.00     0.000 HD 
ENDROOT
BRANCH   2   4
HETATM    4  C   UNL     1      -8.953  15.784  67.210  1.00  0.00    -0.211 A  
HETATM    5  C   UNL     1      -7.659  15.361  67.533  1.00  0.00    -0.181 A  
HETATM    6  O   UNL     1      -6.686  16.242  67.913  1.00  0.00    -0.121 OA 
HETATM    7  C   UNL     1      -7.301  14.017  67.485  1.00  0.00    -0.187 A  
HETATM    8  C   UNL     1      -8.244  13.059  67.118  1.00  0.00    -0.132 A  
HETATM    9  H   UNL     1      -5.807  15.955  68.132  1.00  0.00     0.000 HD 
HETATM   10  C   UNL     1      -9.552  13.441  66.788  1.00  0.00    -0.262 A  
HETATM   11  C   UNL     1      -9.888  14.806  66.826  1.00  0.00    -0.263 A  
BRANCH  10  12
HETATM   12  C   UNL     1     -10.543  12.394  66.325  1.00  0.00    -0.249 C  
HETATM   13  O   UNL     1      -9.866  11.161  66.044  1.00  0.00    -0.211 OA 
HETATM   14  H   UNL     1     -10.488  10.504  65.754  1.00  0.00     0.000 HD 
BRANCH  12  15
HETATM   15  C   UNL     1     -11.619  12.159  67.406  1.00  0.00    -0.340 C  
BRANCH  15  16
HETATM   16  N   UNL     1     -11.015  12.014  68.741  1.00  0.00    -0.228 NA 
HETATM   17  H   UNL     1     -11.695  12.167  69.486  1.00  0.00     0.000 HD 
BRANCH  16  18
HETATM   18  C   UNL     1     -10.362  10.715  68.858  1.00  0.00    -0.207 C  
BRANCH  18  19
HETATM   19  C   UNL     1     -10.961   9.928  70.021  1.00  0.00    -0.338 C  
BRANCH  19  20
HETATM   20  C   UNL     1     -12.008  10.774  70.744  1.00  0.00    -0.464 C  
BRANCH  20  21
HETATM   21  C   UNL     1     -13.096   9.898  71.356  1.00  0.00    -0.500 C  
BRANCH  21  22
HETATM   22  C   UNL     1     -12.493   8.720  72.115  1.00  0.00    -0.460 C  
BRANCH  22  23
HETATM   23  C   UNL     1     -13.095   7.409  71.635  1.00  0.00    -0.364 C  
BRANCH  23  24
HETATM   24  O   UNL     1     -12.075   6.416  71.619  1.00  0.00    -0.332 OA 
BRANCH  24  25
HETATM   25  C   UNL     1     -10.843   6.950  72.099  1.00  0.00    -0.225 C  
BRANCH  25  26
HETATM   26  C   UNL     1      -9.688   6.090  71.613  1.00  0.00    -0.158 C  
BRANCH  26  27
HETATM   27  O   UNL     1      -9.011   5.544  72.745  1.00  0.00    -0.123 OA 
BRANCH  27  28
HETATM   28  C   UNL     1      -7.999   4.629  72.352  1.00  0.00    -0.095 C  
BRANCH  28  29
HETATM   29  C   UNL     1      -7.649   4.886  70.912  1.00  0.00    -0.073 A  
HETATM   30  C   UNL     1      -6.753   5.907  70.549  1.00  0.00    -0.052 A  
HETATM   31 CL   UNL     1      -6.049   6.975  71.714  1.00  0.00    -0.037 Cl 
HETATM   32  C   UNL     1      -6.391   6.108  69.210  1.00  0.00    -0.041 A  
HETATM   33  C   UNL     1      -6.934   5.310  68.209  1.00  0.00    -0.061 A  
HETATM   34  C   UNL     1      -7.863   4.330  68.541  1.00  0.00    -0.074 A  
HETATM   35  C   UNL     1      -8.226   4.126  69.878  1.00  0.00    -0.057 A  
HETATM   36 CL   UNL     1      -9.413   2.904  70.185  1.00  0.00    -0.224 Cl 
ENDBRANCH  28  29
ENDBRANCH  27  28
ENDBRANCH  26  27
ENDBRANCH  25  26
ENDBRANCH  24  25
ENDBRANCH  23  24
ENDBRANCH  22  23
ENDBRANCH  21  22
ENDBRANCH  20  21
ENDBRANCH  19  20
ENDBRANCH  18  19
ENDBRANCH  16  18
ENDBRANCH  15  16
ENDBRANCH  12  15
ENDBRANCH  10  12
ENDBRANCH   2   4
TORSDOF 16
ENDMDL
MODEL      433
REMARK 921   NORMALIZED FREE ENERGY PREDICTED BY IDOCK:   -2.16 KCAL/MOL
REMARK 922        TOTAL FREE ENERGY PREDICTED BY IDOCK:   -6.26 KCAL/MOL
REMARK 923 INTER-LIGAND FREE ENERGY PREDICTED BY IDOCK:   -6.66 KCAL/MOL
REMARK 924 INTRA-LIGAND FREE ENERGY PREDICTED BY IDOCK:    0.41 KCAL/MOL
REMARK 927      BINDING AFFINITY PREDICTED BY RF-SCORE:    0.00 PKD
ROOT
HETATM    1  O   UNL     1      -7.562  19.233  69.296  1.00  0.00    -0.305 OA 
HETATM    2  C   UNL     1      -7.561  18.212  68.297  1.00  0.00    -0.274 C  
HETATM    3  H   UNL     1      -6.879  19.082  69.938  1.00  0.00     0.000 HD 
ENDROOT
BRANCH   2   4
HETATM    4  C   UNL     1      -8.646  18.451  67.279  1.00  0.00    -0.261 A  
HETATM    5  C   UNL     1      -9.012  19.725  66.830  1.00  0.00    -0.339 A  
HETATM    6  O   UNL     1      -8.352  20.851  67.236  1.00  0.00    -0.510 OA 
HETATM    7  C   UNL     1     -10.069  19.906  65.942  1.00  0.00    -0.519 A  
HETATM    8  C   UNL     1     -10.781  18.804  65.476  1.00  0.00    -0.016 A  
HETATM    9  H   UNL     1      -8.600  21.716  66.931  1.00  0.00     0.000 HD 
HETATM   10  C   UNL     1     -10.445  17.511  65.900  1.00  0.00    -0.251 A  
HETATM   11  C   UNL     1      -9.386  17.351  66.811  1.00  0.00    -0.279 A  
BRANCH  10  12
HETATM   12  C   UNL     1     -11.274  16.331  65.435  1.00  0.00     0.037 C  
HETATM   13  O   UNL     1     -11.205  16.209  64.008  1.00  0.00    -1.164 OA 
HETATM   14  H   UNL     1     -11.725  15.469  63.716  1.00  0.00     0.000 HD 
BRANCH  12  15
HETATM   15  C   UNL     1     -10.769  15.029  66.091  1.00  0.00    -0.327 C  
BRANCH  15  16
HETATM   16  N   UNL     1      -9.670  14.430  65.315  1.00  0.00    -0.540 NA 
HETATM   17  H   UNL     1      -8.756  14.728  65.656  1.00  0.00     0.000 HD 
BRANCH  16  18
HETATM   18  C   UNL     1      -9.799  12.977  65.301  1.00  0.00    -0.085 C  
BRANCH  18  19
HETATM   19  C   UNL     1     -10.558  12.504  66.538  1.00  0.00    -0.265 C  
BRANCH  19  20
HETATM   20  C   UNL     1     -10.774  10.992  66.478  1.00  0.00    -0.298 C  
BRANCH  20  21
HETATM   21  C   UNL     1     -10.892  10.398  67.876  1.00  0.00    -0.331 C  
BRANCH  21  22
HETATM   22  C   UNL     1     -11.384   8.955  67.822  1.00  0.00     0.826 C  
BRANCH  22  23
HETATM   23  C   UNL     1     -10.526   8.131  66.876  1.00  0.00    -0.309 C  
BRANCH  23  24
HETATM   24  O   UNL     1      -9.441   7.573  67.609  1.00  0.00    -0.136 OA 
BRANCH  24  25
HETATM   25  C   UNL     1      -9.919   6.692  68.623  1.00  0.00    -0.147 C  
BRANCH  25  26
HETATM   26  C   UNL     1      -9.030   6.795  69.852  1.00  0.00    -0.144 C  
BRANCH  26  27
HETATM   27  O   UNL     1      -9.665   6.121  70.938  1.00  0.00    -0.174 OA 
BRANCH  27  28
HETATM   28  C   UNL     1     -10.086   4.817  70.564  1.00  0.00    -0.220 C  
BRANCH  28  29
HETATM   29  C   UNL     1      -8.933   3.868  70.742  1.00  0.00    -0.153 A  
HETATM   30  C   UNL     1      -8.759   3.145  71.935  1.00  0.00    -0.081 A  
HETATM   31 CL   UNL     1      -9.810   3.342  73.296  1.00  0.00    -0.156 Cl 
HETATM   32  C   UNL     1      -7.712   2.224  72.076  1.00  0.00    -0.045 A  
HETATM   33  C   UNL     1      -6.807   2.027  71.039  1.00  0.00    -0.032 A  
HETATM   34  C   UNL     1      -6.929   2.772  69.871  1.00  0.00    -0.034 A  
HETATM   35  C   UNL     1      -7.975   3.693  69.727  1.00  0.00    -0.050 A  
HETATM   36 CL   UNL     1      -8.021   4.593  68.249  1.00  0.00    -0.084 Cl 
ENDBRANCH  28  29
ENDBRANCH  27  28
ENDBRANCH  26  27
ENDBRANCH  25  26
ENDBRANCH  24  25
ENDBRANCH  23  24
ENDBRANCH  22  23
ENDBRANCH  21  22
ENDBRANCH  20  21
ENDBRANCH  19  20
ENDBRANCH  18  19
ENDBRANCH  16  18
ENDBRANCH  15  16
ENDBRANCH  12  15
ENDBRANCH  10  12
ENDBRANCH   2   4
TORSDOF 16
ENDMDL
MODEL      434
REMARK 921   NORMALIZED FREE ENERGY PREDICTED BY IDOCK:   -2.16 KCAL/MOL
REMARK 922        TOTAL FREE ENERGY PREDICTED BY IDOCK:   -6.25 KCAL/MOL
REMARK 923 INTER-LIGAND FREE ENERGY PREDICTED BY IDOCK:   -6.64 KCAL/MOL
REMARK 924 INTRA-LIGAND FREE ENERGY PREDICTED BY IDOCK:    0.40 KCAL/MOL
REMARK 927      BINDING AFFINITY PREDICTED BY RF-SCORE:    0.00 PKD
ROOT
HETATM    1  O   UNL     1      -8.230  18.092  67.272  1.00  0.00    -0.214 OA 
HETATM    2  C   UNL     1      -9.366  17.232  67.174  1.00  0.00    -0.243 C  
HETATM    3  H   UNL     1      -8.490  19.005  67.249  1.00  0.00     0.000 HD 
ENDROOT
BRANCH   2   4
HETATM    4  C   UNL     1      -8.953  15.784  67.210  1.00  0.00    -0.211 A  
HETATM    5  C   UNL     1      -7.659  15.361  67.533  1.00  0.00    -0.181 A  
HETATM    6  O   UNL     1      -6.685  16.242  67.913  1.00  0.00    -0.121 OA 
HETATM    7  C   UNL     1      -7.300  14.017  67.485  1.00  0.00    -0.187 A  
HETATM    8  C   UNL     1      -8.243  13.059  67.118  1.00  0.00    -0.132 A  
HETATM    9  H   UNL     1      -5.807  15.956  68.132  1.00  0.00     0.000 HD 
HETATM   10  C   UNL     1      -9.551  13.441  66.789  1.00  0.00    -0.262 A  
HETATM   11  C   UNL     1      -9.887  14.806  66.826  1.00  0.00    -0.263 A  
BRANCH  10  12
HETATM   12  C   UNL     1     -10.543  12.394  66.325  1.00  0.00    -0.249 C  
HETATM   13  O   UNL     1      -9.865  11.161  66.044  1.00  0.00    -0.211 OA 
HETATM   14  H   UNL     1     -10.487  10.504  65.754  1.00  0.00     0.000 HD 
BRANCH  12  15
HETATM   15  C   UNL     1     -11.619  12.158  67.406  1.00  0.00    -0.340 C  
BRANCH  15  16
HETATM   16  N   UNL     1     -11.014  12.014  68.741  1.00  0.00    -0.228 NA 
HETATM   17  H   UNL     1     -11.694  12.167  69.487  1.00  0.00     0.000 HD 
BRANCH  16  18
HETATM   18  C   UNL     1     -10.361  10.714  68.858  1.00  0.00    -0.207 C  
BRANCH  18  19
HETATM   19  C   UNL     1     -10.960   9.928  70.021  1.00  0.00    -0.338 C  
BRANCH  19  20
HETATM   20  C   UNL     1     -12.007  10.773  70.745  1.00  0.00    -0.464 C  
BRANCH  20  21
HETATM   21  C   UNL     1     -13.094   9.897  71.356  1.00  0.00    -0.500 C  
BRANCH  21  22
HETATM   22  C   UNL     1     -12.491   8.720  72.115  1.00  0.00    -0.460 C  
BRANCH  22  23
HETATM   23  C   UNL     1     -13.092   7.409  71.636  1.00  0.00    -0.364 C  
BRANCH  23  24
HETATM   24  O   UNL     1     -12.073   6.415  71.619  1.00  0.00    -0.332 OA 
BRANCH  24  25
HETATM   25  C   UNL     1     -10.841   6.949  72.099  1.00  0.00    -0.225 C  
BRANCH  25  26
HETATM   26  C   UNL     1      -9.686   6.090  71.613  1.00  0.00    -0.158 C  
BRANCH  26  27
HETATM   27  O   UNL     1     -10.138   5.284  70.524  1.00  0.00    -0.209 OA 
BRANCH  27  28
HETATM   28  C   UNL     1      -9.069   4.550  69.944  1.00  0.00    -0.107 C  
BRANCH  28  29
HETATM   29  C   UNL     1      -7.937   4.484  70.933  1.00  0.00    -0.072 A  
HETATM   30  C   UNL     1      -7.923   3.531  71.966  1.00  0.00    -0.063 A  
HETATM   31 CL   UNL     1      -9.227   2.420  72.214  1.00  0.00    -0.128 Cl 
HETATM   32  C   UNL     1      -6.842   3.440  72.853  1.00  0.00    -0.038 A  
HETATM   33  C   UNL     1      -5.766   4.315  72.739  1.00  0.00    -0.011 A  
HETATM   34  C   UNL     1      -5.784   5.300  71.757  1.00  0.00    -0.020 A  
HETATM   35  C   UNL     1      -6.864   5.393  70.870  1.00  0.00    -0.048 A  
HETATM   36 CL   UNL     1      -6.807   6.672  69.705  1.00  0.00    -0.053 Cl 
ENDBRANCH  28  29
ENDBRANCH  27  28
ENDBRANCH  26  27
ENDBRANCH  25  26
ENDBRANCH  24  25
ENDBRANCH  23  24
ENDBRANCH  22  23
ENDBRANCH  21  22
ENDBRANCH  20  21
ENDBRANCH  19  20
ENDBRANCH  18  19
ENDBRANCH  16  18
ENDBRANCH  15  16
ENDBRANCH  12  15
ENDBRANCH  10  12
ENDBRANCH   2   4
TORSDOF 16
ENDMDL
MODEL      435
REMARK 921   NORMALIZED FREE ENERGY PREDICTED BY IDOCK:   -2.10 KCAL/MOL
REMARK 922        TOTAL FREE ENERGY PREDICTED BY IDOCK:   -6.14 KCAL/MOL
REMARK 923 INTER-LIGAND FREE ENERGY PREDICTED BY IDOCK:   -5.70 KCAL/MOL
REMARK 924 INTRA-LIGAND FREE ENERGY PREDICTED BY IDOCK:   -0.44 KCAL/MOL
REMARK 927      BINDING AFFINITY PREDICTED BY RF-SCORE:    0.00 PKD
ROOT
HETATM    1  O   UNL     1     -13.767  14.681  65.698  1.00  0.00    -0.188 OA 
HETATM    2  C   UNL     1     -12.553  14.412  64.997  1.00  0.00    -0.301 C  
HETATM    3  H   UNL     1     -14.338  15.244  65.188  1.00  0.00     0.000 HD 
ENDROOT
BRANCH   2   4
HETATM    4  C   UNL     1     -11.648  13.520  65.807  1.00  0.00    -0.351 A  
HETATM    5  C   UNL     1     -11.542  13.593  67.201  1.00  0.00    -0.361 A  
HETATM    6  O   UNL     1     -12.318  14.442  67.940  1.00  0.00    -0.615 OA 
HETATM    7  C   UNL     1     -10.640  12.799  67.903  1.00  0.00    -0.232 A  
HETATM    8  C   UNL     1      -9.825  11.901  67.218  1.00  0.00    -0.197 A  
HETATM    9  H   UNL     1     -12.246  14.492  68.885  1.00  0.00     0.000 HD 
HETATM   10  C   UNL     1      -9.901  11.795  65.822  1.00  0.00    -0.267 A  
HETATM   11  C   UNL     1     -10.806  12.620  65.130  1.00  0.00    -0.321 A  
BRANCH  10  12
HETATM   12  C   UNL     1      -8.959  10.863  65.089  1.00  0.00    -0.180 C  
HETATM   13  O   UNL     1      -7.683  10.833  65.745  1.00  0.00    -0.215 OA 
HETATM   14  H   UNL     1      -7.092  10.248  65.285  1.00  0.00     0.000 HD 
BRANCH  12  15
HETATM   15  C   UNL     1      -9.548   9.438  65.036  1.00  0.00    -0.056 C  
BRANCH  15  16
HETATM   16  N   UNL     1     -10.263   9.107  66.280  1.00  0.00    -0.252 NA 
HETATM   17  H   UNL     1     -11.150   9.606  66.355  1.00  0.00     0.000 HD 
BRANCH  16  18
HETATM   18  C   UNL     1     -10.440   7.663  66.389  1.00  0.00     0.288 C  
BRANCH  18  19
HETATM   19  C   UNL     1      -9.193   7.026  66.996  1.00  0.00    -0.167 C  
BRANCH  19  20
HETATM   20  C   UNL     1      -8.535   6.088  65.984  1.00  0.00    -0.139 C  
BRANCH  20  21
HETATM   21  C   UNL     1      -8.532   4.650  66.489  1.00  0.00    -0.109 C  
BRANCH  21  22
HETATM   22  C   UNL     1      -7.162   4.003  66.303  1.00  0.00    -0.068 C  
BRANCH  22  23
HETATM   23  C   UNL     1      -7.041   2.751  67.157  1.00  0.00    -0.053 C  
BRANCH  23  24
HETATM   24  O   UNL     1      -6.433   3.098  68.396  1.00  0.00    -0.035 OA 
BRANCH  24  25
HETATM   25  C   UNL     1      -6.867   4.386  68.828  1.00  0.00    -0.050 C  
BRANCH  25  26
HETATM   26  C   UNL     1      -7.452   4.288  70.227  1.00  0.00    -0.046 C  
BRANCH  26  27
HETATM   27  O   UNL     1      -8.758   4.865  70.222  1.00  0.00    -0.095 OA 
BRANCH  27  28
HETATM   28  C   UNL     1      -8.967   5.682  71.365  1.00  0.00    -0.140 C  
BRANCH  28  29
HETATM   29  C   UNL     1      -9.082   7.114  70.920  1.00  0.00    -0.152 A  
HETATM   30  C   UNL     1     -10.131   7.538  70.084  1.00  0.00    -0.195 A  
HETATM   31 CL   UNL     1     -11.315   6.442  69.460  1.00  0.00    -0.470 Cl 
HETATM   32  C   UNL     1     -10.262   8.884  69.715  1.00  0.00    -0.207 A  
HETATM   33  C   UNL     1      -9.335   9.825  70.152  1.00  0.00    -0.261 A  
HETATM   34  C   UNL     1      -8.260   9.417  70.935  1.00  0.00    -0.103 A  
HETATM   35  C   UNL     1      -8.127   8.072  71.306  1.00  0.00    -0.104 A  
HETATM   36 CL   UNL     1      -6.739   7.660  72.254  1.00  0.00    -0.055 Cl 
ENDBRANCH  28  29
ENDBRANCH  27  28
ENDBRANCH  26  27
ENDBRANCH  25  26
ENDBRANCH  24  25
ENDBRANCH  23  24
ENDBRANCH  22  23
ENDBRANCH  21  22
ENDBRANCH  20  21
ENDBRANCH  19  20
ENDBRANCH  18  19
ENDBRANCH  16  18
ENDBRANCH  15  16
ENDBRANCH  12  15
ENDBRANCH  10  12
ENDBRANCH   2   4
TORSDOF 16
ENDMDL
MODEL      436
REMARK 921   NORMALIZED FREE ENERGY PREDICTED BY IDOCK:   -2.01 KCAL/MOL
REMARK 922        TOTAL FREE ENERGY PREDICTED BY IDOCK:   -5.95 KCAL/MOL
REMARK 923 INTER-LIGAND FREE ENERGY PREDICTED BY IDOCK:   -6.71 KCAL/MOL
REMARK 924 INTRA-LIGAND FREE ENERGY PREDICTED BY IDOCK:    0.75 KCAL/MOL
REMARK 927      BINDING AFFINITY PREDICTED BY RF-SCORE:    0.00 PKD
ROOT
HETATM    1  O   UNL     1      -7.265  11.586  67.120  1.00  0.00    -0.122 OA 
HETATM    2  C   UNL     1      -7.653  10.386  66.449  1.00  0.00    -0.123 C  
HETATM    3  H   UNL     1      -6.603  11.409  67.778  1.00  0.00     0.000 HD 
ENDROOT
BRANCH   2   4
HETATM    4  C   UNL     1      -8.704  10.666  65.406  1.00  0.00    -0.195 A  
HETATM    5  C   UNL     1      -8.958   9.818  64.323  1.00  0.00    -0.237 A  
HETATM    6  O   UNL     1      -8.311   8.622  64.175  1.00  0.00    -0.211 OA 
HETATM    7  C   UNL     1      -9.889  10.150  63.342  1.00  0.00     0.020 A  
HETATM    8  C   UNL     1     -10.596  11.347  63.433  1.00  0.00    -0.435 A  
HETATM    9  H   UNL     1      -8.484   8.046  63.440  1.00  0.00     0.000 HD 
HETATM   10  C   UNL     1     -10.372  12.224  64.503  1.00  0.00    -0.339 A  
HETATM   11  C   UNL     1      -9.415  11.878  65.473  1.00  0.00    -0.152 A  
BRANCH  10  12
HETATM   12  C   UNL     1     -11.100  13.552  64.547  1.00  0.00    -0.381 C  
HETATM   13  O   UNL     1     -11.918  13.707  63.379  1.00  0.00    -0.751 OA 
HETATM   14  H   UNL     1     -12.374  14.540  63.407  1.00  0.00     0.000 HD 
BRANCH  12  15
HETATM   15  C   UNL     1     -11.981  13.638  65.811  1.00  0.00    -0.395 C  
BRANCH  15  16
HETATM   16  N   UNL     1     -11.196  13.379  67.030  1.00  0.00    -0.296 NA 
HETATM   17  H   UNL     1     -10.849  14.240  67.452  1.00  0.00     0.000 HD 
BRANCH  16  18
HETATM   18  C   UNL     1     -11.979  12.587  67.973  1.00  0.00    -0.223 C  
BRANCH  18  19
HETATM   19  C   UNL     1     -11.945  13.232  69.355  1.00  0.00    -0.356 C  
BRANCH  19  20
HETATM   20  C   UNL     1     -12.605  14.610  69.310  1.00  0.00     0.093 C  
BRANCH  20  21
HETATM   21  C   UNL     1     -11.699  15.674  69.919  1.00  0.00    -0.372 C  
BRANCH  21  22
HETATM   22  C   UNL     1     -10.319  15.106  70.237  1.00  0.00    -0.095 C  
BRANCH  22  23
HETATM   23  C   UNL     1      -9.537  14.853  68.959  1.00  0.00    -0.204 C  
BRANCH  23  24
HETATM   24  O   UNL     1      -9.170  16.106  68.390  1.00  0.00    -0.193 OA 
BRANCH  24  25
HETATM   25  C   UNL     1      -9.661  16.216  67.055  1.00  0.00    -0.230 C  
BRANCH  25  26
HETATM   26  C   UNL     1      -8.496  16.370  66.092  1.00  0.00    -0.294 C  
BRANCH  26  27
HETATM   27  O   UNL     1      -7.533  17.251  66.671  1.00  0.00    -0.199 OA 
BRANCH  27  28
HETATM   28  C   UNL     1      -7.835  18.609  66.384  1.00  0.00    -0.283 C  
BRANCH  28  29
HETATM   29  C   UNL     1      -8.582  19.194  67.552  1.00  0.00    -0.317 A  
HETATM   30  C   UNL     1      -9.933  19.565  67.443  1.00  0.00    -0.383 A  
HETATM   31 CL   UNL     1     -10.809  19.439  65.956  1.00  0.00    -0.468 Cl 
HETATM   32  C   UNL     1     -10.638  20.062  68.549  1.00  0.00    -0.144 A  
HETATM   33  C   UNL     1      -9.999  20.220  69.774  1.00  0.00     0.296 A  
HETATM   34  C   UNL     1      -8.648  19.910  69.889  1.00  0.00     0.902 A  
HETATM   35  C   UNL     1      -7.942  19.413  68.786  1.00  0.00    -0.356 A  
HETATM   36 CL   UNL     1      -6.258  19.088  69.022  1.00  0.00    -0.264 Cl 
ENDBRANCH  28  29
ENDBRANCH  27  28
ENDBRANCH  26  27
ENDBRANCH  25  26
ENDBRANCH  24  25
ENDBRANCH  23  24
ENDBRANCH  22  23
ENDBRANCH  21  22
ENDBRANCH  20  21
ENDBRANCH  19  20
ENDBRANCH  18  19
ENDBRANCH  16  18
ENDBRANCH  15  16
ENDBRANCH  12  15
ENDBRANCH  10  12
ENDBRANCH   2   4
TORSDOF 16
ENDMDL
MODEL      437
REMARK 921   NORMALIZED FREE ENERGY PREDICTED BY IDOCK:   -1.94 KCAL/MOL
REMARK 922        TOTAL FREE ENERGY PREDICTED BY IDOCK:   -5.84 KCAL/MOL
REMARK 923 INTER-LIGAND FREE ENERGY PREDICTED BY IDOCK:   -6.68 KCAL/MOL
REMARK 924 INTRA-LIGAND FREE ENERGY PREDICTED BY IDOCK:    0.84 KCAL/MOL
REMARK 927      BINDING AFFINITY PREDICTED BY RF-SCORE:    0.00 PKD
ROOT
HETATM    1  O   UNL     1      -8.234  18.036  67.280  1.00  0.00    -0.214 OA 
HETATM    2  C   UNL     1      -9.378  17.192  67.146  1.00  0.00    -0.245 C  
HETATM    3  H   UNL     1      -8.480  18.952  67.241  1.00  0.00     0.000 HD 
ENDROOT
BRANCH   2   4
HETATM    4  C   UNL     1      -8.988  15.738  67.207  1.00  0.00    -0.211 A  
HETATM    5  C   UNL     1      -7.719  15.298  67.602  1.00  0.00    -0.165 A  
HETATM    6  O   UNL     1      -6.757  16.167  68.036  1.00  0.00    -0.119 OA 
HETATM    7  C   UNL     1      -7.377  13.949  67.575  1.00  0.00    -0.181 A  
HETATM    8  C   UNL     1      -8.310  13.004  67.156  1.00  0.00    -0.153 A  
HETATM    9  H   UNL     1      -5.896  15.869  68.304  1.00  0.00     0.000 HD 
HETATM   10  C   UNL     1      -9.593  13.402  66.754  1.00  0.00    -0.262 A  
HETATM   11  C   UNL     1      -9.912  14.772  66.772  1.00  0.00    -0.256 A  
BRANCH  10  12
HETATM   12  C   UNL     1     -10.570  12.368  66.237  1.00  0.00    -0.249 C  
HETATM   13  O   UNL     1      -9.893  11.128  65.986  1.00  0.00    -0.211 OA 
HETATM   14  H   UNL     1     -10.507  10.479  65.662  1.00  0.00     0.000 HD 
BRANCH  12  15
HETATM   15  C   UNL     1     -11.703  12.142  67.260  1.00  0.00    -0.299 C  
BRANCH  15  16
HETATM   16  N   UNL     1     -11.170  11.983  68.623  1.00  0.00    -0.236 NA 
HETATM   17  H   UNL     1     -11.895  12.096  69.332  1.00  0.00     0.000 HD 
BRANCH  16  18
HETATM   18  C   UNL     1     -10.483  10.702  68.747  1.00  0.00    -0.194 C  
BRANCH  18  19
HETATM   19  C   UNL     1     -11.099   9.882  69.877  1.00  0.00    -0.318 C  
BRANCH  19  20
HETATM   20  C   UNL     1     -12.226  10.669  70.544  1.00  0.00    -0.449 C  
BRANCH  20  21
HETATM   21  C   UNL     1     -13.235   9.735  71.202  1.00  0.00    -0.404 C  
BRANCH  21  22
HETATM   22  C   UNL     1     -12.537   8.698  72.077  1.00  0.00    -0.434 C  
BRANCH  22  23
HETATM   23  C   UNL     1     -12.982   7.294  71.702  1.00  0.00    -0.372 C  
BRANCH  23  24
HETATM   24  O   UNL     1     -11.844   6.438  71.700  1.00  0.00    -0.310 OA 
BRANCH  24  25
HETATM   25  C   UNL     1     -10.774   7.023  70.962  1.00  0.00    -0.233 C  
BRANCH  25  26
HETATM   26  C   UNL     1      -9.799   5.942  70.528  1.00  0.00    -0.183 C  
BRANCH  26  27
HETATM   27  O   UNL     1      -9.008   6.440  69.449  1.00  0.00    -0.131 OA 
BRANCH  27  28
HETATM   28  C   UNL     1      -7.953   5.546  69.124  1.00  0.00    -0.095 C  
BRANCH  28  29
HETATM   29  C   UNL     1      -8.365   4.152  69.512  1.00  0.00    -0.074 A  
HETATM   30  C   UNL     1      -9.226   3.392  68.700  1.00  0.00    -0.168 A  
HETATM   31 CL   UNL     1      -9.919   4.022  67.245  1.00  0.00    -0.128 Cl 
HETATM   32  C   UNL     1      -9.565   2.075  69.041  1.00  0.00    -0.078 A  
HETATM   33  C   UNL     1      -9.071   1.504  70.208  1.00  0.00    -0.143 A  
HETATM   34  C   UNL     1      -8.262   2.257  71.052  1.00  0.00    -0.065 A  
HETATM   35  C   UNL     1      -7.921   3.573  70.714  1.00  0.00    -0.053 A  
HETATM   36 CL   UNL     1      -6.936   4.437  71.845  1.00  0.00    -0.045 Cl 
ENDBRANCH  28  29
ENDBRANCH  27  28
ENDBRANCH  26  27
ENDBRANCH  25  26
ENDBRANCH  24  25
ENDBRANCH  23  24
ENDBRANCH  22  23
ENDBRANCH  21  22
ENDBRANCH  20  21
ENDBRANCH  19  20
ENDBRANCH  18  19
ENDBRANCH  16  18
ENDBRANCH  15  16
ENDBRANCH  12  15
ENDBRANCH  10  12
ENDBRANCH   2   4
TORSDOF 16
ENDMDL
MODEL      438
REMARK 921   NORMALIZED FREE ENERGY PREDICTED BY IDOCK:   -1.22 KCAL/MOL
REMARK 922        TOTAL FREE ENERGY PREDICTED BY IDOCK:   -4.44 KCAL/MOL
REMARK 923 INTER-LIGAND FREE ENERGY PREDICTED BY IDOCK:   -5.52 KCAL/MOL
REMARK 924 INTRA-LIGAND FREE ENERGY PREDICTED BY IDOCK:    1.08 KCAL/MOL
REMARK 927      BINDING AFFINITY PREDICTED BY RF-SCORE:    0.00 PKD
ROOT
HETATM    1  O   UNL     1      -8.361  12.739  68.411  1.00  0.00    -0.178 OA 
HETATM    2  C   UNL     1      -8.704  13.846  69.246  1.00  0.00     0.520 C  
HETATM    3  H   UNL     1      -9.137  12.261  68.143  1.00  0.00     0.000 HD 
ENDROOT
BRANCH   2   4
HETATM    4  C   UNL     1      -7.474  14.605  69.671  1.00  0.00    -0.029 A  
HETATM    5  C   UNL     1      -6.353  13.994  70.244  1.00  0.00    -0.092 A  
HETATM    6  O   UNL     1      -6.268  12.637  70.394  1.00  0.00    -0.352 OA 
HETATM    7  C   UNL     1      -5.266  14.741  70.688  1.00  0.00    -0.126 A  
HETATM    8  C   UNL     1      -5.276  16.128  70.558  1.00  0.00    -0.183 A  
HETATM    9  H   UNL     1      -5.507  12.223  70.783  1.00  0.00     0.000 HD 
HETATM   10  C   UNL     1      -6.379  16.779  69.987  1.00  0.00     0.022 A  
HETATM   11  C   UNL     1      -7.475  16.006  69.562  1.00  0.00    -0.125 A  
BRANCH  10  12
HETATM   12  C   UNL     1      -6.402  18.291  69.917  1.00  0.00    -0.046 C  
HETATM   13  O   UNL     1      -5.281  18.837  70.627  1.00  0.00    -0.210 OA 
HETATM   14  H   UNL     1      -5.295  19.786  70.582  1.00  0.00     0.000 HD 
BRANCH  12  15
HETATM   15  C   UNL     1      -6.362  18.761  68.447  1.00  0.00    -0.216 C  
BRANCH  15  16
HETATM   16  N   UNL     1      -7.550  19.562  68.109  1.00  0.00    -0.294 NA 
HETATM   17  H   UNL     1      -7.445  20.042  67.214  1.00  0.00     0.000 HD 
BRANCH  16  18
HETATM   18  C   UNL     1      -8.745  18.726  68.141  1.00  0.00    -0.306 C  
BRANCH  18  19
HETATM   19  C   UNL     1      -9.720  19.160  67.050  1.00  0.00    -0.389 C  
BRANCH  19  20
HETATM   20  C   UNL     1     -10.255  17.937  66.305  1.00  0.00    -0.363 C  
BRANCH  20  21
HETATM   21  C   UNL     1      -9.331  16.738  66.483  1.00  0.00    -0.288 C  
BRANCH  21  22
HETATM   22  C   UNL     1      -9.397  15.807  65.276  1.00  0.00     0.418 C  
BRANCH  22  23
HETATM   23  C   UNL     1      -9.945  14.447  65.678  1.00  0.00    -0.337 C  
BRANCH  23  24
HETATM   24  O   UNL     1     -11.249  14.297  65.127  1.00  0.00    -0.315 OA 
BRANCH  24  25
HETATM   25  C   UNL     1     -12.108  15.344  65.572  1.00  0.00     0.459 C  
BRANCH  25  26
HETATM   26  C   UNL     1     -12.118  15.389  67.091  1.00  0.00     0.523 C  
BRANCH  26  27
HETATM   27  O   UNL     1     -12.074  14.052  67.591  1.00  0.00    -0.382 OA 
BRANCH  27  28
HETATM   28  C   UNL     1     -11.319  13.973  68.791  1.00  0.00    -0.278 C  
BRANCH  28  29
HETATM   29  C   UNL     1     -11.960  12.958  69.699  1.00  0.00    -0.358 A  
HETATM   30  C   UNL     1     -11.901  11.583  69.415  1.00  0.00    -0.350 A  
HETATM   31 CL   UNL     1     -11.151  10.967  67.982  1.00  0.00    -0.316 Cl 
HETATM   32  C   UNL     1     -12.455  10.639  70.290  1.00  0.00    -0.381 A  
HETATM   33  C   UNL     1     -13.100  11.053  71.451  1.00  0.00    -0.441 A  
HETATM   34  C   UNL     1     -13.218  12.412  71.723  1.00  0.00    -0.435 A  
HETATM   35  C   UNL     1     -12.664  13.357  70.850  1.00  0.00    -0.272 A  
HETATM   36 CL   UNL     1     -12.891  15.023  71.260  1.00  0.00    -0.397 Cl 
ENDBRANCH  28  29
ENDBRANCH  27  28
ENDBRANCH  26  27
ENDBRANCH  25  26
ENDBRANCH  24  25
ENDBRANCH  23  24
ENDBRANCH  22  23
ENDBRANCH  21  22
ENDBRANCH  20  21
ENDBRANCH  19  20
ENDBRANCH  18  19
ENDBRANCH  16  18
ENDBRANCH  15  16
ENDBRANCH  12  15
ENDBRANCH  10  12
ENDBRANCH   2   4
TORSDOF 16
ENDMDL
MODEL      439
REMARK 921   NORMALIZED FREE ENERGY PREDICTED BY IDOCK:   -0.71 KCAL/MOL
REMARK 922        TOTAL FREE ENERGY PREDICTED BY IDOCK:   -3.44 KCAL/MOL
REMARK 923 INTER-LIGAND FREE ENERGY PREDICTED BY IDOCK:   -3.54 KCAL/MOL
REMARK 924 INTRA-LIGAND FREE ENERGY PREDICTED BY IDOCK:    0.09 KCAL/MOL
REMARK 927      BINDING AFFINITY PREDICTED BY RF-SCORE:    0.00 PKD
ROOT
HETATM    1  O   UNL     1     -10.873   4.102  67.992  1.00  0.00     1.130 OA 
HETATM    2  C   UNL     1      -9.481   3.809  68.125  1.00  0.00    -0.157 C  
HETATM    3  H   UNL     1     -11.379   3.308  67.870  1.00  0.00     0.000 HD 
ENDROOT
BRANCH   2   4
HETATM    4  C   UNL     1      -8.679   5.069  68.318  1.00  0.00    -0.106 A  
HETATM    5  C   UNL     1      -8.650   5.786  69.520  1.00  0.00    -0.112 A  
HETATM    6  O   UNL     1      -9.300   5.345  70.639  1.00  0.00    -0.153 OA 
HETATM    7  C   UNL     1      -7.953   6.985  69.634  1.00  0.00    -0.124 A  
HETATM    8  C   UNL     1      -7.256   7.490  68.539  1.00  0.00    -0.090 A  
HETATM    9  H   UNL     1      -9.281   5.831  71.454  1.00  0.00     0.000 HD 
HETATM   10  C   UNL     1      -7.258   6.802  67.317  1.00  0.00    -0.085 A  
HETATM   11  C   UNL     1      -7.984   5.602  67.218  1.00  0.00    -0.102 A  
BRANCH  10  12
HETATM   12  C   UNL     1      -6.552   7.402  66.119  1.00  0.00    -0.049 C  
HETATM   13  O   UNL     1      -5.756   6.405  65.463  1.00  0.00    -0.021 OA 
HETATM   14  H   UNL     1      -5.314   6.782  64.711  1.00  0.00     0.000 HD 
BRANCH  12  15
HETATM   15  C   UNL     1      -7.581   7.980  65.125  1.00  0.00    -0.098 C  
BRANCH  15  16
HETATM   16  N   UNL     1      -8.542   8.867  65.803  1.00  0.00    -0.150 NA 
HETATM   17  H   UNL     1      -8.708   9.724  65.275  1.00  0.00     0.000 HD 
BRANCH  16  18
HETATM   18  C   UNL     1      -9.781   8.148  66.079  1.00  0.00     0.019 C  
BRANCH  18  19
HETATM   19  C   UNL     1     -10.667   8.968  67.013  1.00  0.00    -0.185 C  
BRANCH  19  20
HETATM   20  C   UNL     1      -9.835   9.539  68.161  1.00  0.00    -0.177 C  
BRANCH  20  21
HETATM   21  C   UNL     1      -9.503  11.007  67.922  1.00  0.00    -0.170 C  
BRANCH  21  22
HETATM   22  C   UNL     1      -8.102  11.167  67.339  1.00  0.00    -0.132 C  
BRANCH  22  23
HETATM   23  C   UNL     1      -7.829  12.622  66.993  1.00  0.00    -0.038 C  
BRANCH  23  24
HETATM   24  O   UNL     1      -7.427  13.307  68.174  1.00  0.00    -0.103 OA 
BRANCH  24  25
HETATM   25  C   UNL     1      -8.296  14.405  68.440  1.00  0.00    -0.155 C  
BRANCH  25  26
HETATM   26  C   UNL     1      -8.957  14.860  67.150  1.00  0.00    -0.214 C  
BRANCH  26  27
HETATM   27  O   UNL     1      -8.320  16.057  66.702  1.00  0.00    -0.239 OA 
BRANCH  27  28
HETATM   28  C   UNL     1      -8.082  16.950  67.780  1.00  0.00    -0.181 C  
BRANCH  28  29
HETATM   29  C   UNL     1      -7.470  18.212  67.234  1.00  0.00    -0.223 A  
HETATM   30  C   UNL     1      -8.168  19.432  67.256  1.00  0.00    -0.281 A  
HETATM   31 CL   UNL     1      -9.790  19.557  67.845  1.00  0.00    -0.455 Cl 
HETATM   32  C   UNL     1      -7.573  20.614  66.793  1.00  0.00    -0.249 A  
HETATM   33  C   UNL     1      -6.281  20.594  66.279  1.00  0.00    -0.268 A  
HETATM   34  C   UNL     1      -5.593  19.388  66.198  1.00  0.00    -0.172 A  
HETATM   35  C   UNL     1      -6.185  18.205  66.660  1.00  0.00    -0.175 A  
HETATM   36 CL   UNL     1      -5.260  16.752  66.487  1.00  0.00    -0.021 Cl 
ENDBRANCH  28  29
ENDBRANCH  27  28
ENDBRANCH  26  27
ENDBRANCH  25  26
ENDBRANCH  24  25
ENDBRANCH  23  24
ENDBRANCH  22  23
ENDBRANCH  21  22
ENDBRANCH  20  21
ENDBRANCH  19  20
ENDBRANCH  18  19
ENDBRANCH  16  18
ENDBRANCH  15  16
ENDBRANCH  12  15
ENDBRANCH  10  12
ENDBRANCH   2   4
TORSDOF 16
ENDMDL
MODEL      440
REMARK 921   NORMALIZED FREE ENERGY PREDICTED BY IDOCK:   -0.19 KCAL/MOL
REMARK 922        TOTAL FREE ENERGY PREDICTED BY IDOCK:   -2.45 KCAL/MOL
REMARK 923 INTER-LIGAND FREE ENERGY PREDICTED BY IDOCK:   -4.94 KCAL/MOL
REMARK 924 INTRA-LIGAND FREE ENERGY PREDICTED BY IDOCK:    2.49 KCAL/MOL
REMARK 927      BINDING AFFINITY PREDICTED BY RF-SCORE:    0.00 PKD
ROOT
HETATM    1  O   UNL     1     -10.940  17.877  71.185  1.00  0.00     0.862 OA 
HETATM    2  C   UNL     1     -11.891  17.384  72.129  1.00  0.00     2.007 C  
HETATM    3  H   UNL     1     -10.570  18.703  71.473  1.00  0.00     0.000 HD 
ENDROOT
BRANCH   2   4
HETATM    4  C   UNL     1     -12.478  16.074  71.671  1.00  0.00    -0.428 A  
HETATM    5  C   UNL     1     -13.579  15.468  72.285  1.00  0.00    -0.519 A  
HETATM    6  O   UNL     1     -14.254  16.068  73.312  1.00  0.00    -0.576 OA 
HETATM    7  C   UNL     1     -14.045  14.222  71.876  1.00  0.00    -0.586 A  
HETATM    8  C   UNL     1     -13.415  13.555  70.827  1.00  0.00     0.260 A  
HETATM    9  H   UNL     1     -15.001  15.657  73.729  1.00  0.00     0.000 HD 
HETATM   10  C   UNL     1     -12.309  14.128  70.184  1.00  0.00    -0.413 A  
HETATM   11  C   UNL     1     -11.844  15.380  70.625  1.00  0.00    -0.388 A  
BRANCH  10  12
HETATM   12  C   UNL     1     -11.596  13.358  69.092  1.00  0.00    -0.315 C  
HETATM   13  O   UNL     1     -11.729  14.040  67.837  1.00  0.00    -0.322 OA 
HETATM   14  H   UNL     1     -11.281  13.557  67.153  1.00  0.00     0.000 HD 
BRANCH  12  15
HETATM   15  C   UNL     1     -10.100  13.198  69.438  1.00  0.00     0.655 C  
BRANCH  15  16
HETATM   16  N   UNL     1      -9.259  13.289  68.233  1.00  0.00    -0.228 NA 
HETATM   17  H   UNL     1      -9.815  13.294  67.378  1.00  0.00     0.000 HD 
BRANCH  16  18
HETATM   18  C   UNL     1      -8.381  14.451  68.320  1.00  0.00    -0.158 C  
BRANCH  18  19
HETATM   19  C   UNL     1      -8.849  15.381  69.436  1.00  0.00    -0.251 C  
BRANCH  19  20
HETATM   20  C   UNL     1      -8.910  16.822  68.929  1.00  0.00    -0.228 C  
BRANCH  20  21
HETATM   21  C   UNL     1     -10.281  17.141  68.345  1.00  0.00    -0.340 C  
BRANCH  21  22
HETATM   22  C   UNL     1     -10.156  17.824  66.987  1.00  0.00    -0.337 C  
BRANCH  22  23
HETATM   23  C   UNL     1      -9.727  16.826  65.923  1.00  0.00    -0.217 C  
BRANCH  23  24
HETATM   24  O   UNL     1     -10.723  16.784  64.906  1.00  0.00    -0.721 OA 
BRANCH  24  25
HETATM   25  C   UNL     1     -10.868  15.460  64.397  1.00  0.00     0.092 C  
BRANCH  25  26
HETATM   26  C   UNL     1     -10.779  14.460  65.538  1.00  0.00    -0.336 C  
BRANCH  26  27
HETATM   27  O   UNL     1     -10.905  13.142  65.006  1.00  0.00    -0.292 OA 
BRANCH  27  28
HETATM   28  C   UNL     1     -11.419  12.239  65.975  1.00  0.00    -0.381 C  
BRANCH  28  29
HETATM   29  C   UNL     1     -10.426  11.126  66.171  1.00  0.00    -0.307 A  
HETATM   30  C   UNL     1      -9.494  10.793  65.172  1.00  0.00    -0.226 A  
HETATM   31 CL   UNL     1      -9.466  11.587  63.634  1.00  0.00    -0.218 Cl 
HETATM   32  C   UNL     1      -8.538   9.790  65.381  1.00  0.00    -0.163 A  
HETATM   33  C   UNL     1      -8.511   9.085  66.579  1.00  0.00    -0.124 A  
HETATM   34  C   UNL     1      -9.458   9.362  67.559  1.00  0.00    -0.154 A  
HETATM   35  C   UNL     1     -10.415  10.364  67.354  1.00  0.00    -0.249 A  
HETATM   36 CL   UNL     1     -11.569  10.610  68.620  1.00  0.00    -0.338 Cl 
ENDBRANCH  28  29
ENDBRANCH  27  28
ENDBRANCH  26  27
ENDBRANCH  25  26
ENDBRANCH  24  25
ENDBRANCH  23  24
ENDBRANCH  22  23
ENDBRANCH  21  22
ENDBRANCH  20  21
ENDBRANCH  19  20
ENDBRANCH  18  19
ENDBRANCH  16  18
ENDBRANCH  15  16
ENDBRANCH  12  15
ENDBRANCH  10  12
ENDBRANCH   2   4
TORSDOF 16
ENDMDL
MODEL      441
REMARK 921   NORMALIZED FREE ENERGY PREDICTED BY IDOCK:    0.87 KCAL/MOL
REMARK 922        TOTAL FREE ENERGY PREDICTED BY IDOCK:   -0.38 KCAL/MOL
REMARK 923 INTER-LIGAND FREE ENERGY PREDICTED BY IDOCK:   -1.30 KCAL/MOL
REMARK 924 INTRA-LIGAND FREE ENERGY PREDICTED BY IDOCK:    0.92 KCAL/MOL
REMARK 927      BINDING AFFINITY PREDICTED BY RF-SCORE:    0.00 PKD
ROOT
HETATM    1  O   UNL     1     -12.024   9.622  70.049  1.00  0.00    -0.460 OA 
HETATM    2  C   UNL     1     -10.656  10.027  70.115  1.00  0.00    -0.296 C  
HETATM    3  H   UNL     1     -12.413   9.591  70.915  1.00  0.00     0.000 HD 
ENDROOT
BRANCH   2   4
HETATM    4  C   UNL     1     -10.039  10.076  68.741  1.00  0.00    -0.197 A  
HETATM    5  C   UNL     1     -10.789  10.045  67.560  1.00  0.00    -0.265 A  
HETATM    6  O   UNL     1     -12.156  10.041  67.573  1.00  0.00     0.689 OA 
HETATM    7  C   UNL     1     -10.176  10.020  66.311  1.00  0.00    -0.285 A  
HETATM    8  C   UNL     1      -8.786  10.034  66.219  1.00  0.00    -0.160 A  
HETATM    9  H   UNL     1     -12.665  10.020  66.772  1.00  0.00     0.000 HD 
HETATM   10  C   UNL     1      -7.998  10.067  67.378  1.00  0.00    -0.106 A  
HETATM   11  C   UNL     1      -8.638  10.074  68.630  1.00  0.00    -0.123 A  
BRANCH  10  12
HETATM   12  C   UNL     1      -6.489  10.013  67.259  1.00  0.00    -0.068 C  
HETATM   13  O   UNL     1      -6.099   8.933  66.400  1.00  0.00    -0.057 OA 
HETATM   14  H   UNL     1      -5.152   8.899  66.325  1.00  0.00     0.000 HD 
BRANCH  12  15
HETATM   15  C   UNL     1      -5.947  11.344  66.697  1.00  0.00    -0.147 C  
BRANCH  15  16
HETATM   16  N   UNL     1      -6.452  12.495  67.465  1.00  0.00    -0.140 NA 
HETATM   17  H   UNL     1      -6.895  12.207  68.338  1.00  0.00     0.000 HD 
BRANCH  16  18
HETATM   18  C   UNL     1      -5.379  13.457  67.691  1.00  0.00    -0.014 C  
BRANCH  18  19
HETATM   19  C   UNL     1      -5.127  13.623  69.187  1.00  0.00    -0.077 C  
BRANCH  19  20
HETATM   20  C   UNL     1      -6.424  13.401  69.967  1.00  0.00     0.046 C  
BRANCH  20  21
HETATM   21  C   UNL     1      -6.878  14.683  70.654  1.00  0.00     0.338 C  
BRANCH  21  22
HETATM   22  C   UNL     1      -7.177  15.779  69.636  1.00  0.00    -0.134 C  
BRANCH  22  23
HETATM   23  C   UNL     1      -8.481  15.493  68.909  1.00  0.00    -0.207 C  
BRANCH  23  24
HETATM   24  O   UNL     1      -8.948  14.204  69.295  1.00  0.00     0.144 OA 
BRANCH  24  25
HETATM   25  C   UNL     1     -10.364  14.211  69.463  1.00  0.00     0.185 C  
BRANCH  25  26
HETATM   26  C   UNL     1     -10.930  15.540  68.992  1.00  0.00    -0.256 C  
BRANCH  26  27
HETATM   27  O   UNL     1     -11.663  15.327  67.786  1.00  0.00    -0.319 OA 
BRANCH  27  28
HETATM   28  C   UNL     1     -10.805  15.307  66.654  1.00  0.00    -0.310 C  
BRANCH  28  29
HETATM   29  C   UNL     1     -11.367  14.350  65.639  1.00  0.00    -0.330 A  
HETATM   30  C   UNL     1     -11.342  14.644  64.264  1.00  0.00    -0.098 A  
HETATM   31 CL   UNL     1     -10.730  16.143  63.652  1.00  0.00     2.636 Cl 
HETATM   32  C   UNL     1     -11.820  13.726  63.319  1.00  0.00     0.211 A  
HETATM   33  C   UNL     1     -12.353  12.509  63.731  1.00  0.00    -0.595 A  
HETATM   34  C   UNL     1     -12.437  12.221  65.089  1.00  0.00    -0.183 A  
HETATM   35  C   UNL     1     -11.959  13.137  66.036  1.00  0.00    -0.433 A  
HETATM   36 CL   UNL     1     -12.138  12.700  67.701  1.00  0.00    -0.294 Cl 
ENDBRANCH  28  29
ENDBRANCH  27  28
ENDBRANCH  26  27
ENDBRANCH  25  26
ENDBRANCH  24  25
ENDBRANCH  23  24
ENDBRANCH  22  23
ENDBRANCH  21  22
ENDBRANCH  20  21
ENDBRANCH  19  20
ENDBRANCH  18  19
ENDBRANCH  16  18
ENDBRANCH  15  16
ENDBRANCH  12  15
ENDBRANCH  10  12
ENDBRANCH   2   4
TORSDOF 16
ENDMDL
MODEL      442
REMARK 921   NORMALIZED FREE ENERGY PREDICTED BY IDOCK:    1.09 KCAL/MOL
REMARK 922        TOTAL FREE ENERGY PREDICTED BY IDOCK:    0.04 KCAL/MOL
REMARK 923 INTER-LIGAND FREE ENERGY PREDICTED BY IDOCK:   -4.11 KCAL/MOL
REMARK 924 INTRA-LIGAND FREE ENERGY PREDICTED BY IDOCK:    4.15 KCAL/MOL
REMARK 927      BINDING AFFINITY PREDICTED BY RF-SCORE:    0.00 PKD
ROOT
HETATM    1  O   UNL     1      -7.940  11.355  66.718  1.00  0.00    -0.153 OA 
HETATM    2  C   UNL     1      -8.724  10.545  65.842  1.00  0.00    -0.167 C  
HETATM    3  H   UNL     1      -7.379  10.820  67.267  1.00  0.00     0.000 HD 
ENDROOT
BRANCH   2   4
HETATM    4  C   UNL     1      -9.613  11.394  64.972  1.00  0.00    -0.250 A  
HETATM    5  C   UNL     1     -10.199  10.932  63.787  1.00  0.00    -0.343 A  
HETATM    6  O   UNL     1     -10.060   9.638  63.371  1.00  0.00    -0.172 OA 
HETATM    7  C   UNL     1     -10.955  11.772  62.975  1.00  0.00    -0.111 A  
HETATM    8  C   UNL     1     -11.150  13.102  63.342  1.00  0.00     0.112 A  
HETATM    9  H   UNL     1     -10.457   9.324  62.568  1.00  0.00     0.000 HD 
HETATM   10  C   UNL     1     -10.582  13.604  64.521  1.00  0.00    -0.428 A  
HETATM   11  C   UNL     1      -9.806  12.743  65.318  1.00  0.00    -0.118 A  
BRANCH  10  12
HETATM   12  C   UNL     1     -10.747  15.069  64.867  1.00  0.00    -0.397 C  
HETATM   13  O   UNL     1     -11.463  15.746  63.825  1.00  0.00    -0.828 OA 
HETATM   14  H   UNL     1     -11.567  16.665  64.042  1.00  0.00     0.000 HD 
BRANCH  12  15
HETATM   15  C   UNL     1     -11.507  15.223  66.201  1.00  0.00    -0.083 C  
BRANCH  15  16
HETATM   16  N   UNL     1     -10.956  14.332  67.237  1.00  0.00    -0.291 NA 
HETATM   17  H   UNL     1     -10.469  14.851  67.967  1.00  0.00     0.000 HD 
BRANCH  16  18
HETATM   18  C   UNL     1     -12.011  13.484  67.782  1.00  0.00    -0.334 C  
BRANCH  18  19
HETATM   19  C   UNL     1     -11.947  13.481  69.307  1.00  0.00    -0.378 C  
BRANCH  19  20
HETATM   20  C   UNL     1     -12.272  14.872  69.851  1.00  0.00    -0.354 C  
BRANCH  20  21
HETATM   21  C   UNL     1     -11.180  15.364  70.793  1.00  0.00    -0.378 C  
BRANCH  21  22
HETATM   22  C   UNL     1      -9.841  14.706  70.476  1.00  0.00     1.173 C  
BRANCH  22  23
HETATM   23  C   UNL     1      -9.460  14.939  69.023  1.00  0.00    -0.196 C  
BRANCH  23  24
HETATM   24  O   UNL     1      -9.239  16.332  68.826  1.00  0.00    -0.219 OA 
BRANCH  24  25
HETATM   25  C   UNL     1      -9.962  17.098  69.786  1.00  0.00     0.324 C  
BRANCH  25  26
HETATM   26  C   UNL     1     -10.989  17.968  69.079  1.00  0.00     0.825 C  
BRANCH  26  27
HETATM   27  O   UNL     1     -10.369  18.590  67.954  1.00  0.00    -0.363 OA 
BRANCH  27  28
HETATM   28  C   UNL     1      -9.974  19.922  68.251  1.00  0.00    -0.432 C  
BRANCH  28  29
HETATM   29  C   UNL     1      -8.700  20.223  67.510  1.00  0.00    -0.401 A  
HETATM   30  C   UNL     1      -7.487  20.422  68.192  1.00  0.00    -0.131 A  
HETATM   31 CL   UNL     1      -7.386  20.402  69.920  1.00  0.00     0.359 Cl 
HETATM   32  C   UNL     1      -6.294  20.652  67.494  1.00  0.00    -0.322 A  
HETATM   33  C   UNL     1      -6.294  20.711  66.105  1.00  0.00    -0.286 A  
HETATM   34  C   UNL     1      -7.492  20.570  65.413  1.00  0.00     0.089 A  
HETATM   35  C   UNL     1      -8.686  20.340  66.108  1.00  0.00    -0.087 A  
HETATM   36 CL   UNL     1     -10.127  20.211  65.158  1.00  0.00     0.235 Cl 
ENDBRANCH  28  29
ENDBRANCH  27  28
ENDBRANCH  26  27
ENDBRANCH  25  26
ENDBRANCH  24  25
ENDBRANCH  23  24
ENDBRANCH  22  23
ENDBRANCH  21  22
ENDBRANCH  20  21
ENDBRANCH  19  20
ENDBRANCH  18  19
ENDBRANCH  16  18
ENDBRANCH  15  16
ENDBRANCH  12  15
ENDBRANCH  10  12
ENDBRANCH   2   4
TORSDOF 16
ENDMDL
MODEL      443
REMARK 921   NORMALIZED FREE ENERGY PREDICTED BY IDOCK:    2.37 KCAL/MOL
REMARK 922        TOTAL FREE ENERGY PREDICTED BY IDOCK:    2.51 KCAL/MOL
REMARK 923 INTER-LIGAND FREE ENERGY PREDICTED BY IDOCK:    0.49 KCAL/MOL
REMARK 924 INTRA-LIGAND FREE ENERGY PREDICTED BY IDOCK:    2.03 KCAL/MOL
REMARK 927      BINDING AFFINITY PREDICTED BY RF-SCORE:    0.00 PKD
ROOT
HETATM    1  O   UNL     1     -10.458  18.352  70.333  1.00  0.00     0.482 OA 
HETATM    2  C   UNL     1     -11.048  18.190  71.623  1.00  0.00     3.159 C  
HETATM    3  H   UNL     1     -10.133  19.237  70.215  1.00  0.00     0.000 HD 
ENDROOT
BRANCH   2   4
HETATM    4  C   UNL     1     -11.563  16.786  71.809  1.00  0.00     0.177 A  
HETATM    5  C   UNL     1     -11.931  16.260  73.053  1.00  0.00    -0.498 A  
HETATM    6  O   UNL     1     -11.918  17.019  74.190  1.00  0.00    -0.286 OA 
HETATM    7  C   UNL     1     -12.334  14.935  73.191  1.00  0.00    -0.473 A  
HETATM    8  C   UNL     1     -12.385  14.105  72.073  1.00  0.00    -0.234 A  
HETATM    9  H   UNL     1     -12.168  16.663  75.034  1.00  0.00     0.000 HD 
HETATM   10  C   UNL     1     -12.026  14.593  70.809  1.00  0.00    -0.380 A  
HETATM   11  C   UNL     1     -11.604  15.929  70.695  1.00  0.00    -0.426 A  
BRANCH  10  12
HETATM   12  C   UNL     1     -12.021  13.656  69.619  1.00  0.00    -0.343 C  
HETATM   13  O   UNL     1     -12.359  14.374  68.424  1.00  0.00    -0.600 OA 
HETATM   14  H   UNL     1     -12.356  13.786  67.677  1.00  0.00     0.000 HD 
BRANCH  12  15
HETATM   15  C   UNL     1     -10.633  13.003  69.456  1.00  0.00     0.420 C  
BRANCH  15  16
HETATM   16  N   UNL     1     -10.197  13.015  68.049  1.00  0.00    -0.227 NA 
HETATM   17  H   UNL     1     -10.949  13.294  67.419  1.00  0.00     0.000 HD 
BRANCH  16  18
HETATM   18  C   UNL     1      -9.016  13.858  67.896  1.00  0.00    -0.191 C  
BRANCH  18  19
HETATM   19  C   UNL     1      -8.845  14.750  69.122  1.00  0.00    -0.084 C  
BRANCH  19  20
HETATM   20  C   UNL     1      -7.651  14.280  69.952  1.00  0.00     0.430 C  
BRANCH  20  21
HETATM   21  C   UNL     1      -6.343  14.476  69.194  1.00  0.00    -0.100 C  
BRANCH  21  22
HETATM   22  C   UNL     1      -5.454  13.241  69.298  1.00  0.00    -0.076 C  
BRANCH  22  23
HETATM   23  C   UNL     1      -6.216  11.996  68.871  1.00  0.00    -0.072 C  
BRANCH  23  24
HETATM   24  O   UNL     1      -5.527  11.388  67.783  1.00  0.00    -0.043 OA 
BRANCH  24  25
HETATM   25  C   UNL     1      -6.441  10.712  66.923  1.00  0.00    -0.084 C  
BRANCH  25  26
HETATM   26  C   UNL     1      -7.801  11.389  66.986  1.00  0.00    -0.158 C  
BRANCH  26  27
HETATM   27  O   UNL     1      -8.371  11.402  65.677  1.00  0.00    -0.008 OA 
BRANCH  27  28
HETATM   28  C   UNL     1      -9.052  12.622  65.421  1.00  0.00     0.584 C  
BRANCH  28  29
HETATM   29  C   UNL     1     -10.340  12.313  64.707  1.00  0.00    -0.320 A  
HETATM   30  C   UNL     1     -10.611  11.026  64.211  1.00  0.00    -0.331 A  
HETATM   31 CL   UNL     1      -9.466   9.733  64.324  1.00  0.00    -0.277 Cl 
HETATM   32  C   UNL     1     -11.834  10.732  63.593  1.00  0.00     1.892 A  
HETATM   33  C   UNL     1     -12.798  11.723  63.438  1.00  0.00    -0.310 A  
HETATM   34  C   UNL     1     -12.528  13.016  63.873  1.00  0.00    -0.377 A  
HETATM   35  C   UNL     1     -11.307  13.313  64.492  1.00  0.00    -0.363 A  
HETATM   36 CL   UNL     1     -11.055  14.957  64.969  1.00  0.00    -0.395 Cl 
ENDBRANCH  28  29
ENDBRANCH  27  28
ENDBRANCH  26  27
ENDBRANCH  25  26
ENDBRANCH  24  25
ENDBRANCH  23  24
ENDBRANCH  22  23
ENDBRANCH  21  22
ENDBRANCH  20  21
ENDBRANCH  19  20
ENDBRANCH  18  19
ENDBRANCH  16  18
ENDBRANCH  15  16
ENDBRANCH  12  15
ENDBRANCH  10  12
ENDBRANCH   2   4
TORSDOF 16
ENDMDL
MODEL      444
REMARK 921   NORMALIZED FREE ENERGY PREDICTED BY IDOCK:    5.31 KCAL/MOL
REMARK 922        TOTAL FREE ENERGY PREDICTED BY IDOCK:    8.20 KCAL/MOL
REMARK 923 INTER-LIGAND FREE ENERGY PREDICTED BY IDOCK:    2.10 KCAL/MOL
REMARK 924 INTRA-LIGAND FREE ENERGY PREDICTED BY IDOCK:    6.10 KCAL/MOL
REMARK 927      BINDING AFFINITY PREDICTED BY RF-SCORE:    0.00 PKD
ROOT
HETATM    1  O   UNL     1     -10.399  18.771  70.263  1.00  0.00     0.280 OA 
HETATM    2  C   UNL     1     -10.967  18.657  71.569  1.00  0.00     3.728 C  
HETATM    3  H   UNL     1     -10.078  19.652  70.107  1.00  0.00     0.000 HD 
ENDROOT
BRANCH   2   4
HETATM    4  C   UNL     1     -11.475  17.260  71.816  1.00  0.00     1.352 A  
HETATM    5  C   UNL     1     -11.840  16.787  73.082  1.00  0.00    -0.064 A  
HETATM    6  O   UNL     1     -11.828  17.594  74.185  1.00  0.00     0.014 OA 
HETATM    7  C   UNL     1     -12.236  15.467  73.277  1.00  0.00    -0.589 A  
HETATM    8  C   UNL     1     -12.284  14.589  72.197  1.00  0.00    -0.303 A  
HETATM    9  H   UNL     1     -12.075  17.273  75.044  1.00  0.00     0.000 HD 
HETATM   10  C   UNL     1     -11.929  15.023  70.912  1.00  0.00    -0.374 A  
HETATM   11  C   UNL     1     -11.514  16.356  70.740  1.00  0.00    -0.198 A  
BRANCH  10  12
HETATM   12  C   UNL     1     -11.921  14.036  69.764  1.00  0.00    -0.334 C  
HETATM   13  O   UNL     1     -12.064  14.729  68.516  1.00  0.00    -0.534 OA 
HETATM   14  H   UNL     1     -12.059  14.109  67.795  1.00  0.00     0.000 HD 
BRANCH  12  15
HETATM   15  C   UNL     1     -10.607  13.227  69.760  1.00  0.00     0.709 C  
BRANCH  15  16
HETATM   16  N   UNL     1      -9.964  13.256  68.436  1.00  0.00    -0.252 NA 
HETATM   17  H   UNL     1     -10.634  13.449  67.690  1.00  0.00     0.000 HD 
BRANCH  16  18
HETATM   18  C   UNL     1      -8.858  14.207  68.435  1.00  0.00    -0.187 C  
BRANCH  18  19
HETATM   19  C   UNL     1      -9.037  15.222  69.561  1.00  0.00    -0.188 C  
BRANCH  19  20
HETATM   20  C   UNL     1      -8.062  14.923  70.699  1.00  0.00     1.599 C  
BRANCH  20  21
HETATM   21  C   UNL     1      -6.625  15.212  70.281  1.00  0.00    -0.038 C  
BRANCH  21  22
HETATM   22  C   UNL     1      -5.769  13.951  70.339  1.00  0.00    -0.150 C  
BRANCH  22  23
HETATM   23  C   UNL     1      -6.415  12.828  69.544  1.00  0.00    -0.077 C  
BRANCH  23  24
HETATM   24  O   UNL     1      -5.585  12.518  68.430  1.00  0.00    -0.054 OA 
BRANCH  24  25
HETATM   25  C   UNL     1      -5.831  13.418  67.352  1.00  0.00     0.110 C  
BRANCH  25  26
HETATM   26  C   UNL     1      -6.333  14.745  67.897  1.00  0.00    -0.161 C  
BRANCH  26  27
HETATM   27  O   UNL     1      -6.010  15.778  66.966  1.00  0.00    -0.317 OA 
BRANCH  27  28
HETATM   28  C   UNL     1      -5.658  16.983  67.630  1.00  0.00    -0.133 C  
BRANCH  28  29
HETATM   29  C   UNL     1      -6.743  17.998  67.395  1.00  0.00    -0.194 A  
HETATM   30  C   UNL     1      -7.895  17.678  66.656  1.00  0.00    -0.248 A  
HETATM   31 CL   UNL     1      -8.116  16.130  65.913  1.00  0.00     0.181 Cl 
HETATM   32  C   UNL     1      -8.927  18.611  66.484  1.00  0.00    -0.308 A  
HETATM   33  C   UNL     1      -8.815  19.887  67.026  1.00  0.00    -0.413 A  
HETATM   34  C   UNL     1      -7.660  20.241  67.715  1.00  0.00    -0.310 A  
HETATM   35  C   UNL     1      -6.628  19.310  67.888  1.00  0.00    -0.231 A  
HETATM   36 CL   UNL     1      -5.219  19.857  68.732  1.00  0.00    -0.209 Cl 
ENDBRANCH  28  29
ENDBRANCH  27  28
ENDBRANCH  26  27
ENDBRANCH  25  26
ENDBRANCH  24  25
ENDBRANCH  23  24
ENDBRANCH  22  23
ENDBRANCH  21  22
ENDBRANCH  20  21
ENDBRANCH  19  20
ENDBRANCH  18  19
ENDBRANCH  16  18
ENDBRANCH  15  16
ENDBRANCH  12  15
ENDBRANCH  10  12
ENDBRANCH   2   4
TORSDOF 16
ENDMDL
MODEL      445
REMARK 921   NORMALIZED FREE ENERGY PREDICTED BY IDOCK:    8.87 KCAL/MOL
REMARK 922        TOTAL FREE ENERGY PREDICTED BY IDOCK:   15.09 KCAL/MOL
REMARK 923 INTER-LIGAND FREE ENERGY PREDICTED BY IDOCK:   12.08 KCAL/MOL
REMARK 924 INTRA-LIGAND FREE ENERGY PREDICTED BY IDOCK:    3.01 KCAL/MOL
REMARK 927      BINDING AFFINITY PREDICTED BY RF-SCORE:    0.00 PKD
ROOT
HETATM    1  O   UNL     1      -9.332  18.925  71.497  1.00  0.00     4.682 OA 
HETATM    2  C   UNL     1      -8.322  18.600  70.541  1.00  0.00     3.369 C  
HETATM    3  H   UNL     1      -8.963  19.389  72.239  1.00  0.00     0.000 HD 
ENDROOT
BRANCH   2   4
HETATM    4  C   UNL     1      -8.909  17.864  69.365  1.00  0.00     0.475 A  
HETATM    5  C   UNL     1     -10.189  17.299  69.371  1.00  0.00    -0.139 A  
HETATM    6  O   UNL     1     -11.035  17.442  70.435  1.00  0.00    -0.078 OA 
HETATM    7  C   UNL     1     -10.664  16.564  68.289  1.00  0.00    -0.345 A  
HETATM    8  C   UNL     1      -9.862  16.386  67.164  1.00  0.00    -0.249 A  
HETATM    9  H   UNL     1     -11.904  17.058  70.440  1.00  0.00     0.000 HD 
HETATM   10  C   UNL     1      -8.574  16.937  67.116  1.00  0.00    -0.217 A  
HETATM   11  C   UNL     1      -8.106  17.661  68.228  1.00  0.00    -0.278 A  
BRANCH  10  12
HETATM   12  C   UNL     1      -7.692  16.675  65.914  1.00  0.00     0.373 C  
HETATM   13  O   UNL     1      -8.497  16.468  64.745  1.00  0.00     2.912 OA 
HETATM   14  H   UNL     1      -7.943  16.304  63.990  1.00  0.00     0.000 HD 
BRANCH  12  15
HETATM   15  C   UNL     1      -6.736  17.864  65.680  1.00  0.00    -0.146 C  
BRANCH  15  16
HETATM   16  N   UNL     1      -5.389  17.403  65.305  1.00  0.00     0.129 NA 
HETATM   17  H   UNL     1      -4.669  18.081  65.557  1.00  0.00     0.000 HD 
BRANCH  16  18
HETATM   18  C   UNL     1      -5.128  16.090  65.884  1.00  0.00     3.126 C  
BRANCH  18  19
HETATM   19  C   UNL     1      -6.110  15.812  67.020  1.00  0.00     0.268 C  
BRANCH  19  20
HETATM   20  C   UNL     1      -6.193  14.310  67.287  1.00  0.00     0.428 C  
BRANCH  20  21
HETATM   21  C   UNL     1      -7.282  13.992  68.305  1.00  0.00    -0.114 C  
BRANCH  21  22
HETATM   22  C   UNL     1      -7.063  12.621  68.937  1.00  0.00    -0.069 C  
BRANCH  22  23
HETATM   23  C   UNL     1      -5.582  12.283  68.985  1.00  0.00    -0.064 C  
BRANCH  23  24
HETATM   24  O   UNL     1      -5.313  11.261  68.031  1.00  0.00    -0.043 OA 
BRANCH  24  25
HETATM   25  C   UNL     1      -6.527  10.741  67.495  1.00  0.00    -0.058 C  
BRANCH  25  26
HETATM   26  C   UNL     1      -6.286   9.348  66.938  1.00  0.00    -0.065 C  
BRANCH  26  27
HETATM   27  O   UNL     1      -7.193   8.439  67.561  1.00  0.00    -0.085 OA 
BRANCH  27  28
HETATM   28  C   UNL     1      -8.524   8.645  67.110  1.00  0.00    -0.114 C  
BRANCH  28  29
HETATM   29  C   UNL     1      -9.466   7.946  68.052  1.00  0.00    -0.159 A  
HETATM   30  C   UNL     1     -10.227   6.839  67.636  1.00  0.00    -0.179 A  
HETATM   31 CL   UNL     1     -10.185   6.248  66.010  1.00  0.00     0.169 Cl 
HETATM   32  C   UNL     1     -11.064   6.159  68.532  1.00  0.00    -0.352 A  
HETATM   33  C   UNL     1     -11.175   6.588  69.851  1.00  0.00    -0.456 A  
HETATM   34  C   UNL     1     -10.473   7.713  70.268  1.00  0.00    -0.224 A  
HETATM   35  C   UNL     1      -9.635   8.394  69.375  1.00  0.00    -0.170 A  
HETATM   36 CL   UNL     1      -8.830   9.801  69.981  1.00  0.00    -0.245 Cl 
ENDBRANCH  28  29
ENDBRANCH  27  28
ENDBRANCH  26  27
ENDBRANCH  25  26
ENDBRANCH  24  25
ENDBRANCH  23  24
ENDBRANCH  22  23
ENDBRANCH  21  22
ENDBRANCH  20  21
ENDBRANCH  19  20
ENDBRANCH  18  19
ENDBRANCH  16  18
ENDBRANCH  15  16
ENDBRANCH  12  15
ENDBRANCH  10  12
ENDBRANCH   2   4
TORSDOF 16
ENDMDL
MODEL      446
REMARK 921   NORMALIZED FREE ENERGY PREDICTED BY IDOCK:    9.40 KCAL/MOL
REMARK 922        TOTAL FREE ENERGY PREDICTED BY IDOCK:   16.12 KCAL/MOL
REMARK 923 INTER-LIGAND FREE ENERGY PREDICTED BY IDOCK:   12.79 KCAL/MOL
REMARK 924 INTRA-LIGAND FREE ENERGY PREDICTED BY IDOCK:    3.33 KCAL/MOL
REMARK 927      BINDING AFFINITY PREDICTED BY RF-SCORE:    0.00 PKD
ROOT
HETATM    1  O   UNL     1      -9.332  18.925  71.497  1.00  0.00     4.682 OA 
HETATM    2  C   UNL     1      -8.322  18.600  70.541  1.00  0.00     3.369 C  
HETATM    3  H   UNL     1      -8.963  19.389  72.239  1.00  0.00     0.000 HD 
ENDROOT
BRANCH   2   4
HETATM    4  C   UNL     1      -8.909  17.864  69.365  1.00  0.00     0.475 A  
HETATM    5  C   UNL     1     -10.189  17.299  69.371  1.00  0.00    -0.139 A  
HETATM    6  O   UNL     1     -11.035  17.442  70.435  1.00  0.00    -0.078 OA 
HETATM    7  C   UNL     1     -10.664  16.564  68.289  1.00  0.00    -0.345 A  
HETATM    8  C   UNL     1      -9.862  16.386  67.164  1.00  0.00    -0.249 A  
HETATM    9  H   UNL     1     -11.904  17.058  70.440  1.00  0.00     0.000 HD 
HETATM   10  C   UNL     1      -8.574  16.937  67.116  1.00  0.00    -0.217 A  
HETATM   11  C   UNL     1      -8.106  17.661  68.228  1.00  0.00    -0.278 A  
BRANCH  10  12
HETATM   12  C   UNL     1      -7.692  16.675  65.914  1.00  0.00     0.373 C  
HETATM   13  O   UNL     1      -8.497  16.468  64.745  1.00  0.00     2.912 OA 
HETATM   14  H   UNL     1      -7.943  16.304  63.990  1.00  0.00     0.000 HD 
BRANCH  12  15
HETATM   15  C   UNL     1      -6.736  17.864  65.680  1.00  0.00    -0.146 C  
BRANCH  15  16
HETATM   16  N   UNL     1      -5.389  17.403  65.305  1.00  0.00     0.129 NA 
HETATM   17  H   UNL     1      -4.669  18.081  65.557  1.00  0.00     0.000 HD 
BRANCH  16  18
HETATM   18  C   UNL     1      -5.128  16.090  65.884  1.00  0.00     3.126 C  
BRANCH  18  19
HETATM   19  C   UNL     1      -6.110  15.812  67.020  1.00  0.00     0.268 C  
BRANCH  19  20
HETATM   20  C   UNL     1      -6.193  14.310  67.287  1.00  0.00     0.428 C  
BRANCH  20  21
HETATM   21  C   UNL     1      -7.252  13.996  68.337  1.00  0.00    -0.108 C  
BRANCH  21  22
HETATM   22  C   UNL     1      -7.022  12.623  68.960  1.00  0.00    -0.062 C  
BRANCH  22  23
HETATM   23  C   UNL     1      -5.542  12.277  68.963  1.00  0.00    -0.064 C  
BRANCH  23  24
HETATM   24  O   UNL     1      -5.307  11.255  68.000  1.00  0.00    -0.043 OA 
BRANCH  24  25
HETATM   25  C   UNL     1      -6.540  10.743  67.499  1.00  0.00    -0.059 C  
BRANCH  25  26
HETATM   26  C   UNL     1      -6.323   9.349  66.933  1.00  0.00    -0.066 C  
BRANCH  26  27
HETATM   27  O   UNL     1      -7.216   8.444  67.582  1.00  0.00    -0.085 OA 
BRANCH  27  28
HETATM   28  C   UNL     1      -6.510   7.480  68.349  1.00  0.00    -0.045 C  
BRANCH  28  29
HETATM   29  C   UNL     1      -7.498   6.502  68.923  1.00  0.00    -0.095 A  
HETATM   30  C   UNL     1      -7.510   6.194  70.295  1.00  0.00    -0.090 A  
HETATM   31 CL   UNL     1      -6.356   6.859  71.400  1.00  0.00    -0.041 Cl 
HETATM   32  C   UNL     1      -8.466   5.321  70.832  1.00  0.00    -0.121 A  
HETATM   33  C   UNL     1      -9.412   4.723  70.007  1.00  0.00    -0.240 A  
HETATM   34  C   UNL     1      -9.384   4.972  68.638  1.00  0.00    -0.173 A  
HETATM   35  C   UNL     1      -8.430   5.844  68.099  1.00  0.00    -0.114 A  
HETATM   36 CL   UNL     1      -8.458   6.063  66.382  1.00  0.00    -0.115 Cl 
ENDBRANCH  28  29
ENDBRANCH  27  28
ENDBRANCH  26  27
ENDBRANCH  25  26
ENDBRANCH  24  25
ENDBRANCH  23  24
ENDBRANCH  22  23
ENDBRANCH  21  22
ENDBRANCH  20  21
ENDBRANCH  19  20
ENDBRANCH  18  19
ENDBRANCH  16  18
ENDBRANCH  15  16
ENDBRANCH  12  15
ENDBRANCH  10  12
ENDBRANCH   2   4
TORSDOF 16
ENDMDL
MODEL      447
REMARK 921   NORMALIZED FREE ENERGY PREDICTED BY IDOCK:    9.98 KCAL/MOL
REMARK 922        TOTAL FREE ENERGY PREDICTED BY IDOCK:   17.24 KCAL/MOL
REMARK 923 INTER-LIGAND FREE ENERGY PREDICTED BY IDOCK:   12.94 KCAL/MOL
REMARK 924 INTRA-LIGAND FREE ENERGY PREDICTED BY IDOCK:    4.29 KCAL/MOL
REMARK 927      BINDING AFFINITY PREDICTED BY RF-SCORE:    0.00 PKD
ROOT
HETATM    1  O   UNL     1      -9.329  18.920  71.500  1.00  0.00     4.682 OA 
HETATM    2  C   UNL     1      -8.338  18.514  70.555  1.00  0.00     3.583 C  
HETATM    3  H   UNL     1      -8.940  19.417  72.210  1.00  0.00     0.000 HD 
ENDROOT
BRANCH   2   4
HETATM    4  C   UNL     1      -8.955  17.726  69.430  1.00  0.00     0.447 A  
HETATM    5  C   UNL     1     -10.264  17.232  69.464  1.00  0.00    -0.046 A  
HETATM    6  O   UNL     1     -11.109  17.497  70.506  1.00  0.00     0.224 OA 
HETATM    7  C   UNL     1     -10.771  16.446  68.433  1.00  0.00    -0.327 A  
HETATM    8  C   UNL     1      -9.973  16.144  67.332  1.00  0.00    -0.247 A  
HETATM    9  H   UNL     1     -11.997  17.162  70.529  1.00  0.00     0.000 HD 
HETATM   10  C   UNL     1      -8.656  16.621  67.258  1.00  0.00    -0.208 A  
HETATM   11  C   UNL     1      -8.158  17.397  68.319  1.00  0.00    -0.249 A  
BRANCH  10  12
HETATM   12  C   UNL     1      -7.782  16.225  66.087  1.00  0.00     0.180 C  
HETATM   13  O   UNL     1      -8.591  15.943  64.937  1.00  0.00     1.740 OA 
HETATM   14  H   UNL     1      -8.042  15.695  64.202  1.00  0.00     0.000 HD 
BRANCH  12  15
HETATM   15  C   UNL     1      -6.786  17.356  65.755  1.00  0.00     0.073 C  
BRANCH  15  16
HETATM   16  N   UNL     1      -5.443  16.822  65.470  1.00  0.00     1.139 NA 
HETATM   17  H   UNL     1      -4.715  17.520  65.618  1.00  0.00     0.000 HD 
BRANCH  16  18
HETATM   18  C   UNL     1      -5.207  15.614  66.255  1.00  0.00     2.716 C  
BRANCH  18  19
HETATM   19  C   UNL     1      -6.172  15.558  67.436  1.00  0.00    -0.072 C  
BRANCH  19  20
HETATM   20  C   UNL     1      -6.272  14.127  67.966  1.00  0.00    -0.150 C  
BRANCH  20  21
HETATM   21  C   UNL     1      -7.335  14.017  69.053  1.00  0.00    -0.081 C  
BRANCH  21  22
HETATM   22  C   UNL     1      -7.107  12.785  69.924  1.00  0.00     0.698 C  
BRANCH  22  23
HETATM   23  C   UNL     1      -5.629  12.435  69.980  1.00  0.00    -0.125 C  
BRANCH  23  24
HETATM   24  O   UNL     1      -5.304  11.634  68.848  1.00  0.00    -0.050 OA 
BRANCH  24  25
HETATM   25  C   UNL     1      -6.485  11.244  68.151  1.00  0.00    -0.056 C  
BRANCH  25  26
HETATM   26  C   UNL     1      -6.213   9.984  67.347  1.00  0.00    -0.059 C  
BRANCH  26  27
HETATM   27  O   UNL     1      -7.148   8.978  67.737  1.00  0.00    -0.077 OA 
BRANCH  27  28
HETATM   28  C   UNL     1      -8.457   9.281  67.275  1.00  0.00    -0.125 C  
BRANCH  28  29
HETATM   29  C   UNL     1      -8.384   9.629  65.813  1.00  0.00    -0.132 A  
HETATM   30  C   UNL     1      -8.659  10.931  65.358  1.00  0.00    -0.120 A  
HETATM   31 CL   UNL     1      -9.161  12.196  66.427  1.00  0.00    -0.220 Cl 
HETATM   32  C   UNL     1      -8.539  11.263  64.001  1.00  0.00     0.379 A  
HETATM   33  C   UNL     1      -8.167  10.296  63.073  1.00  0.00    -0.162 A  
HETATM   34  C   UNL     1      -7.943   8.990  63.495  1.00  0.00    -0.150 A  
HETATM   35  C   UNL     1      -8.062   8.656  64.850  1.00  0.00    -0.146 A  
HETATM   36 CL   UNL     1      -7.794   6.998  65.270  1.00  0.00    -0.114 Cl 
ENDBRANCH  28  29
ENDBRANCH  27  28
ENDBRANCH  26  27
ENDBRANCH  25  26
ENDBRANCH  24  25
ENDBRANCH  23  24
ENDBRANCH  22  23
ENDBRANCH  21  22
ENDBRANCH  20  21
ENDBRANCH  19  20
ENDBRANCH  18  19
ENDBRANCH  16  18
ENDBRANCH  15  16
ENDBRANCH  12  15
ENDBRANCH  10  12
ENDBRANCH   2   4
TORSDOF 16
ENDMDL
MODEL      448
REMARK 921   NORMALIZED FREE ENERGY PREDICTED BY IDOCK:   11.53 KCAL/MOL
REMARK 922        TOTAL FREE ENERGY PREDICTED BY IDOCK:   20.25 KCAL/MOL
REMARK 923 INTER-LIGAND FREE ENERGY PREDICTED BY IDOCK:   15.03 KCAL/MOL
REMARK 924 INTRA-LIGAND FREE ENERGY PREDICTED BY IDOCK:    5.22 KCAL/MOL
REMARK 927      BINDING AFFINITY PREDICTED BY RF-SCORE:    0.00 PKD
ROOT
HETATM    1  O   UNL     1      -9.319  18.896  71.489  1.00  0.00     4.682 OA 
HETATM    2  C   UNL     1      -8.367  18.478  70.510  1.00  0.00     3.583 C  
HETATM    3  H   UNL     1      -8.894  19.352  72.205  1.00  0.00     0.000 HD 
ENDROOT
BRANCH   2   4
HETATM    4  C   UNL     1      -9.042  17.755  69.374  1.00  0.00     0.414 A  
HETATM    5  C   UNL     1     -10.375  17.332  69.415  1.00  0.00    -0.158 A  
HETATM    6  O   UNL     1     -11.190  17.615  70.476  1.00  0.00     0.625 OA 
HETATM    7  C   UNL     1     -10.939  16.603  68.372  1.00  0.00    -0.345 A  
HETATM    8  C   UNL     1     -10.173  16.287  67.252  1.00  0.00    -0.279 A  
HETATM    9  H   UNL     1     -12.095  17.329  70.504  1.00  0.00     0.000 HD 
HETATM   10  C   UNL     1      -8.834  16.693  67.170  1.00  0.00    -0.209 A  
HETATM   11  C   UNL     1      -8.279  17.413  68.243  1.00  0.00    -0.247 A  
BRANCH  10  12
HETATM   12  C   UNL     1      -7.998  16.281  65.976  1.00  0.00     0.225 C  
HETATM   13  O   UNL     1      -8.835  16.093  64.827  1.00  0.00     1.852 OA 
HETATM   14  H   UNL     1      -8.311  15.835  64.078  1.00  0.00     0.000 HD 
BRANCH  12  15
HETATM   15  C   UNL     1      -6.933  17.356  65.671  1.00  0.00     0.291 C  
BRANCH  15  16
HETATM   16  N   UNL     1      -5.635  16.744  65.339  1.00  0.00     1.518 NA 
HETATM   17  H   UNL     1      -4.856  17.373  65.531  1.00  0.00     0.000 HD 
BRANCH  16  18
HETATM   18  C   UNL     1      -5.489  15.468  66.032  1.00  0.00     4.466 C  
BRANCH  18  19
HETATM   19  C   UNL     1      -6.043  15.574  67.450  1.00  0.00    -0.041 C  
BRANCH  19  20
HETATM   20  C   UNL     1      -6.350  14.182  68.001  1.00  0.00    -0.154 C  
BRANCH  20  21
HETATM   21  C   UNL     1      -7.067  14.267  69.343  1.00  0.00    -0.086 C  
BRANCH  21  22
HETATM   22  C   UNL     1      -6.713  13.081  70.234  1.00  0.00     0.604 C  
BRANCH  22  23
HETATM   23  C   UNL     1      -5.295  12.608  69.958  1.00  0.00    -0.102 C  
BRANCH  23  24
HETATM   24  O   UNL     1      -5.305  11.780  68.799  1.00  0.00    -0.050 OA 
BRANCH  24  25
HETATM   25  C   UNL     1      -6.641  11.543  68.361  1.00  0.00    -0.060 C  
BRANCH  25  26
HETATM   26  C   UNL     1      -7.252  10.411  69.169  1.00  0.00    -0.089 C  
BRANCH  26  27
HETATM   27  O   UNL     1      -8.474  10.867  69.750  1.00  0.00     0.202 OA 
BRANCH  27  28
HETATM   28  C   UNL     1      -9.475  11.066  68.763  1.00  0.00    -0.183 C  
BRANCH  28  29
HETATM   29  C   UNL     1      -9.514   9.860  67.865  1.00  0.00    -0.149 A  
HETATM   30  C   UNL     1     -10.107   8.656  68.283  1.00  0.00    -0.192 A  
HETATM   31 CL   UNL     1     -10.769   8.455  69.870  1.00  0.00    -0.233 Cl 
HETATM   32  C   UNL     1     -10.186   7.551  67.424  1.00  0.00    -0.318 A  
HETATM   33  C   UNL     1      -9.653   7.622  66.141  1.00  0.00    -0.077 A  
HETATM   34  C   UNL     1      -9.014   8.785  65.726  1.00  0.00    -0.253 A  
HETATM   35  C   UNL     1      -8.934   9.891  66.583  1.00  0.00    -0.139 A  
HETATM   36 CL   UNL     1      -8.091  11.279  65.986  1.00  0.00    -0.072 Cl 
ENDBRANCH  28  29
ENDBRANCH  27  28
ENDBRANCH  26  27
ENDBRANCH  25  26
ENDBRANCH  24  25
ENDBRANCH  23  24
ENDBRANCH  22  23
ENDBRANCH  21  22
ENDBRANCH  20  21
ENDBRANCH  19  20
ENDBRANCH  18  19
ENDBRANCH  16  18
ENDBRANCH  15  16
ENDBRANCH  12  15
ENDBRANCH  10  12
ENDBRANCH   2   4
TORSDOF 16
ENDMDL
MODEL      449
REMARK 921   NORMALIZED FREE ENERGY PREDICTED BY IDOCK:   14.14 KCAL/MOL
REMARK 922        TOTAL FREE ENERGY PREDICTED BY IDOCK:   25.30 KCAL/MOL
REMARK 923 INTER-LIGAND FREE ENERGY PREDICTED BY IDOCK:   16.24 KCAL/MOL
REMARK 924 INTRA-LIGAND FREE ENERGY PREDICTED BY IDOCK:    9.05 KCAL/MOL
REMARK 927      BINDING AFFINITY PREDICTED BY RF-SCORE:    0.00 PKD
ROOT
HETATM    1  O   UNL     1     -10.715  20.280  69.508  1.00  0.00    -0.439 OA 
HETATM    2  C   UNL     1     -10.932  20.298  70.920  1.00  0.00     3.994 C  
HETATM    3  H   UNL     1     -10.579  21.158  69.173  1.00  0.00     0.000 HD 
ENDROOT
BRANCH   2   4
HETATM    4  C   UNL     1     -11.147  18.904  71.451  1.00  0.00     4.474 A  
HETATM    5  C   UNL     1     -10.988  18.562  72.799  1.00  0.00     3.096 A  
HETATM    6  O   UNL     1     -10.694  19.498  73.751  1.00  0.00     1.996 OA 
HETATM    7  C   UNL     1     -11.126  17.248  73.236  1.00  0.00     2.188 A  
HETATM    8  C   UNL     1     -11.438  16.242  72.324  1.00  0.00    -0.182 A  
HETATM    9  H   UNL     1     -10.586  19.266  74.666  1.00  0.00     0.000 HD 
HETATM   10  C   UNL     1     -11.607  16.543  70.965  1.00  0.00    -0.031 A  
HETATM   11  C   UNL     1     -11.445  17.874  70.542  1.00  0.00     3.657 A  
BRANCH  10  12
HETATM   12  C   UNL     1     -11.877  15.426  69.979  1.00  0.00    -0.343 C  
HETATM   13  O   UNL     1     -12.052  15.961  68.660  1.00  0.00    -0.499 OA 
HETATM   14  H   UNL     1     -12.221  15.260  68.041  1.00  0.00     0.000 HD 
BRANCH  12  15
HETATM   15  C   UNL     1     -10.710  14.417  69.978  1.00  0.00     0.158 C  
BRANCH  15  16
HETATM   16  N   UNL     1     -10.672  13.643  68.726  1.00  0.00    -0.251 NA 
HETATM   17  H   UNL     1     -11.606  13.468  68.356  1.00  0.00     0.000 HD 
BRANCH  16  18
HETATM   18  C   UNL     1      -9.816  14.309  67.750  1.00  0.00    -0.223 C  
BRANCH  18  19
HETATM   19  C   UNL     1     -10.466  15.607  67.279  1.00  0.00    -0.292 C  
BRANCH  19  20
HETATM   20  C   UNL     1      -9.693  16.809  67.820  1.00  0.00    -0.248 C  
BRANCH  20  21
HETATM   21  C   UNL     1      -8.216  16.480  67.995  1.00  0.00    -0.172 C  
BRANCH  21  22
HETATM   22  C   UNL     1      -7.811  16.525  69.465  1.00  0.00     0.160 C  
BRANCH  22  23
HETATM   23  C   UNL     1      -8.249  15.257  70.181  1.00  0.00     0.554 C  
BRANCH  23  24
HETATM   24  O   UNL     1      -7.111  14.423  70.373  1.00  0.00     0.099 OA 
BRANCH  24  25
HETATM   25  C   UNL     1      -6.371  14.293  69.161  1.00  0.00    -0.104 C  
BRANCH  25  26
HETATM   26  C   UNL     1      -6.547  12.891  68.601  1.00  0.00    -0.091 C  
BRANCH  26  27
HETATM   27  O   UNL     1      -7.459  12.945  67.504  1.00  0.00    -0.137 OA 
BRANCH  27  28
HETATM   28  C   UNL     1      -8.347  11.836  67.513  1.00  0.00    -0.154 C  
BRANCH  28  29
HETATM   29  C   UNL     1      -7.688  10.686  66.802  1.00  0.00    -0.127 A  
HETATM   30  C   UNL     1      -6.292  10.625  66.646  1.00  0.00    -0.091 A  
HETATM   31 CL   UNL     1      -5.246  11.889  67.196  1.00  0.00    -0.105 Cl 
HETATM   32  C   UNL     1      -5.681   9.525  66.029  1.00  0.00    -0.049 A  
HETATM   33  C   UNL     1      -6.453   8.480  65.535  1.00  0.00    -0.059 A  
HETATM   34  C   UNL     1      -7.839   8.545  65.631  1.00  0.00    -0.102 A  
HETATM   35  C   UNL     1      -8.453   9.643  66.248  1.00  0.00    -0.119 A  
HETATM   36 CL   UNL     1     -10.183   9.646  66.288  1.00  0.00    -0.316 Cl 
ENDBRANCH  28  29
ENDBRANCH  27  28
ENDBRANCH  26  27
ENDBRANCH  25  26
ENDBRANCH  24  25
ENDBRANCH  23  24
ENDBRANCH  22  23
ENDBRANCH  21  22
ENDBRANCH  20  21
ENDBRANCH  19  20
ENDBRANCH  18  19
ENDBRANCH  16  18
ENDBRANCH  15  16
ENDBRANCH  12  15
ENDBRANCH  10  12
ENDBRANCH   2   4
TORSDOF 16
ENDMDL
MODEL      450
REMARK 921   NORMALIZED FREE ENERGY PREDICTED BY IDOCK:   16.19 KCAL/MOL
REMARK 922        TOTAL FREE ENERGY PREDICTED BY IDOCK:   29.26 KCAL/MOL
REMARK 923 INTER-LIGAND FREE ENERGY PREDICTED BY IDOCK:    0.00 KCAL/MOL
REMARK 924 INTRA-LIGAND FREE ENERGY PREDICTED BY IDOCK:   29.26 KCAL/MOL
REMARK 927      BINDING AFFINITY PREDICTED BY RF-SCORE:    0.00 PKD
ROOT
HETATM    1  O   UNL     1     -12.239  13.438  65.730  1.00  0.00    -0.411 OA 
HETATM    2  C   UNL     1     -11.829  12.070  65.730  1.00  0.00    -0.164 C  
HETATM    3  H   UNL     1     -13.132  13.527  66.041  1.00  0.00     0.000 HD 
ENDROOT
BRANCH   2   4
HETATM    4  C   UNL     1     -10.413  11.929  65.237  1.00  0.00    -0.317 A  
HETATM    5  C   UNL     1     -10.085  11.668  63.902  1.00  0.00    -0.357 A  
HETATM    6  O   UNL     1     -11.039  11.594  62.926  1.00  0.00    -0.673 OA 
HETATM    7  C   UNL     1      -8.766  11.474  63.503  1.00  0.00     0.375 A  
HETATM    8  C   UNL     1      -7.738  11.547  64.440  1.00  0.00     1.713 A  
HETATM    9  H   UNL     1     -10.817  11.416  62.020  1.00  0.00     0.000 HD 
HETATM   10  C   UNL     1      -8.023  11.809  65.787  1.00  0.00     0.620 A  
HETATM   11  C   UNL     1      -9.365  11.983  66.173  1.00  0.00    -0.217 A  
BRANCH  10  12
HETATM   12  C   UNL     1      -6.900  11.816  66.803  1.00  0.00    -0.050 C  
HETATM   13  O   UNL     1      -5.651  12.099  66.157  1.00  0.00    -0.379 OA 
HETATM   14  H   UNL     1      -4.946  12.104  66.795  1.00  0.00     0.000 HD 
BRANCH  12  15
HETATM   15  C   UNL     1      -7.170  12.873  67.894  1.00  0.00    -0.125 C  
BRANCH  15  16
HETATM   16  N   UNL     1      -8.461  13.548  67.678  1.00  0.00    -0.170 NA 
HETATM   17  H   UNL     1      -8.924  13.225  66.828  1.00  0.00     0.000 HD 
BRANCH  16  18
HETATM   18  C   UNL     1      -9.312  13.395  68.854  1.00  0.00     0.221 C  
BRANCH  18  19
HETATM   19  C   UNL     1      -8.943  12.119  69.606  1.00  0.00     1.831 C  
BRANCH  19  20
HETATM   20  C   UNL     1      -7.898  11.328  68.820  1.00  0.00    -0.139 C  
BRANCH  20  21
HETATM   21  C   UNL     1      -6.901  10.654  69.755  1.00  0.00    -0.143 C  
BRANCH  21  22
HETATM   22  C   UNL     1      -6.102   9.578  69.026  1.00  0.00    -0.042 C  
BRANCH  22  23
HETATM   23  C   UNL     1      -7.031   8.540  68.418  1.00  0.00    -0.066 C  
BRANCH  23  24
HETATM   24  O   UNL     1      -8.378   8.935  68.655  1.00  0.00    -0.121 OA 
BRANCH  24  25
HETATM   25  C   UNL     1      -9.238   7.798  68.693  1.00  0.00    -0.138 C  
BRANCH  25  26
HETATM   26  C   UNL     1      -8.420   6.545  68.958  1.00  0.00    -0.125 C  
BRANCH  26  27
HETATM   27  O   UNL     1      -9.291   5.517  69.428  1.00  0.00    -0.114 OA 
BRANCH  27  28
HETATM   28  C   UNL     1      -9.004   5.171  70.775  1.00  0.00    -0.134 C  
BRANCH  28  29
HETATM   29  C   UNL     1      -8.529   6.402  71.499  1.00  0.00    -0.129 A  
HETATM   30  C   UNL     1      -7.941   6.319  72.773  1.00  0.00    -0.105 A  
HETATM   31 CL   UNL     1      -7.784   4.819  73.622  1.00  0.00    -0.094 Cl 
HETATM   32  C   UNL     1      -7.454   7.463  73.420  1.00  0.00    -0.108 A  
HETATM   33  C   UNL     1      -7.566   8.711  72.817  1.00  0.00     0.028 A  
HETATM   34  C   UNL     1      -8.193   8.822  71.581  1.00  0.00    -0.171 A  
HETATM   35  C   UNL     1      -8.681   7.680  70.932  1.00  0.00    -0.138 A  
HETATM   36 CL   UNL     1      -9.473   7.927  69.412  1.00  0.00    -0.156 Cl 
ENDBRANCH  28  29
ENDBRANCH  27  28
ENDBRANCH  26  27
ENDBRANCH  25  26
ENDBRANCH  24  25
ENDBRANCH  23  24
ENDBRANCH  22  23
ENDBRANCH  21  22
ENDBRANCH  20  21
ENDBRANCH  19  20
ENDBRANCH  18  19
ENDBRANCH  16  18
ENDBRANCH  15  16
ENDBRANCH  12  15
ENDBRANCH  10  12
ENDBRANCH   2   4
TORSDOF 16
ENDMDL
