MODEL        1
REMARK 921   NORMALIZED FREE ENERGY PREDICTED BY IDOCK:   -6.95 KCAL/MOL
REMARK 922        TOTAL FREE ENERGY PREDICTED BY IDOCK:   -8.81 KCAL/MOL
REMARK 923 INTER-LIGAND FREE ENERGY PREDICTED BY IDOCK:   -8.17 KCAL/MOL
REMARK 924 INTRA-LIGAND FREE ENERGY PREDICTED BY IDOCK:   -0.64 KCAL/MOL
REMARK 927      BINDING AFFINITY PREDICTED BY RF-SCORE:    0.00 PKD
ROOT
HETATM    1  O   UNL     1     -12.321  13.755  63.322  1.00  0.00    -1.069 OA 
HETATM    2  C   UNL     1     -11.754  13.499  64.600  1.00  0.00    -0.381 C  
HETATM    3  H   UNL     1     -12.523  14.679  63.238  1.00  0.00     0.000 HD 
HETATM    4  C   UNL     1     -11.427  12.003  64.736  1.00  0.00    -0.357 C  
HETATM    5  C   UNL     1     -10.822  11.721  66.120  1.00  0.00    -0.336 C  
HETATM    6  C   UNL     1     -11.813  12.154  67.210  1.00  0.00    -0.293 C  
HETATM    7  C   UNL     1     -12.118  13.655  67.080  1.00  0.00    -0.423 C  
HETATM    8  C   UNL     1     -10.808  14.457  67.212  1.00  0.00    -0.290 C  
HETATM    9  C   UNL     1     -12.738  13.919  65.701  1.00  0.00    -0.534 C  
HETATM   10  C   UNL     1      -9.789  14.044  66.110  1.00  0.00    -0.303 C  
HETATM   11  C   UNL     1     -10.456  14.313  64.739  1.00  0.00    -0.421 C  
HETATM   12  C   UNL     1      -9.518  12.524  66.269  1.00  0.00    -0.210 C  
ENDROOT
BRANCH  10  13
HETATM   13  N   UNL     1      -8.566  14.848  66.307  1.00  0.00    -0.414 NA 
HETATM   14  H   UNL     1      -8.312  15.326  65.443  1.00  0.00     0.000 HD 
BRANCH  13  15
HETATM   15  C   UNL     1      -8.640  15.810  67.424  1.00  0.00    -0.175 C  
BRANCH  15  16
HETATM   16  C   UNL     1      -7.737  17.021  67.173  1.00  0.00    -0.176 C  
HETATM   17  O   UNL     1      -6.512  16.885  67.156  1.00  0.00    -0.151 OA 
HETATM   18  N   UNL     1      -8.328  18.244  66.931  1.00  0.00    -0.239 N  
HETATM   19  C   UNL     1      -7.537  19.412  66.604  1.00  0.00    -0.254 C  
HETATM   20  C   UNL     1      -8.324  20.553  67.211  1.00  0.00    -0.355 C  
HETATM   21  C   UNL     1      -9.782  20.122  67.057  1.00  0.00    -0.574 C  
HETATM   22  C   UNL     1      -9.754  18.581  67.007  1.00  0.00    -0.310 C  
HETATM   23  C   UNL     1     -10.514  18.088  65.838  1.00  0.00    -0.264 C  
HETATM   24  N   UNL     1     -11.101  17.718  64.906  1.00  0.00    -0.638 NA 
ENDBRANCH  15  16
ENDBRANCH  13  15
ENDBRANCH  10  13
TORSDOF 3
ENDMDL
MODEL        2
REMARK 921   NORMALIZED FREE ENERGY PREDICTED BY IDOCK:   -6.83 KCAL/MOL
REMARK 922        TOTAL FREE ENERGY PREDICTED BY IDOCK:   -8.67 KCAL/MOL
REMARK 923 INTER-LIGAND FREE ENERGY PREDICTED BY IDOCK:   -8.20 KCAL/MOL
REMARK 924 INTRA-LIGAND FREE ENERGY PREDICTED BY IDOCK:   -0.47 KCAL/MOL
REMARK 927      BINDING AFFINITY PREDICTED BY RF-SCORE:    0.00 PKD
ROOT
HETATM    1  O   UNL     1     -10.327  19.776  69.936  1.00  0.00    -0.545 OA 
HETATM    2  C   UNL     1      -9.888  19.307  68.669  1.00  0.00    -0.431 C  
HETATM    3  H   UNL     1     -11.276  19.773  69.970  1.00  0.00     0.000 HD 
HETATM    4  C   UNL     1      -8.351  19.311  68.614  1.00  0.00    -0.407 C  
HETATM    5  C   UNL     1      -7.872  18.813  67.242  1.00  0.00    -0.243 C  
HETATM    6  C   UNL     1      -8.449  19.714  66.140  1.00  0.00    -0.354 C  
HETATM    7  C   UNL     1      -9.985  19.688  66.188  1.00  0.00    -0.554 C  
HETATM    8  C   UNL     1     -10.479  18.240  65.994  1.00  0.00    -0.380 C  
HETATM    9  C   UNL     1     -10.450  20.204  67.557  1.00  0.00    -0.422 C  
HETATM   10  C   UNL     1      -9.916  17.308  67.106  1.00  0.00    -0.282 C  
HETATM   11  C   UNL     1     -10.395  17.869  68.468  1.00  0.00    -0.365 C  
HETATM   12  C   UNL     1      -8.367  17.372  67.032  1.00  0.00    -0.239 C  
ENDROOT
BRANCH  10  13
HETATM   13  N   UNL     1     -10.426  15.946  66.849  1.00  0.00    -0.306 NA 
HETATM   14  H   UNL     1     -11.295  15.986  66.317  1.00  0.00     0.000 HD 
BRANCH  13  15
HETATM   15  C   UNL     1      -9.460  15.046  66.189  1.00  0.00    -0.313 C  
BRANCH  15  16
HETATM   16  C   UNL     1      -9.684  13.590  66.607  1.00  0.00    -0.280 C  
HETATM   17  O   UNL     1      -9.395  13.224  67.749  1.00  0.00    -0.193 OA 
HETATM   18  N   UNL     1     -10.247  12.721  65.695  1.00  0.00    -0.277 N  
HETATM   19  C   UNL     1     -10.563  11.354  66.051  1.00  0.00    -0.266 C  
HETATM   20  C   UNL     1     -10.343  10.593  64.761  1.00  0.00    -0.353 C  
HETATM   21  C   UNL     1     -10.760  11.581  63.673  1.00  0.00    -0.491 C  
HETATM   22  C   UNL     1     -10.557  12.981  64.285  1.00  0.00    -0.412 C  
HETATM   23  C   UNL     1     -11.777  13.800  64.116  1.00  0.00    -0.364 C  
HETATM   24  N   UNL     1     -12.749  14.425  63.990  1.00  0.00    -0.722 NA 
ENDBRANCH  15  16
ENDBRANCH  13  15
ENDBRANCH  10  13
TORSDOF 3
ENDMDL
MODEL        3
REMARK 921   NORMALIZED FREE ENERGY PREDICTED BY IDOCK:   -6.83 KCAL/MOL
REMARK 922        TOTAL FREE ENERGY PREDICTED BY IDOCK:   -8.66 KCAL/MOL
REMARK 923 INTER-LIGAND FREE ENERGY PREDICTED BY IDOCK:   -8.14 KCAL/MOL
REMARK 924 INTRA-LIGAND FREE ENERGY PREDICTED BY IDOCK:   -0.52 KCAL/MOL
REMARK 927      BINDING AFFINITY PREDICTED BY RF-SCORE:    0.00 PKD
ROOT
HETATM    1  O   UNL     1      -6.430  18.634  66.654  1.00  0.00    -0.180 OA 
HETATM    2  C   UNL     1      -7.822  18.662  66.938  1.00  0.00    -0.236 C  
HETATM    3  H   UNL     1      -6.029  17.887  67.083  1.00  0.00     0.000 HD 
HETATM    4  C   UNL     1      -8.472  19.871  66.244  1.00  0.00    -0.373 C  
HETATM    5  C   UNL     1      -9.976  19.910  66.555  1.00  0.00    -0.591 C  
HETATM    6  C   UNL     1     -10.183  19.990  68.075  1.00  0.00    -0.538 C  
HETATM    7  C   UNL     1      -9.549  18.768  68.759  1.00  0.00    -0.411 C  
HETATM    8  C   UNL     1     -10.196  17.481  68.207  1.00  0.00    -0.365 C  
HETATM    9  C   UNL     1      -8.044  18.751  68.454  1.00  0.00    -0.371 C  
HETATM   10  C   UNL     1      -9.990  17.371  66.669  1.00  0.00    -0.308 C  
HETATM   11  C   UNL     1      -8.464  17.370  66.404  1.00  0.00    -0.292 C  
HETATM   12  C   UNL     1     -10.632  18.625  66.019  1.00  0.00    -0.410 C  
ENDROOT
BRANCH  10  13
HETATM   13  N   UNL     1     -10.638  16.122  66.219  1.00  0.00    -0.300 NA 
HETATM   14  H   UNL     1     -11.336  16.322  65.502  1.00  0.00     0.000 HD 
BRANCH  13  15
HETATM   15  C   UNL     1      -9.702  15.083  65.749  1.00  0.00    -0.340 C  
BRANCH  15  16
HETATM   16  C   UNL     1      -9.926  13.760  66.487  1.00  0.00    -0.288 C  
HETATM   17  O   UNL     1      -9.779  13.702  67.709  1.00  0.00    -0.213 OA 
HETATM   18  N   UNL     1     -10.329  12.659  65.758  1.00  0.00    -0.274 N  
HETATM   19  C   UNL     1     -10.640  11.401  66.403  1.00  0.00    -0.263 C  
HETATM   20  C   UNL     1     -10.222  10.367  65.380  1.00  0.00    -0.329 C  
HETATM   21  C   UNL     1     -10.526  11.030  64.038  1.00  0.00    -0.433 C  
HETATM   22  C   UNL     1     -10.458  12.548  64.302  1.00  0.00    -0.378 C  
HETATM   23  C   UNL     1     -11.673  13.217  63.788  1.00  0.00    -0.461 C  
HETATM   24  N   UNL     1     -12.642  13.724  63.394  1.00  0.00    -0.789 NA 
ENDBRANCH  15  16
ENDBRANCH  13  15
ENDBRANCH  10  13
TORSDOF 3
ENDMDL
MODEL        4
REMARK 921   NORMALIZED FREE ENERGY PREDICTED BY IDOCK:   -6.66 KCAL/MOL
REMARK 922        TOTAL FREE ENERGY PREDICTED BY IDOCK:   -8.47 KCAL/MOL
REMARK 923 INTER-LIGAND FREE ENERGY PREDICTED BY IDOCK:   -8.03 KCAL/MOL
REMARK 924 INTRA-LIGAND FREE ENERGY PREDICTED BY IDOCK:   -0.44 KCAL/MOL
REMARK 927      BINDING AFFINITY PREDICTED BY RF-SCORE:    0.00 PKD
ROOT
HETATM    1  O   UNL     1     -12.454  14.665  63.534  1.00  0.00    -1.069 OA 
HETATM    2  C   UNL     1     -11.832  13.974  64.608  1.00  0.00    -0.417 C  
HETATM    3  H   UNL     1     -12.689  15.543  63.808  1.00  0.00     0.000 HD 
HETATM    4  C   UNL     1     -11.453  12.551  64.164  1.00  0.00    -0.449 C  
HETATM    5  C   UNL     1     -10.786  11.798  65.325  1.00  0.00    -0.343 C  
HETATM    6  C   UNL     1     -11.749  11.747  66.521  1.00  0.00    -0.149 C  
HETATM    7  C   UNL     1     -12.106  13.172  66.972  1.00  0.00    -0.366 C  
HETATM    8  C   UNL     1     -10.817  13.922  67.366  1.00  0.00    -0.291 C  
HETATM    9  C   UNL     1     -12.786  13.907  65.809  1.00  0.00    -0.503 C  
HETATM   10  C   UNL     1      -9.829  13.997  66.166  1.00  0.00    -0.303 C  
HETATM   11  C   UNL     1     -10.556  14.731  65.012  1.00  0.00    -0.452 C  
HETATM   12  C   UNL     1      -9.504  12.542  65.735  1.00  0.00    -0.066 C  
ENDROOT
BRANCH  10  13
HETATM   13  N   UNL     1      -8.625  14.720  66.622  1.00  0.00    -0.426 NA 
HETATM   14  H   UNL     1      -7.787  14.314  66.206  1.00  0.00     0.000 HD 
BRANCH  13  15
HETATM   15  C   UNL     1      -8.661  16.177  66.385  1.00  0.00    -0.325 C  
BRANCH  15  16
HETATM   16  C   UNL     1      -8.924  16.944  67.684  1.00  0.00    -0.219 C  
HETATM   17  O   UNL     1      -8.912  16.350  68.765  1.00  0.00    -0.224 OA 
HETATM   18  N   UNL     1      -9.133  18.306  67.615  1.00  0.00    -0.261 N  
HETATM   19  C   UNL     1      -9.303  19.104  68.810  1.00  0.00    -0.372 C  
HETATM   20  C   UNL     1     -10.259  20.194  68.373  1.00  0.00    -0.438 C  
HETATM   21  C   UNL     1      -9.888  20.448  66.913  1.00  0.00    -0.572 C  
HETATM   22  C   UNL     1      -9.265  19.131  66.409  1.00  0.00    -0.343 C  
HETATM   23  C   UNL     1      -7.964  19.391  65.756  1.00  0.00    -0.048 C  
HETATM   24  N   UNL     1      -6.935  19.611  65.262  1.00  0.00    -0.392 NA 
ENDBRANCH  15  16
ENDBRANCH  13  15
ENDBRANCH  10  13
TORSDOF 3
ENDMDL
MODEL        5
REMARK 921   NORMALIZED FREE ENERGY PREDICTED BY IDOCK:   -6.66 KCAL/MOL
REMARK 922        TOTAL FREE ENERGY PREDICTED BY IDOCK:   -8.47 KCAL/MOL
REMARK 923 INTER-LIGAND FREE ENERGY PREDICTED BY IDOCK:   -7.99 KCAL/MOL
REMARK 924 INTRA-LIGAND FREE ENERGY PREDICTED BY IDOCK:   -0.48 KCAL/MOL
REMARK 927      BINDING AFFINITY PREDICTED BY RF-SCORE:    0.00 PKD
ROOT
HETATM    1  O   UNL     1     -10.486  19.873  69.928  1.00  0.00    -0.528 OA 
HETATM    2  C   UNL     1      -9.959  19.331  68.725  1.00  0.00    -0.440 C  
HETATM    3  H   UNL     1     -11.406  19.649  70.007  1.00  0.00     0.000 HD 
HETATM    4  C   UNL     1      -8.470  19.693  68.598  1.00  0.00    -0.310 C  
HETATM    5  C   UNL     1      -7.898  19.116  67.294  1.00  0.00    -0.274 C  
HETATM    6  C   UNL     1      -8.688  19.671  66.099  1.00  0.00    -0.361 C  
HETATM    7  C   UNL     1     -10.171  19.287  66.223  1.00  0.00    -0.546 C  
HETATM    8  C   UNL     1     -10.299  17.750  66.271  1.00  0.00    -0.358 C  
HETATM    9  C   UNL     1     -10.734  19.884  67.520  1.00  0.00    -0.428 C  
HETATM   10  C   UNL     1      -9.516  17.164  67.481  1.00  0.00    -0.247 C  
HETATM   11  C   UNL     1     -10.103  17.800  68.765  1.00  0.00    -0.381 C  
HETATM   12  C   UNL     1      -8.030  17.584  67.324  1.00  0.00    -0.222 C  
ENDROOT
BRANCH  10  13
HETATM   13  N   UNL     1      -9.682  15.697  67.454  1.00  0.00    -0.222 NA 
HETATM   14  H   UNL     1      -9.303  15.281  68.305  1.00  0.00     0.000 HD 
BRANCH  13  15
HETATM   15  C   UNL     1     -11.069  15.244  67.233  1.00  0.00    -0.325 C  
BRANCH  15  16
HETATM   16  C   UNL     1     -11.495  14.225  68.294  1.00  0.00    -0.304 C  
HETATM   17  O   UNL     1     -11.833  14.606  69.417  1.00  0.00    -0.296 OA 
HETATM   18  N   UNL     1     -11.525  12.889  67.949  1.00  0.00    -0.296 N  
HETATM   19  C   UNL     1     -11.998  11.882  68.876  1.00  0.00    -0.254 C  
HETATM   20  C   UNL     1     -11.161  10.667  68.534  1.00  0.00    -0.342 C  
HETATM   21  C   UNL     1     -10.952  10.775  67.025  1.00  0.00    -0.292 C  
HETATM   22  C   UNL     1     -11.071  12.277  66.696  1.00  0.00    -0.297 C  
HETATM   23  C   UNL     1     -12.023  12.489  65.585  1.00  0.00    -0.433 C  
HETATM   24  N   UNL     1     -12.786  12.640  64.721  1.00  0.00    -0.830 NA 
ENDBRANCH  15  16
ENDBRANCH  13  15
ENDBRANCH  10  13
TORSDOF 3
ENDMDL
MODEL        6
REMARK 921   NORMALIZED FREE ENERGY PREDICTED BY IDOCK:   -6.65 KCAL/MOL
REMARK 922        TOTAL FREE ENERGY PREDICTED BY IDOCK:   -8.46 KCAL/MOL
REMARK 923 INTER-LIGAND FREE ENERGY PREDICTED BY IDOCK:   -8.02 KCAL/MOL
REMARK 924 INTRA-LIGAND FREE ENERGY PREDICTED BY IDOCK:   -0.44 KCAL/MOL
REMARK 927      BINDING AFFINITY PREDICTED BY RF-SCORE:    0.00 PKD
ROOT
HETATM    1  O   UNL     1     -12.293  13.989  63.297  1.00  0.00    -1.133 OA 
HETATM    2  C   UNL     1     -11.746  13.578  64.542  1.00  0.00    -0.397 C  
HETATM    3  H   UNL     1     -12.492  14.918  63.323  1.00  0.00     0.000 HD 
HETATM    4  C   UNL     1     -11.424  12.074  64.500  1.00  0.00    -0.385 C  
HETATM    5  C   UNL     1     -10.839  11.623  65.847  1.00  0.00    -0.339 C  
HETATM    6  C   UNL     1     -11.846  11.924  66.968  1.00  0.00    -0.192 C  
HETATM    7  C   UNL     1     -12.146  13.431  67.017  1.00  0.00    -0.390 C  
HETATM    8  C   UNL     1     -10.835  14.205  67.265  1.00  0.00    -0.288 C  
HETATM    9  C   UNL     1     -12.745  13.864  65.672  1.00  0.00    -0.534 C  
HETATM   10  C   UNL     1      -9.802  13.926  66.136  1.00  0.00    -0.302 C  
HETATM   11  C   UNL     1     -10.448  14.363  64.798  1.00  0.00    -0.394 C  
HETATM   12  C   UNL     1      -9.536  12.397  66.112  1.00  0.00    -0.238 C  
ENDROOT
BRANCH  10  13
HETATM   13  N   UNL     1      -8.580  14.695  66.447  1.00  0.00    -0.429 NA 
HETATM   14  H   UNL     1      -7.758  14.225  66.066  1.00  0.00     0.000 HD 
BRANCH  13  15
HETATM   15  C   UNL     1      -8.617  16.104  66.009  1.00  0.00    -0.196 C  
BRANCH  15  16
HETATM   16  C   UNL     1      -7.499  16.918  66.667  1.00  0.00    -0.268 C  
HETATM   17  O   UNL     1      -6.323  16.571  66.538  1.00  0.00    -0.278 OA 
HETATM   18  N   UNL     1      -7.839  18.058  67.366  1.00  0.00    -0.214 N  
HETATM   19  C   UNL     1      -6.828  18.920  67.941  1.00  0.00    -0.220 C  
HETATM   20  C   UNL     1      -7.492  19.460  69.189  1.00  0.00    -0.342 C  
HETATM   21  C   UNL     1      -8.965  19.583  68.802  1.00  0.00    -0.364 C  
HETATM   22  C   UNL     1      -9.186  18.547  67.681  1.00  0.00    -0.281 C  
HETATM   23  C   UNL     1      -9.846  19.177  66.517  1.00  0.00    -0.371 C  
HETATM   24  N   UNL     1     -10.350  19.691  65.605  1.00  0.00    -0.465 NA 
ENDBRANCH  15  16
ENDBRANCH  13  15
ENDBRANCH  10  13
TORSDOF 3
ENDMDL
MODEL        7
REMARK 921   NORMALIZED FREE ENERGY PREDICTED BY IDOCK:   -6.58 KCAL/MOL
REMARK 922        TOTAL FREE ENERGY PREDICTED BY IDOCK:   -8.38 KCAL/MOL
REMARK 923 INTER-LIGAND FREE ENERGY PREDICTED BY IDOCK:   -7.87 KCAL/MOL
REMARK 924 INTRA-LIGAND FREE ENERGY PREDICTED BY IDOCK:   -0.51 KCAL/MOL
REMARK 927      BINDING AFFINITY PREDICTED BY RF-SCORE:    0.00 PKD
ROOT
HETATM    1  O   UNL     1     -12.471  14.136  63.235  1.00  0.00    -1.146 OA 
HETATM    2  C   UNL     1     -11.849  14.021  64.507  1.00  0.00    -0.434 C  
HETATM    3  H   UNL     1     -13.112  14.836  63.251  1.00  0.00     0.000 HD 
HETATM    4  C   UNL     1     -10.812  12.885  64.480  1.00  0.00    -0.385 C  
HETATM    5  C   UNL     1     -10.143  12.752  65.857  1.00  0.00    -0.286 C  
HETATM    6  C   UNL     1     -11.214  12.473  66.922  1.00  0.00    -0.354 C  
HETATM    7  C   UNL     1     -12.235  13.622  66.956  1.00  0.00    -0.373 C  
HETATM    8  C   UNL     1     -11.507  14.944  67.276  1.00  0.00    -0.350 C  
HETATM    9  C   UNL     1     -12.908  13.733  65.581  1.00  0.00    -0.456 C  
HETATM   10  C   UNL     1     -10.422  15.254  66.204  1.00  0.00    -0.309 C  
HETATM   11  C   UNL     1     -11.138  15.344  64.833  1.00  0.00    -0.435 C  
HETATM   12  C   UNL     1      -9.422  14.069  66.193  1.00  0.00    -0.210 C  
ENDROOT
BRANCH  10  13
HETATM   13  N   UNL     1      -9.771  16.525  66.582  1.00  0.00    -0.247 NA 
HETATM   14  H   UNL     1     -10.152  17.296  66.034  1.00  0.00     0.000 HD 
BRANCH  13  15
HETATM   15  C   UNL     1      -9.831  16.838  68.023  1.00  0.00    -0.265 C  
BRANCH  15  16
HETATM   16  C   UNL     1      -8.467  16.639  68.691  1.00  0.00    -0.253 C  
HETATM   17  O   UNL     1      -8.151  15.532  69.132  1.00  0.00    -0.205 OA 
HETATM   18  N   UNL     1      -7.600  17.710  68.749  1.00  0.00    -0.267 N  
HETATM   19  C   UNL     1      -6.264  17.571  69.290  1.00  0.00    -0.239 C  
HETATM   20  C   UNL     1      -5.997  18.920  69.923  1.00  0.00    -0.266 C  
HETATM   21  C   UNL     1      -6.728  19.906  69.014  1.00  0.00    -0.355 C  
HETATM   22  C   UNL     1      -7.863  19.098  68.355  1.00  0.00    -0.335 C  
HETATM   23  C   UNL     1      -7.845  19.283  66.887  1.00  0.00    -0.257 C  
HETATM   24  N   UNL     1      -7.805  19.425  65.734  1.00  0.00    -0.442 NA 
ENDBRANCH  15  16
ENDBRANCH  13  15
ENDBRANCH  10  13
TORSDOF 3
ENDMDL
MODEL        8
REMARK 921   NORMALIZED FREE ENERGY PREDICTED BY IDOCK:   -6.56 KCAL/MOL
REMARK 922        TOTAL FREE ENERGY PREDICTED BY IDOCK:   -8.36 KCAL/MOL
REMARK 923 INTER-LIGAND FREE ENERGY PREDICTED BY IDOCK:   -7.75 KCAL/MOL
REMARK 924 INTRA-LIGAND FREE ENERGY PREDICTED BY IDOCK:   -0.61 KCAL/MOL
REMARK 927      BINDING AFFINITY PREDICTED BY RF-SCORE:    0.00 PKD
ROOT
HETATM    1  O   UNL     1     -11.170  11.384  62.932  1.00  0.00    -0.807 OA 
HETATM    2  C   UNL     1     -11.229  12.298  64.018  1.00  0.00    -0.392 C  
HETATM    3  H   UNL     1     -10.531  10.706  63.115  1.00  0.00     0.000 HD 
HETATM    4  C   UNL     1     -12.264  13.396  63.721  1.00  0.00    -0.482 C  
HETATM    5  C   UNL     1     -12.325  14.392  64.889  1.00  0.00    -0.414 C  
HETATM    6  C   UNL     1     -10.936  15.010  65.108  1.00  0.00    -0.417 C  
HETATM    7  C   UNL     1      -9.912  13.908  65.425  1.00  0.00    -0.274 C  
HETATM    8  C   UNL     1     -10.355  13.148  66.692  1.00  0.00    -0.265 C  
HETATM    9  C   UNL     1      -9.849  12.932  64.243  1.00  0.00     0.010 C  
HETATM   10  C   UNL     1     -11.756  12.502  66.492  1.00  0.00    -0.391 C  
HETATM   11  C   UNL     1     -11.653  11.537  65.285  1.00  0.00     0.001 C  
HETATM   12  C   UNL     1     -12.755  13.643  66.163  1.00  0.00    -0.295 C  
ENDROOT
BRANCH  10  13
HETATM   13  N   UNL     1     -12.109  11.802  67.743  1.00  0.00    -0.560 NA 
HETATM   14  H   UNL     1     -12.189  10.798  67.578  1.00  0.00     0.000 HD 
BRANCH  13  15
HETATM   15  C   UNL     1     -11.194  12.066  68.870  1.00  0.00    -0.261 C  
BRANCH  15  16
HETATM   16  C   UNL     1     -11.948  12.084  70.203  1.00  0.00    -0.321 C  
HETATM   17  O   UNL     1     -12.102  11.040  70.840  1.00  0.00    -0.342 OA 
HETATM   18  N   UNL     1     -12.410  13.293  70.682  1.00  0.00    -0.360 N  
HETATM   19  C   UNL     1     -13.056  13.395  71.974  1.00  0.00    -0.377 C  
HETATM   20  C   UNL     1     -14.066  14.506  71.777  1.00  0.00    -0.578 C  
HETATM   21  C   UNL     1     -13.381  15.460  70.801  1.00  0.00    -0.385 C  
HETATM   22  C   UNL     1     -12.385  14.594  70.005  1.00  0.00    -0.315 C  
HETATM   23  C   UNL     1     -11.041  15.210  70.013  1.00  0.00    -0.275 C  
HETATM   24  N   UNL     1      -9.987  15.700  70.044  1.00  0.00    -0.250 NA 
ENDBRANCH  15  16
ENDBRANCH  13  15
ENDBRANCH  10  13
TORSDOF 3
ENDMDL
MODEL        9
REMARK 921   NORMALIZED FREE ENERGY PREDICTED BY IDOCK:   -6.56 KCAL/MOL
REMARK 922        TOTAL FREE ENERGY PREDICTED BY IDOCK:   -8.35 KCAL/MOL
REMARK 923 INTER-LIGAND FREE ENERGY PREDICTED BY IDOCK:   -7.88 KCAL/MOL
REMARK 924 INTRA-LIGAND FREE ENERGY PREDICTED BY IDOCK:   -0.46 KCAL/MOL
REMARK 927      BINDING AFFINITY PREDICTED BY RF-SCORE:    0.00 PKD
ROOT
HETATM    1  O   UNL     1     -12.328  14.292  63.208  1.00  0.00    -1.118 OA 
HETATM    2  C   UNL     1     -11.772  14.037  64.490  1.00  0.00    -0.413 C  
HETATM    3  H   UNL     1     -13.022  14.936  63.279  1.00  0.00     0.000 HD 
HETATM    4  C   UNL     1     -10.648  12.994  64.374  1.00  0.00    -0.429 C  
HETATM    5  C   UNL     1     -10.050  12.709  65.760  1.00  0.00    -0.284 C  
HETATM    6  C   UNL     1     -11.154  12.203  66.700  1.00  0.00    -0.353 C  
HETATM    7  C   UNL     1     -12.263  13.260  66.827  1.00  0.00    -0.340 C  
HETATM    8  C   UNL     1     -11.662  14.569  67.379  1.00  0.00    -0.425 C  
HETATM    9  C   UNL     1     -12.863  13.522  65.439  1.00  0.00    -0.420 C  
HETATM   10  C   UNL     1     -10.546  15.108  66.437  1.00  0.00    -0.305 C  
HETATM   11  C   UNL     1     -11.188  15.346  65.047  1.00  0.00    -0.393 C  
HETATM   12  C   UNL     1      -9.456  14.010  66.326  1.00  0.00    -0.249 C  
ENDROOT
BRANCH  10  13
HETATM   13  N   UNL     1     -10.020  16.353  67.033  1.00  0.00    -0.255 NA 
HETATM   14  H   UNL     1      -9.044  16.233  67.303  1.00  0.00     0.000 HD 
BRANCH  13  15
HETATM   15  C   UNL     1     -10.175  17.550  66.183  1.00  0.00    -0.335 C  
BRANCH  15  16
HETATM   16  C   UNL     1      -9.720  18.814  66.918  1.00  0.00    -0.316 C  
HETATM   17  O   UNL     1     -10.510  19.428  67.637  1.00  0.00    -0.408 OA 
HETATM   18  N   UNL     1      -8.407  19.217  66.784  1.00  0.00    -0.281 N  
HETATM   19  C   UNL     1      -7.888  20.353  67.517  1.00  0.00    -0.297 C  
HETATM   20  C   UNL     1      -6.859  20.940  66.576  1.00  0.00    -0.281 C  
HETATM   21  C   UNL     1      -6.277  19.723  65.858  1.00  0.00    -0.208 C  
HETATM   22  C   UNL     1      -7.381  18.648  65.903  1.00  0.00    -0.213 C  
HETATM   23  C   UNL     1      -6.839  17.371  66.416  1.00  0.00    -0.274 C  
HETATM   24  N   UNL     1      -6.401  16.380  66.836  1.00  0.00    -0.289 NA 
ENDBRANCH  15  16
ENDBRANCH  13  15
ENDBRANCH  10  13
TORSDOF 3
ENDMDL
MODEL       10
REMARK 921   NORMALIZED FREE ENERGY PREDICTED BY IDOCK:   -6.56 KCAL/MOL
REMARK 922        TOTAL FREE ENERGY PREDICTED BY IDOCK:   -8.35 KCAL/MOL
REMARK 923 INTER-LIGAND FREE ENERGY PREDICTED BY IDOCK:   -7.87 KCAL/MOL
REMARK 924 INTRA-LIGAND FREE ENERGY PREDICTED BY IDOCK:   -0.48 KCAL/MOL
REMARK 927      BINDING AFFINITY PREDICTED BY RF-SCORE:    0.00 PKD
ROOT
HETATM    1  O   UNL     1     -13.214   8.345  73.023  1.00  0.00    -0.642 OA 
HETATM    2  C   UNL     1     -12.090   8.204  72.166  1.00  0.00    -0.357 C  
HETATM    3  H   UNL     1     -13.039   9.010  73.679  1.00  0.00     0.000 HD 
HETATM    4  C   UNL     1     -12.375   7.128  71.104  1.00  0.00    -0.404 C  
HETATM    5  C   UNL     1     -11.158   6.967  70.180  1.00  0.00    -0.344 C  
HETATM    6  C   UNL     1      -9.928   6.582  71.016  1.00  0.00    -0.203 C  
HETATM    7  C   UNL     1      -9.638   7.672  72.060  1.00  0.00    -0.200 C  
HETATM    8  C   UNL     1      -9.387   9.014  71.343  1.00  0.00    -0.310 C  
HETATM    9  C   UNL     1     -10.854   7.811  72.987  1.00  0.00    -0.451 C  
HETATM   10  C   UNL     1     -10.625   9.432  70.497  1.00  0.00    -0.271 C  
HETATM   11  C   UNL     1     -11.829   9.547  71.464  1.00  0.00    -0.478 C  
HETATM   12  C   UNL     1     -10.891   8.303  69.466  1.00  0.00    -0.124 C  
ENDROOT
BRANCH  10  13
HETATM   13  N   UNL     1     -10.306  10.716  69.841  1.00  0.00    -0.444 NA 
HETATM   14  H   UNL     1      -9.951  10.555  68.898  1.00  0.00     0.000 HD 
BRANCH  13  15
HETATM   15  C   UNL     1     -11.422  11.681  69.813  1.00  0.00    -0.264 C  
BRANCH  15  16
HETATM   16  C   UNL     1     -11.719  12.145  68.384  1.00  0.00    -0.332 C  
HETATM   17  O   UNL     1     -12.023  11.322  67.518  1.00  0.00    -0.612 OA 
HETATM   18  N   UNL     1     -11.674  13.496  68.107  1.00  0.00    -0.341 N  
HETATM   19  C   UNL     1     -12.025  14.010  66.800  1.00  0.00    -0.444 C  
HETATM   20  C   UNL     1     -11.124  15.216  66.642  1.00  0.00    -0.308 C  
HETATM   21  C   UNL     1     -11.003  15.776  68.058  1.00  0.00    -0.330 C  
HETATM   22  C   UNL     1     -11.244  14.579  68.998  1.00  0.00    -0.268 C  
HETATM   23  C   UNL     1     -12.266  14.915  70.013  1.00  0.00    -0.333 C  
HETATM   24  N   UNL     1     -13.084  15.191  70.792  1.00  0.00    -0.408 NA 
ENDBRANCH  15  16
ENDBRANCH  13  15
ENDBRANCH  10  13
TORSDOF 3
ENDMDL
MODEL       11
REMARK 921   NORMALIZED FREE ENERGY PREDICTED BY IDOCK:   -6.52 KCAL/MOL
REMARK 922        TOTAL FREE ENERGY PREDICTED BY IDOCK:   -8.30 KCAL/MOL
REMARK 923 INTER-LIGAND FREE ENERGY PREDICTED BY IDOCK:   -7.71 KCAL/MOL
REMARK 924 INTRA-LIGAND FREE ENERGY PREDICTED BY IDOCK:   -0.59 KCAL/MOL
REMARK 927      BINDING AFFINITY PREDICTED BY RF-SCORE:    0.00 PKD
ROOT
HETATM    1  O   UNL     1     -12.310  10.749  68.816  1.00  0.00    -0.812 OA 
HETATM    2  C   UNL     1     -11.334  11.317  67.955  1.00  0.00    -0.304 C  
HETATM    3  H   UNL     1     -12.443  11.312  69.570  1.00  0.00     0.000 HD 
HETATM    4  C   UNL     1     -11.120  10.405  66.735  1.00  0.00    -0.023 C  
HETATM    5  C   UNL     1     -10.058  11.011  65.805  1.00  0.00    -0.305 C  
HETATM    6  C   UNL     1      -8.742  11.189  66.578  1.00  0.00    -0.174 C  
HETATM    7  C   UNL     1      -8.960  12.118  67.783  1.00  0.00    -0.179 C  
HETATM    8  C   UNL     1      -9.468  13.487  67.288  1.00  0.00    -0.230 C  
HETATM    9  C   UNL     1     -10.009  11.492  68.712  1.00  0.00    -0.169 C  
HETATM   10  C   UNL     1     -10.807  13.335  66.510  1.00  0.00    -0.281 C  
HETATM   11  C   UNL     1     -11.833  12.690  67.475  1.00  0.00    -0.396 C  
HETATM   12  C   UNL     1     -10.548  12.384  65.313  1.00  0.00    -0.322 C  
ENDROOT
BRANCH  10  13
HETATM   13  N   UNL     1     -11.223  14.681  66.067  1.00  0.00    -0.339 NA 
HETATM   14  H   UNL     1     -11.808  15.124  66.776  1.00  0.00     0.000 HD 
BRANCH  13  15
HETATM   15  C   UNL     1     -10.108  15.572  65.690  1.00  0.00    -0.376 C  
BRANCH  15  16
HETATM   16  C   UNL     1     -10.595  17.008  65.473  1.00  0.00    -0.173 C  
HETATM   17  O   UNL     1     -11.201  17.305  64.441  1.00  0.00    -1.082 OA 
HETATM   18  N   UNL     1     -10.373  17.937  66.469  1.00  0.00    -0.369 N  
HETATM   19  C   UNL     1     -10.880  19.289  66.365  1.00  0.00    -0.280 C  
HETATM   20  C   UNL     1      -9.833  20.114  67.084  1.00  0.00    -0.586 C  
HETATM   21  C   UNL     1      -9.341  19.196  68.201  1.00  0.00    -0.388 C  
HETATM   22  C   UNL     1      -9.596  17.761  67.700  1.00  0.00    -0.266 C  
HETATM   23  C   UNL     1     -10.325  16.978  68.722  1.00  0.00    -0.336 C  
HETATM   24  N   UNL     1     -10.912  16.382  69.529  1.00  0.00    -0.323 NA 
ENDBRANCH  15  16
ENDBRANCH  13  15
ENDBRANCH  10  13
TORSDOF 3
ENDMDL
MODEL       12
REMARK 921   NORMALIZED FREE ENERGY PREDICTED BY IDOCK:   -6.49 KCAL/MOL
REMARK 922        TOTAL FREE ENERGY PREDICTED BY IDOCK:   -8.27 KCAL/MOL
REMARK 923 INTER-LIGAND FREE ENERGY PREDICTED BY IDOCK:   -7.82 KCAL/MOL
REMARK 924 INTRA-LIGAND FREE ENERGY PREDICTED BY IDOCK:   -0.44 KCAL/MOL
REMARK 927      BINDING AFFINITY PREDICTED BY RF-SCORE:    0.00 PKD
ROOT
HETATM    1  O   UNL     1     -12.285  13.475  63.424  1.00  0.00    -0.842 OA 
HETATM    2  C   UNL     1     -11.758  13.570  64.739  1.00  0.00    -0.370 C  
HETATM    3  H   UNL     1     -11.674  13.012  62.863  1.00  0.00     0.000 HD 
HETATM    4  C   UNL     1     -12.749  14.320  65.646  1.00  0.00    -0.395 C  
HETATM    5  C   UNL     1     -12.179  14.431  67.069  1.00  0.00    -0.274 C  
HETATM    6  C   UNL     1     -10.831  15.167  67.024  1.00  0.00    -0.314 C  
HETATM    7  C   UNL     1      -9.841  14.400  66.133  1.00  0.00    -0.340 C  
HETATM    8  C   UNL     1      -9.644  12.977  66.694  1.00  0.00    -0.259 C  
HETATM    9  C   UNL     1     -10.414  14.311  64.712  1.00  0.00    -0.421 C  
HETATM   10  C   UNL     1     -10.995  12.206  66.739  1.00  0.00    -0.280 C  
HETATM   11  C   UNL     1     -11.546  12.150  65.292  1.00  0.00    -0.376 C  
HETATM   12  C   UNL     1     -11.968  13.017  67.636  1.00  0.00    -0.353 C  
ENDROOT
BRANCH  10  13
HETATM   13  N   UNL     1     -10.726  10.862  67.289  1.00  0.00    -0.251 NA 
HETATM   14  H   UNL     1      -9.726  10.738  67.451  1.00  0.00     0.000 HD 
BRANCH  13  15
HETATM   15  C   UNL     1     -11.489  10.538  68.510  1.00  0.00    -0.215 C  
BRANCH  15  16
HETATM   16  C   UNL     1     -10.614   9.806  69.533  1.00  0.00    -0.233 C  
HETATM   17  O   UNL     1      -9.441   9.539  69.263  1.00  0.00    -0.155 OA 
HETATM   18  N   UNL     1     -11.158   9.493  70.761  1.00  0.00    -0.294 N  
HETATM   19  C   UNL     1     -10.363   8.878  71.804  1.00  0.00    -0.356 C  
HETATM   20  C   UNL     1     -11.358   8.002  72.535  1.00  0.00    -0.469 C  
HETATM   21  C   UNL     1     -12.668   8.783  72.455  1.00  0.00    -0.433 C  
HETATM   22  C   UNL     1     -12.550   9.662  71.194  1.00  0.00    -0.322 C  
HETATM   23  C   UNL     1     -12.877  11.069  71.511  1.00  0.00    -0.450 C  
HETATM   24  N   UNL     1     -13.121  12.173  71.782  1.00  0.00    -0.420 NA 
ENDBRANCH  15  16
ENDBRANCH  13  15
ENDBRANCH  10  13
TORSDOF 3
ENDMDL
MODEL       13
REMARK 921   NORMALIZED FREE ENERGY PREDICTED BY IDOCK:   -6.47 KCAL/MOL
REMARK 922        TOTAL FREE ENERGY PREDICTED BY IDOCK:   -8.24 KCAL/MOL
REMARK 923 INTER-LIGAND FREE ENERGY PREDICTED BY IDOCK:   -7.82 KCAL/MOL
REMARK 924 INTRA-LIGAND FREE ENERGY PREDICTED BY IDOCK:   -0.43 KCAL/MOL
REMARK 927      BINDING AFFINITY PREDICTED BY RF-SCORE:    0.00 PKD
ROOT
HETATM    1  O   UNL     1     -11.269  11.052  63.669  1.00  0.00    -0.521 OA 
HETATM    2  C   UNL     1     -11.245  12.154  64.565  1.00  0.00    -0.331 C  
HETATM    3  H   UNL     1     -10.451  10.572  63.725  1.00  0.00     0.000 HD 
HETATM    4  C   UNL     1     -12.570  12.930  64.474  1.00  0.00    -0.420 C  
HETATM    5  C   UNL     1     -12.545  14.128  65.435  1.00  0.00    -0.485 C  
HETATM    6  C   UNL     1     -11.363  15.043  65.082  1.00  0.00    -0.372 C  
HETATM    7  C   UNL     1     -10.042  14.266  65.196  1.00  0.00    -0.353 C  
HETATM    8  C   UNL     1      -9.883  13.735  66.635  1.00  0.00    -0.286 C  
HETATM    9  C   UNL     1     -10.073  13.083  64.218  1.00  0.00    -0.216 C  
HETATM   10  C   UNL     1     -11.064  12.795  67.014  1.00  0.00    -0.278 C  
HETATM   11  C   UNL     1     -11.069  11.625  65.999  1.00  0.00    -0.325 C  
HETATM   12  C   UNL     1     -12.376  13.612  66.874  1.00  0.00    -0.309 C  
ENDROOT
BRANCH  10  13
HETATM   13  N   UNL     1     -10.843  12.335  68.400  1.00  0.00    -0.220 NA 
HETATM   14  H   UNL     1     -11.012  13.095  69.058  1.00  0.00     0.000 HD 
BRANCH  13  15
HETATM   15  C   UNL     1     -11.626  11.142  68.779  1.00  0.00    -0.322 C  
BRANCH  15  16
HETATM   16  C   UNL     1     -10.830  10.235  69.722  1.00  0.00    -0.287 C  
HETATM   17  O   UNL     1      -9.667   9.929  69.450  1.00  0.00    -0.189 OA 
HETATM   18  N   UNL     1     -11.432   9.807  70.888  1.00  0.00    -0.339 N  
HETATM   19  C   UNL     1     -10.710   9.017  71.863  1.00  0.00    -0.331 C  
HETATM   20  C   UNL     1     -11.779   8.123  72.454  1.00  0.00    -0.461 C  
HETATM   21  C   UNL     1     -13.037   8.989  72.440  1.00  0.00    -0.487 C  
HETATM   22  C   UNL     1     -12.824  10.009  71.303  1.00  0.00    -0.402 C  
HETATM   23  C   UNL     1     -13.076  11.384  71.788  1.00  0.00    -0.418 C  
HETATM   24  N   UNL     1     -13.261  12.459  72.189  1.00  0.00    -0.466 NA 
ENDBRANCH  15  16
ENDBRANCH  13  15
ENDBRANCH  10  13
TORSDOF 3
ENDMDL
MODEL       14
REMARK 921   NORMALIZED FREE ENERGY PREDICTED BY IDOCK:   -6.46 KCAL/MOL
REMARK 922        TOTAL FREE ENERGY PREDICTED BY IDOCK:   -8.23 KCAL/MOL
REMARK 923 INTER-LIGAND FREE ENERGY PREDICTED BY IDOCK:   -7.75 KCAL/MOL
REMARK 924 INTRA-LIGAND FREE ENERGY PREDICTED BY IDOCK:   -0.49 KCAL/MOL
REMARK 927      BINDING AFFINITY PREDICTED BY RF-SCORE:    0.00 PKD
ROOT
HETATM    1  O   UNL     1     -11.538   6.099  69.211  1.00  0.00    -0.453 OA 
HETATM    2  C   UNL     1     -11.251   7.034  70.242  1.00  0.00    -0.298 C  
HETATM    3  H   UNL     1     -12.317   6.368  68.740  1.00  0.00     0.000 HD 
HETATM    4  C   UNL     1      -9.988   6.598  71.005  1.00  0.00    -0.200 C  
HETATM    5  C   UNL     1      -9.678   7.602  72.126  1.00  0.00    -0.220 C  
HETATM    6  C   UNL     1     -10.878   7.688  73.081  1.00  0.00    -0.440 C  
HETATM    7  C   UNL     1     -12.130   8.144  72.316  1.00  0.00    -0.419 C  
HETATM    8  C   UNL     1     -11.866   9.523  71.678  1.00  0.00    -0.468 C  
HETATM    9  C   UNL     1     -12.438   7.124  71.211  1.00  0.00    -0.425 C  
HETATM   10  C   UNL     1     -10.661   9.460  70.696  1.00  0.00    -0.290 C  
HETATM   11  C   UNL     1     -11.004   8.413  69.607  1.00  0.00    -0.094 C  
HETATM   12  C   UNL     1      -9.423   8.985  71.503  1.00  0.00    -0.316 C  
ENDROOT
BRANCH  10  13
HETATM   13  N   UNL     1     -10.469  10.812  70.134  1.00  0.00    -0.400 NA 
HETATM   14  H   UNL     1      -9.994  10.759  69.233  1.00  0.00     0.000 HD 
BRANCH  13  15
HETATM   15  C   UNL     1     -11.708  11.605  70.016  1.00  0.00    -0.321 C  
BRANCH  15  16
HETATM   16  C   UNL     1     -11.866  12.181  68.606  1.00  0.00    -0.306 C  
HETATM   17  O   UNL     1     -12.137  11.436  67.662  1.00  0.00    -0.630 OA 
HETATM   18  N   UNL     1     -11.736  13.544  68.432  1.00  0.00    -0.338 N  
HETATM   19  C   UNL     1     -11.956  14.164  67.142  1.00  0.00    -0.426 C  
HETATM   20  C   UNL     1     -10.991  15.330  67.142  1.00  0.00    -0.331 C  
HETATM   21  C   UNL     1     -10.958  15.784  68.600  1.00  0.00    -0.307 C  
HETATM   22  C   UNL     1     -11.330  14.539  69.430  1.00  0.00    -0.279 C  
HETATM   23  C   UNL     1     -12.414  14.858  70.384  1.00  0.00    -0.350 C  
HETATM   24  N   UNL     1     -13.278  15.122  71.116  1.00  0.00    -0.437 NA 
ENDBRANCH  15  16
ENDBRANCH  13  15
ENDBRANCH  10  13
TORSDOF 3
ENDMDL
MODEL       15
REMARK 921   NORMALIZED FREE ENERGY PREDICTED BY IDOCK:   -6.45 KCAL/MOL
REMARK 922        TOTAL FREE ENERGY PREDICTED BY IDOCK:   -8.23 KCAL/MOL
REMARK 923 INTER-LIGAND FREE ENERGY PREDICTED BY IDOCK:   -7.69 KCAL/MOL
REMARK 924 INTRA-LIGAND FREE ENERGY PREDICTED BY IDOCK:   -0.53 KCAL/MOL
REMARK 927      BINDING AFFINITY PREDICTED BY RF-SCORE:    0.00 PKD
ROOT
HETATM    1  O   UNL     1      -8.152  13.295  66.619  1.00  0.00    -0.392 OA 
HETATM    2  C   UNL     1      -9.345  14.056  66.505  1.00  0.00    -0.255 C  
HETATM    3  H   UNL     1      -7.648  13.594  67.367  1.00  0.00     0.000 HD 
HETATM    4  C   UNL     1     -10.161  13.572  65.295  1.00  0.00    -0.323 C  
HETATM    5  C   UNL     1     -11.449  14.399  65.163  1.00  0.00    -0.362 C  
HETATM    6  C   UNL     1     -11.089  15.884  65.006  1.00  0.00    -0.370 C  
HETATM    7  C   UNL     1     -10.293  16.366  66.229  1.00  0.00    -0.337 C  
HETATM    8  C   UNL     1     -11.138  16.161  67.503  1.00  0.00    -0.175 C  
HETATM    9  C   UNL     1      -9.002  15.543  66.339  1.00  0.00    -0.359 C  
HETATM   10  C   UNL     1     -11.506  14.661  67.690  1.00  0.00    -0.346 C  
HETATM   11  C   UNL     1     -10.180  13.866  67.783  1.00  0.00    -0.237 C  
HETATM   12  C   UNL     1     -12.296  14.212  66.433  1.00  0.00    -0.431 C  
ENDROOT
BRANCH  10  13
HETATM   13  N   UNL     1     -12.315  14.549  68.921  1.00  0.00    -0.582 NA 
HETATM   14  H   UNL     1     -13.169  14.022  68.739  1.00  0.00     0.000 HD 
BRANCH  13  15
HETATM   15  C   UNL     1     -11.594  13.978  70.076  1.00  0.00    -0.232 C  
BRANCH  15  16
HETATM   16  C   UNL     1     -12.518  13.103  70.929  1.00  0.00    -0.323 C  
HETATM   17  O   UNL     1     -13.395  13.624  71.622  1.00  0.00    -0.355 OA 
HETATM   18  N   UNL     1     -12.369  11.733  70.869  1.00  0.00    -0.366 N  
HETATM   19  C   UNL     1     -13.262  10.845  71.583  1.00  0.00    -0.367 C  
HETATM   20  C   UNL     1     -12.376   9.675  71.953  1.00  0.00    -0.437 C  
HETATM   21  C   UNL     1     -11.403   9.562  70.780  1.00  0.00    -0.387 C  
HETATM   22  C   UNL     1     -11.326  10.976  70.169  1.00  0.00    -0.251 C  
HETATM   23  C   UNL     1     -11.549  10.921  68.709  1.00  0.00    -0.309 C  
HETATM   24  N   UNL     1     -11.744  10.862  67.564  1.00  0.00    -0.498 NA 
ENDBRANCH  15  16
ENDBRANCH  13  15
ENDBRANCH  10  13
TORSDOF 3
ENDMDL
MODEL       16
REMARK 921   NORMALIZED FREE ENERGY PREDICTED BY IDOCK:   -6.41 KCAL/MOL
REMARK 922        TOTAL FREE ENERGY PREDICTED BY IDOCK:   -8.17 KCAL/MOL
REMARK 923 INTER-LIGAND FREE ENERGY PREDICTED BY IDOCK:   -7.77 KCAL/MOL
REMARK 924 INTRA-LIGAND FREE ENERGY PREDICTED BY IDOCK:   -0.41 KCAL/MOL
REMARK 927      BINDING AFFINITY PREDICTED BY RF-SCORE:    0.00 PKD
ROOT
HETATM    1  O   UNL     1     -10.763  19.709  65.339  1.00  0.00    -0.426 OA 
HETATM    2  C   UNL     1     -10.067  19.149  66.443  1.00  0.00    -0.419 C  
HETATM    3  H   UNL     1     -10.515  19.261  64.540  1.00  0.00     0.000 HD 
HETATM    4  C   UNL     1     -10.470  19.875  67.738  1.00  0.00    -0.511 C  
HETATM    5  C   UNL     1      -9.712  19.278  68.933  1.00  0.00    -0.493 C  
HETATM    6  C   UNL     1      -8.200  19.405  68.697  1.00  0.00    -0.399 C  
HETATM    7  C   UNL     1      -7.803  18.659  67.413  1.00  0.00    -0.242 C  
HETATM    8  C   UNL     1      -8.191  17.172  67.545  1.00  0.00    -0.196 C  
HETATM    9  C   UNL     1      -8.553  19.277  66.225  1.00  0.00    -0.335 C  
HETATM   10  C   UNL     1      -9.722  17.016  67.774  1.00  0.00    -0.258 C  
HETATM   11  C   UNL     1     -10.441  17.662  66.564  1.00  0.00    -0.283 C  
HETATM   12  C   UNL     1     -10.083  17.791  69.069  1.00  0.00    -0.294 C  
ENDROOT
BRANCH  10  13
HETATM   13  N   UNL     1     -10.013  15.573  67.895  1.00  0.00    -0.218 NA 
HETATM   14  H   UNL     1      -9.560  15.187  68.723  1.00  0.00     0.000 HD 
BRANCH  13  15
HETATM   15  C   UNL     1     -11.450  15.236  67.890  1.00  0.00    -0.316 C  
BRANCH  15  16
HETATM   16  C   UNL     1     -11.722  13.955  68.685  1.00  0.00    -0.361 C  
HETATM   17  O   UNL     1     -12.040  14.022  69.874  1.00  0.00    -0.307 OA 
HETATM   18  N   UNL     1     -11.640  12.744  68.029  1.00  0.00    -0.320 N  
HETATM   19  C   UNL     1     -11.966  11.502  68.698  1.00  0.00    -0.246 C  
HETATM   20  C   UNL     1     -11.033  10.499  68.053  1.00  0.00    -0.345 C  
HETATM   21  C   UNL     1     -10.910  10.982  66.609  1.00  0.00    -0.284 C  
HETATM   22  C   UNL     1     -11.190  12.498  66.655  1.00  0.00    -0.307 C  
HETATM   23  C   UNL     1     -12.212  12.865  65.651  1.00  0.00    -0.463 C  
HETATM   24  N   UNL     1     -13.028  13.135  64.869  1.00  0.00    -0.745 NA 
ENDBRANCH  15  16
ENDBRANCH  13  15
ENDBRANCH  10  13
TORSDOF 3
ENDMDL
MODEL       17
REMARK 921   NORMALIZED FREE ENERGY PREDICTED BY IDOCK:   -6.40 KCAL/MOL
REMARK 922        TOTAL FREE ENERGY PREDICTED BY IDOCK:   -8.16 KCAL/MOL
REMARK 923 INTER-LIGAND FREE ENERGY PREDICTED BY IDOCK:   -7.56 KCAL/MOL
REMARK 924 INTRA-LIGAND FREE ENERGY PREDICTED BY IDOCK:   -0.60 KCAL/MOL
REMARK 927      BINDING AFFINITY PREDICTED BY RF-SCORE:    0.00 PKD
ROOT
HETATM    1  O   UNL     1     -10.701  16.804  64.861  1.00  0.00    -0.721 OA 
HETATM    2  C   UNL     1     -10.200  16.824  66.190  1.00  0.00    -0.351 C  
HETATM    3  H   UNL     1     -10.496  15.972  64.451  1.00  0.00     0.000 HD 
HETATM    4  C   UNL     1     -10.532  18.171  66.853  1.00  0.00    -0.372 C  
HETATM    5  C   UNL     1      -9.985  18.200  68.288  1.00  0.00    -0.380 C  
HETATM    6  C   UNL     1      -8.466  17.977  68.261  1.00  0.00    -0.293 C  
HETATM    7  C   UNL     1      -8.143  16.620  67.617  1.00  0.00    -0.184 C  
HETATM    8  C   UNL     1      -8.826  15.496  68.423  1.00  0.00    -0.183 C  
HETATM    9  C   UNL     1      -8.680  16.611  66.179  1.00  0.00    -0.322 C  
HETATM   10  C   UNL     1     -10.369  15.693  68.455  1.00  0.00    -0.219 C  
HETATM   11  C   UNL     1     -10.868  15.692  66.989  1.00  0.00    -0.294 C  
HETATM   12  C   UNL     1     -10.650  17.076  69.100  1.00  0.00    -0.303 C  
ENDROOT
BRANCH  10  13
HETATM   13  N   UNL     1     -10.946  14.587  69.245  1.00  0.00    -0.256 NA 
HETATM   14  H   UNL     1     -11.365  14.943  70.104  1.00  0.00     0.000 HD 
BRANCH  13  15
HETATM   15  C   UNL     1     -11.914  13.750  68.509  1.00  0.00    -0.367 C  
BRANCH  15  16
HETATM   16  C   UNL     1     -11.569  12.263  68.634  1.00  0.00    -0.323 C  
HETATM   17  O   UNL     1     -11.716  11.684  69.712  1.00  0.00    -0.306 OA 
HETATM   18  N   UNL     1     -11.134  11.591  67.510  1.00  0.00    -0.254 N  
HETATM   19  C   UNL     1     -10.872  10.167  67.538  1.00  0.00    -0.290 C  
HETATM   20  C   UNL     1      -9.734   9.999  66.554  1.00  0.00    -0.254 C  
HETATM   21  C   UNL     1     -10.008  11.056  65.486  1.00  0.00    -0.308 C  
HETATM   22  C   UNL     1     -10.826  12.156  66.192  1.00  0.00    -0.282 C  
HETATM   23  C   UNL     1     -12.043  12.475  65.415  1.00  0.00    -0.435 C  
HETATM   24  N   UNL     1     -13.004  12.701  64.801  1.00  0.00    -0.867 NA 
ENDBRANCH  15  16
ENDBRANCH  13  15
ENDBRANCH  10  13
TORSDOF 3
ENDMDL
MODEL       18
REMARK 921   NORMALIZED FREE ENERGY PREDICTED BY IDOCK:   -6.38 KCAL/MOL
REMARK 922        TOTAL FREE ENERGY PREDICTED BY IDOCK:   -8.15 KCAL/MOL
REMARK 923 INTER-LIGAND FREE ENERGY PREDICTED BY IDOCK:   -7.79 KCAL/MOL
REMARK 924 INTRA-LIGAND FREE ENERGY PREDICTED BY IDOCK:   -0.35 KCAL/MOL
REMARK 927      BINDING AFFINITY PREDICTED BY RF-SCORE:    0.00 PKD
ROOT
HETATM    1  O   UNL     1      -6.442  18.714  67.258  1.00  0.00    -0.192 OA 
HETATM    2  C   UNL     1      -7.853  18.587  67.356  1.00  0.00    -0.235 C  
HETATM    3  H   UNL     1      -6.025  18.241  67.968  1.00  0.00     0.000 HD 
HETATM    4  C   UNL     1      -8.528  19.354  66.206  1.00  0.00    -0.346 C  
HETATM    5  C   UNL     1     -10.055  19.225  66.312  1.00  0.00    -0.519 C  
HETATM    6  C   UNL     1     -10.522  19.775  67.669  1.00  0.00    -0.564 C  
HETATM    7  C   UNL     1      -9.860  18.989  68.812  1.00  0.00    -0.485 C  
HETATM    8  C   UNL     1     -10.234  17.498  68.691  1.00  0.00    -0.373 C  
HETATM    9  C   UNL     1      -8.336  19.140  68.704  1.00  0.00    -0.403 C  
HETATM   10  C   UNL     1      -9.762  16.914  67.328  1.00  0.00    -0.251 C  
HETATM   11  C   UNL     1      -8.226  17.098  67.253  1.00  0.00    -0.206 C  
HETATM   12  C   UNL     1     -10.441  17.740  66.204  1.00  0.00    -0.301 C  
ENDROOT
BRANCH  10  13
HETATM   13  N   UNL     1     -10.159  15.492  67.288  1.00  0.00    -0.246 NA 
HETATM   14  H   UNL     1      -9.601  14.948  67.945  1.00  0.00     0.000 HD 
BRANCH  13  15
HETATM   15  C   UNL     1     -11.598  15.254  67.514  1.00  0.00    -0.214 C  
BRANCH  15  16
HETATM   16  C   UNL     1     -11.823  14.043  68.425  1.00  0.00    -0.362 C  
HETATM   17  O   UNL     1     -12.142  14.207  69.604  1.00  0.00    -0.316 OA 
HETATM   18  N   UNL     1     -11.698  12.780  67.883  1.00  0.00    -0.348 N  
HETATM   19  C   UNL     1     -11.979  11.593  68.664  1.00  0.00    -0.248 C  
HETATM   20  C   UNL     1     -11.012  10.569  68.110  1.00  0.00    -0.330 C  
HETATM   21  C   UNL     1     -10.908  10.922  66.627  1.00  0.00    -0.258 C  
HETATM   22  C   UNL     1     -11.242  12.424  66.535  1.00  0.00    -0.319 C  
HETATM   23  C   UNL     1     -12.277  12.662  65.506  1.00  0.00    -0.440 C  
HETATM   24  N   UNL     1     -13.104  12.829  64.706  1.00  0.00    -0.836 NA 
ENDBRANCH  15  16
ENDBRANCH  13  15
ENDBRANCH  10  13
TORSDOF 3
ENDMDL
MODEL       19
REMARK 921   NORMALIZED FREE ENERGY PREDICTED BY IDOCK:   -6.37 KCAL/MOL
REMARK 922        TOTAL FREE ENERGY PREDICTED BY IDOCK:   -8.13 KCAL/MOL
REMARK 923 INTER-LIGAND FREE ENERGY PREDICTED BY IDOCK:   -7.71 KCAL/MOL
REMARK 924 INTRA-LIGAND FREE ENERGY PREDICTED BY IDOCK:   -0.41 KCAL/MOL
REMARK 927      BINDING AFFINITY PREDICTED BY RF-SCORE:    0.00 PKD
ROOT
HETATM    1  O   UNL     1     -13.459   8.660  73.097  1.00  0.00    -0.883 OA 
HETATM    2  C   UNL     1     -12.318   8.368  72.302  1.00  0.00    -0.376 C  
HETATM    3  H   UNL     1     -13.254   9.355  73.711  1.00  0.00     0.000 HD 
HETATM    4  C   UNL     1     -12.649   7.242  71.308  1.00  0.00    -0.402 C  
HETATM    5  C   UNL     1     -11.416   6.917  70.451  1.00  0.00    -0.387 C  
HETATM    6  C   UNL     1     -10.254   6.500  71.365  1.00  0.00    -0.221 C  
HETATM    7  C   UNL     1      -9.916   7.638  72.341  1.00  0.00    -0.256 C  
HETATM    8  C   UNL     1      -9.529   8.899  71.543  1.00  0.00    -0.347 C  
HETATM    9  C   UNL     1     -11.150   7.940  73.202  1.00  0.00    -0.260 C  
HETATM   10  C   UNL     1     -10.695   9.349  70.616  1.00  0.00    -0.290 C  
HETATM   11  C   UNL     1     -11.922   9.631  71.519  1.00  0.00    -0.485 C  
HETATM   12  C   UNL     1     -11.013   8.172  69.657  1.00  0.00    -0.094 C  
ENDROOT
BRANCH  10  13
HETATM   13  N   UNL     1     -10.248  10.552  69.885  1.00  0.00    -0.438 NA 
HETATM   14  H   UNL     1      -9.239  10.524  69.738  1.00  0.00     0.000 HD 
BRANCH  13  15
HETATM   15  C   UNL     1     -10.948  10.786  68.607  1.00  0.00    -0.239 C  
BRANCH  15  16
HETATM   16  C   UNL     1     -11.321  12.262  68.442  1.00  0.00    -0.292 C  
HETATM   17  O   UNL     1     -11.371  13.001  69.428  1.00  0.00    -0.254 OA 
HETATM   18  N   UNL     1     -11.557  12.744  67.170  1.00  0.00    -0.344 N  
HETATM   19  C   UNL     1     -11.831  14.146  66.933  1.00  0.00    -0.431 C  
HETATM   20  C   UNL     1     -12.779  14.125  65.753  1.00  0.00    -0.443 C  
HETATM   21  C   UNL     1     -12.312  12.931  64.924  1.00  0.00    -0.532 C  
HETATM   22  C   UNL     1     -11.623  11.978  65.921  1.00  0.00    -0.300 C  
HETATM   23  C   UNL     1     -10.285  11.589  65.424  1.00  0.00    -0.264 C  
HETATM   24  N   UNL     1      -9.229  11.307  65.028  1.00  0.00    -0.175 NA 
ENDBRANCH  15  16
ENDBRANCH  13  15
ENDBRANCH  10  13
TORSDOF 3
ENDMDL
MODEL       20
REMARK 921   NORMALIZED FREE ENERGY PREDICTED BY IDOCK:   -6.34 KCAL/MOL
REMARK 922        TOTAL FREE ENERGY PREDICTED BY IDOCK:   -8.09 KCAL/MOL
REMARK 923 INTER-LIGAND FREE ENERGY PREDICTED BY IDOCK:   -7.61 KCAL/MOL
REMARK 924 INTRA-LIGAND FREE ENERGY PREDICTED BY IDOCK:   -0.48 KCAL/MOL
REMARK 927      BINDING AFFINITY PREDICTED BY RF-SCORE:    0.00 PKD
ROOT
HETATM    1  O   UNL     1     -10.900  19.386  65.147  1.00  0.00    -0.425 OA 
HETATM    2  C   UNL     1     -10.194  18.928  66.291  1.00  0.00    -0.438 C  
HETATM    3  H   UNL     1     -10.545  18.980  64.365  1.00  0.00     0.000 HD 
HETATM    4  C   UNL     1     -10.769  19.586  67.557  1.00  0.00    -0.565 C  
HETATM    5  C   UNL     1     -10.003  19.100  68.797  1.00  0.00    -0.493 C  
HETATM    6  C   UNL     1      -8.514  19.443  68.645  1.00  0.00    -0.395 C  
HETATM    7  C   UNL     1      -7.942  18.765  67.390  1.00  0.00    -0.254 C  
HETATM    8  C   UNL     1      -8.120  17.238  67.507  1.00  0.00    -0.197 C  
HETATM    9  C   UNL     1      -8.704  19.272  66.158  1.00  0.00    -0.259 C  
HETATM   10  C   UNL     1      -9.623  16.863  67.651  1.00  0.00    -0.248 C  
HETATM   11  C   UNL     1     -10.358  17.403  66.399  1.00  0.00    -0.317 C  
HETATM   12  C   UNL     1     -10.164  17.575  68.919  1.00  0.00    -0.353 C  
ENDROOT
BRANCH  10  13
HETATM   13  N   UNL     1      -9.710  15.393  67.763  1.00  0.00    -0.211 NA 
HETATM   14  H   UNL     1     -10.673  15.105  67.936  1.00  0.00     0.000 HD 
BRANCH  13  15
HETATM   15  C   UNL     1      -9.154  14.659  66.609  1.00  0.00    -0.258 C  
BRANCH  15  16
HETATM   16  C   UNL     1      -9.441  13.158  66.716  1.00  0.00    -0.252 C  
HETATM   17  O   UNL     1      -9.150  12.546  67.746  1.00  0.00    -0.175 OA 
HETATM   18  N   UNL     1     -10.061  12.529  65.657  1.00  0.00    -0.268 N  
HETATM   19  C   UNL     1     -10.437  11.132  65.725  1.00  0.00    -0.246 C  
HETATM   20  C   UNL     1     -10.278  10.654  64.298  1.00  0.00    -0.391 C  
HETATM   21  C   UNL     1     -10.666  11.867  63.455  1.00  0.00    -0.476 C  
HETATM   22  C   UNL     1     -10.385  13.096  64.343  1.00  0.00    -0.368 C  
HETATM   23  C   UNL     1     -11.565  13.985  64.385  1.00  0.00    -0.369 C  
HETATM   24  N   UNL     1     -12.508  14.664  64.422  1.00  0.00    -0.653 NA 
ENDBRANCH  15  16
ENDBRANCH  13  15
ENDBRANCH  10  13
TORSDOF 3
ENDMDL
MODEL       21
REMARK 921   NORMALIZED FREE ENERGY PREDICTED BY IDOCK:   -6.33 KCAL/MOL
REMARK 922        TOTAL FREE ENERGY PREDICTED BY IDOCK:   -8.08 KCAL/MOL
REMARK 923 INTER-LIGAND FREE ENERGY PREDICTED BY IDOCK:   -7.46 KCAL/MOL
REMARK 924 INTRA-LIGAND FREE ENERGY PREDICTED BY IDOCK:   -0.63 KCAL/MOL
REMARK 927      BINDING AFFINITY PREDICTED BY RF-SCORE:    0.00 PKD
ROOT
HETATM    1  O   UNL     1      -9.718  10.260  67.451  1.00  0.00    -0.155 OA 
HETATM    2  C   UNL     1     -10.236  11.456  66.887  1.00  0.00    -0.219 C  
HETATM    3  H   UNL     1      -8.943   9.987  66.975  1.00  0.00     0.000 HD 
HETATM    4  C   UNL     1     -11.491  11.897  67.658  1.00  0.00    -0.387 C  
HETATM    5  C   UNL     1     -12.058  13.187  67.046  1.00  0.00    -0.366 C  
HETATM    6  C   UNL     1     -12.396  12.946  65.567  1.00  0.00    -0.517 C  
HETATM    7  C   UNL     1     -11.132  12.527  64.799  1.00  0.00    -0.338 C  
HETATM    8  C   UNL     1     -10.068  13.636  64.922  1.00  0.00    -0.293 C  
HETATM    9  C   UNL     1     -10.586  11.229  65.410  1.00  0.00    -0.312 C  
HETATM   10  C   UNL     1      -9.700  13.891  66.412  1.00  0.00    -0.297 C  
HETATM   11  C   UNL     1      -9.167  12.558  66.993  1.00  0.00    -0.214 C  
HETATM   12  C   UNL     1     -11.001  14.299  67.152  1.00  0.00    -0.305 C  
ENDROOT
BRANCH  10  13
HETATM   13  N   UNL     1      -8.685  14.963  66.445  1.00  0.00    -0.467 NA 
HETATM   14  H   UNL     1      -8.688  15.484  65.568  1.00  0.00     0.000 HD 
BRANCH  13  15
HETATM   15  C   UNL     1      -8.807  15.885  67.592  1.00  0.00    -0.174 C  
BRANCH  15  16
HETATM   16  C   UNL     1      -8.116  17.221  67.305  1.00  0.00    -0.192 C  
HETATM   17  O   UNL     1      -6.902  17.339  67.480  1.00  0.00    -0.144 OA 
HETATM   18  N   UNL     1      -8.876  18.264  66.814  1.00  0.00    -0.269 N  
HETATM   19  C   UNL     1      -8.272  19.526  66.442  1.00  0.00    -0.333 C  
HETATM   20  C   UNL     1      -9.348  20.540  66.767  1.00  0.00    -0.382 C  
HETATM   21  C   UNL     1     -10.653  19.804  66.470  1.00  0.00    -0.580 C  
HETATM   22  C   UNL     1     -10.331  18.306  66.639  1.00  0.00    -0.381 C  
HETATM   23  C   UNL     1     -10.782  17.543  65.455  1.00  0.00    -0.062 C  
HETATM   24  N   UNL     1     -11.127  16.961  64.510  1.00  0.00    -1.071 NA 
ENDBRANCH  15  16
ENDBRANCH  13  15
ENDBRANCH  10  13
TORSDOF 3
ENDMDL
MODEL       22
REMARK 921   NORMALIZED FREE ENERGY PREDICTED BY IDOCK:   -6.33 KCAL/MOL
REMARK 922        TOTAL FREE ENERGY PREDICTED BY IDOCK:   -8.08 KCAL/MOL
REMARK 923 INTER-LIGAND FREE ENERGY PREDICTED BY IDOCK:   -7.59 KCAL/MOL
REMARK 924 INTRA-LIGAND FREE ENERGY PREDICTED BY IDOCK:   -0.49 KCAL/MOL
REMARK 927      BINDING AFFINITY PREDICTED BY RF-SCORE:    0.00 PKD
ROOT
HETATM    1  O   UNL     1     -12.376  14.036  62.969  1.00  0.00    -1.101 OA 
HETATM    2  C   UNL     1     -11.821  13.863  64.265  1.00  0.00    -0.412 C  
HETATM    3  H   UNL     1     -13.228  14.450  63.035  1.00  0.00     0.000 HD 
HETATM    4  C   UNL     1     -10.441  13.193  64.157  1.00  0.00    -0.348 C  
HETATM    5  C   UNL     1      -9.840  12.996  65.558  1.00  0.00    -0.150 C  
HETATM    6  C   UNL     1     -10.789  12.135  66.405  1.00  0.00    -0.306 C  
HETATM    7  C   UNL     1     -12.159  12.822  66.525  1.00  0.00    -0.338 C  
HETATM    8  C   UNL     1     -11.981  14.207  67.180  1.00  0.00    -0.460 C  
HETATM    9  C   UNL     1     -12.754  12.996  65.122  1.00  0.00    -0.461 C  
HETATM   10  C   UNL     1     -11.031  15.103  66.333  1.00  0.00    -0.329 C  
HETATM   11  C   UNL     1     -11.659  15.243  64.924  1.00  0.00    -0.289 C  
HETATM   12  C   UNL     1      -9.668  14.371  66.226  1.00  0.00    -0.330 C  
ENDROOT
BRANCH  10  13
HETATM   13  N   UNL     1     -10.908  16.403  67.024  1.00  0.00    -0.214 NA 
HETATM   14  H   UNL     1     -10.538  16.271  67.966  1.00  0.00     0.000 HD 
BRANCH  13  15
HETATM   15  C   UNL     1     -10.113  17.410  66.295  1.00  0.00    -0.322 C  
BRANCH  15  16
HETATM   16  C   UNL     1      -9.862  18.649  67.158  1.00  0.00    -0.314 C  
HETATM   17  O   UNL     1     -10.635  19.608  67.102  1.00  0.00    -0.458 OA 
HETATM   18  N   UNL     1      -8.782  18.646  68.018  1.00  0.00    -0.295 N  
HETATM   19  C   UNL     1      -8.535  19.749  68.922  1.00  0.00    -0.105 C  
HETATM   20  C   UNL     1      -7.025  19.794  69.021  1.00  0.00    -0.372 C  
HETATM   21  C   UNL     1      -6.604  18.329  68.916  1.00  0.00    -0.251 C  
HETATM   22  C   UNL     1      -7.731  17.629  68.132  1.00  0.00    -0.244 C  
HETATM   23  C   UNL     1      -8.189  16.421  68.852  1.00  0.00    -0.235 C  
HETATM   24  N   UNL     1      -8.549  15.484  69.439  1.00  0.00    -0.261 NA 
ENDBRANCH  15  16
ENDBRANCH  13  15
ENDBRANCH  10  13
TORSDOF 3
ENDMDL
MODEL       23
REMARK 921   NORMALIZED FREE ENERGY PREDICTED BY IDOCK:   -6.30 KCAL/MOL
REMARK 922        TOTAL FREE ENERGY PREDICTED BY IDOCK:   -8.04 KCAL/MOL
REMARK 923 INTER-LIGAND FREE ENERGY PREDICTED BY IDOCK:   -7.58 KCAL/MOL
REMARK 924 INTRA-LIGAND FREE ENERGY PREDICTED BY IDOCK:   -0.47 KCAL/MOL
REMARK 927      BINDING AFFINITY PREDICTED BY RF-SCORE:    0.00 PKD
ROOT
HETATM    1  O   UNL     1      -8.658  15.274  66.083  1.00  0.00    -0.433 OA 
HETATM    2  C   UNL     1      -9.842  14.494  66.169  1.00  0.00    -0.318 C  
HETATM    3  H   UNL     1      -8.276  15.377  66.946  1.00  0.00     0.000 HD 
HETATM    4  C   UNL     1     -10.460  14.327  64.771  1.00  0.00    -0.421 C  
HETATM    5  C   UNL     1     -11.746  13.491  64.860  1.00  0.00    -0.381 C  
HETATM    6  C   UNL     1     -12.740  14.181  65.806  1.00  0.00    -0.443 C  
HETATM    7  C   UNL     1     -12.122  14.325  67.207  1.00  0.00    -0.390 C  
HETATM    8  C   UNL     1     -11.760  12.928  67.752  1.00  0.00    -0.412 C  
HETATM    9  C   UNL     1     -10.849  15.176  67.105  1.00  0.00    -0.320 C  
HETATM   10  C   UNL     1     -10.744  12.212  66.815  1.00  0.00    -0.234 C  
HETATM   11  C   UNL     1      -9.483  13.107  66.729  1.00  0.00    -0.252 C  
HETATM   12  C   UNL     1     -11.399  12.098  65.413  1.00  0.00    -0.388 C  
ENDROOT
BRANCH  10  13
HETATM   13  N   UNL     1     -10.453  10.887  67.400  1.00  0.00    -0.210 NA 
HETATM   14  H   UNL     1      -9.480  10.837  67.700  1.00  0.00     0.000 HD 
BRANCH  13  15
HETATM   15  C   UNL     1     -11.353  10.495  68.502  1.00  0.00    -0.257 C  
BRANCH  15  16
HETATM   16  C   UNL     1     -10.595   9.727  69.589  1.00  0.00    -0.239 C  
HETATM   17  O   UNL     1      -9.426   9.383  69.401  1.00  0.00    -0.159 OA 
HETATM   18  N   UNL     1     -11.237   9.471  70.784  1.00  0.00    -0.289 N  
HETATM   19  C   UNL     1     -10.552   8.825  71.884  1.00  0.00    -0.354 C  
HETATM   20  C   UNL     1     -11.646   8.026  72.560  1.00  0.00    -0.464 C  
HETATM   21  C   UNL     1     -12.896   8.886  72.383  1.00  0.00    -0.446 C  
HETATM   22  C   UNL     1     -12.640   9.734  71.121  1.00  0.00    -0.345 C  
HETATM   23  C   UNL     1     -12.896  11.164  71.398  1.00  0.00    -0.439 C  
HETATM   24  N   UNL     1     -13.086  12.286  71.637  1.00  0.00    -0.380 NA 
ENDBRANCH  15  16
ENDBRANCH  13  15
ENDBRANCH  10  13
TORSDOF 3
ENDMDL
MODEL       24
REMARK 921   NORMALIZED FREE ENERGY PREDICTED BY IDOCK:   -6.25 KCAL/MOL
REMARK 922        TOTAL FREE ENERGY PREDICTED BY IDOCK:   -7.99 KCAL/MOL
REMARK 923 INTER-LIGAND FREE ENERGY PREDICTED BY IDOCK:   -7.45 KCAL/MOL
REMARK 924 INTRA-LIGAND FREE ENERGY PREDICTED BY IDOCK:   -0.55 KCAL/MOL
REMARK 927      BINDING AFFINITY PREDICTED BY RF-SCORE:    0.00 PKD
ROOT
HETATM    1  O   UNL     1      -9.012  15.130  65.707  1.00  0.00    -0.428 OA 
HETATM    2  C   UNL     1     -10.122  14.276  65.467  1.00  0.00    -0.345 C  
HETATM    3  H   UNL     1      -9.254  15.809  66.325  1.00  0.00     0.000 HD 
HETATM    4  C   UNL     1      -9.728  13.177  64.466  1.00  0.00     0.191 C  
HETATM    5  C   UNL     1     -10.928  12.256  64.197  1.00  0.00    -0.415 C  
HETATM    6  C   UNL     1     -12.098  13.087  63.648  1.00  0.00    -0.604 C  
HETATM    7  C   UNL     1     -12.498  14.169  64.663  1.00  0.00    -0.375 C  
HETATM    8  C   UNL     1     -12.907  13.499  65.990  1.00  0.00    -0.169 C  
HETATM    9  C   UNL     1     -11.297  15.092  64.908  1.00  0.00    -0.419 C  
HETATM   10  C   UNL     1     -11.734  12.659  66.574  1.00  0.00    -0.400 C  
HETATM   11  C   UNL     1     -10.540  13.621  66.794  1.00  0.00    -0.273 C  
HETATM   12  C   UNL     1     -11.353  11.589  65.517  1.00  0.00    -0.151 C  
ENDROOT
BRANCH  10  13
HETATM   13  N   UNL     1     -12.203  12.049  67.834  1.00  0.00    -0.370 NA 
HETATM   14  H   UNL     1     -12.503  11.087  67.674  1.00  0.00     0.000 HD 
BRANCH  13  15
HETATM   15  C   UNL     1     -11.228  12.107  68.941  1.00  0.00    -0.269 C  
BRANCH  15  16
HETATM   16  C   UNL     1     -11.928  12.032  70.301  1.00  0.00    -0.314 C  
HETATM   17  O   UNL     1     -11.993  10.958  70.903  1.00  0.00    -0.328 OA 
HETATM   18  N   UNL     1     -12.442  13.192  70.843  1.00  0.00    -0.359 N  
HETATM   19  C   UNL     1     -13.040  13.208  72.161  1.00  0.00    -0.378 C  
HETATM   20  C   UNL     1     -14.122  14.261  72.044  1.00  0.00    -0.618 C  
HETATM   21  C   UNL     1     -13.534  15.290  71.080  1.00  0.00    -0.559 C  
HETATM   22  C   UNL     1     -12.521  14.515  70.214  1.00  0.00    -0.348 C  
HETATM   23  C   UNL     1     -11.217  15.212  70.195  1.00  0.00    -0.273 C  
HETATM   24  N   UNL     1     -10.194  15.763  70.205  1.00  0.00    -0.243 NA 
ENDBRANCH  15  16
ENDBRANCH  13  15
ENDBRANCH  10  13
TORSDOF 3
ENDMDL
MODEL       25
REMARK 921   NORMALIZED FREE ENERGY PREDICTED BY IDOCK:   -6.25 KCAL/MOL
REMARK 922        TOTAL FREE ENERGY PREDICTED BY IDOCK:   -7.99 KCAL/MOL
REMARK 923 INTER-LIGAND FREE ENERGY PREDICTED BY IDOCK:   -7.61 KCAL/MOL
REMARK 924 INTRA-LIGAND FREE ENERGY PREDICTED BY IDOCK:   -0.39 KCAL/MOL
REMARK 927      BINDING AFFINITY PREDICTED BY RF-SCORE:    0.00 PKD
ROOT
HETATM    1  O   UNL     1     -12.215  14.079  63.289  1.00  0.00    -1.071 OA 
HETATM    2  C   UNL     1     -11.667  13.833  64.577  1.00  0.00    -0.407 C  
HETATM    3  H   UNL     1     -11.573  13.874  62.621  1.00  0.00     0.000 HD 
HETATM    4  C   UNL     1     -12.708  14.165  65.660  1.00  0.00    -0.469 C  
HETATM    5  C   UNL     1     -12.116  13.909  67.054  1.00  0.00    -0.451 C  
HETATM    6  C   UNL     1     -10.856  14.768  67.241  1.00  0.00    -0.309 C  
HETATM    7  C   UNL     1      -9.814  14.416  66.168  1.00  0.00    -0.340 C  
HETATM    8  C   UNL     1      -9.451  12.921  66.278  1.00  0.00    -0.205 C  
HETATM    9  C   UNL     1     -10.411  14.693  64.782  1.00  0.00    -0.343 C  
HETATM   10  C   UNL     1     -10.710  12.028  66.081  1.00  0.00    -0.275 C  
HETATM   11  C   UNL     1     -11.289  12.346  64.680  1.00  0.00    -0.364 C  
HETATM   12  C   UNL     1     -11.739  12.422  67.173  1.00  0.00    -0.415 C  
ENDROOT
BRANCH  10  13
HETATM   13  N   UNL     1     -10.283  10.619  66.205  1.00  0.00    -0.240 NA 
HETATM   14  H   UNL     1      -9.404  10.469  65.710  1.00  0.00     0.000 HD 
BRANCH  13  15
HETATM   15  C   UNL     1     -10.180  10.132  67.595  1.00  0.00    -0.203 C  
BRANCH  15  16
HETATM   16  C   UNL     1     -10.394   8.618  67.669  1.00  0.00    -0.254 C  
HETATM   17  O   UNL     1     -10.482   7.955  66.633  1.00  0.00    -0.296 OA 
HETATM   18  N   UNL     1     -10.446   8.020  68.911  1.00  0.00    -0.213 N  
HETATM   19  C   UNL     1     -10.562   6.583  69.052  1.00  0.00    -0.245 C  
HETATM   20  C   UNL     1     -11.375   6.417  70.318  1.00  0.00    -0.468 C  
HETATM   21  C   UNL     1     -10.935   7.587  71.197  1.00  0.00    -0.264 C  
HETATM   22  C   UNL     1     -10.448   8.677  70.222  1.00  0.00    -0.210 C  
HETATM   23  C   UNL     1      -9.107   9.161  70.615  1.00  0.00    -0.257 C  
HETATM   24  N   UNL     1      -8.046   9.518  70.927  1.00  0.00    -0.307 NA 
ENDBRANCH  15  16
ENDBRANCH  13  15
ENDBRANCH  10  13
TORSDOF 3
ENDMDL
MODEL       26
REMARK 921   NORMALIZED FREE ENERGY PREDICTED BY IDOCK:   -6.17 KCAL/MOL
REMARK 922        TOTAL FREE ENERGY PREDICTED BY IDOCK:   -7.90 KCAL/MOL
REMARK 923 INTER-LIGAND FREE ENERGY PREDICTED BY IDOCK:   -7.44 KCAL/MOL
REMARK 924 INTRA-LIGAND FREE ENERGY PREDICTED BY IDOCK:   -0.46 KCAL/MOL
REMARK 927      BINDING AFFINITY PREDICTED BY RF-SCORE:    0.00 PKD
ROOT
HETATM    1  O   UNL     1      -8.344   7.138  72.901  1.00  0.00    -0.105 OA 
HETATM    2  C   UNL     1      -9.516   7.482  72.175  1.00  0.00    -0.147 C  
HETATM    3  H   UNL     1      -7.603   7.079  72.309  1.00  0.00     0.000 HD 
HETATM    4  C   UNL     1     -10.715   7.576  73.133  1.00  0.00    -0.452 C  
HETATM    5  C   UNL     1     -11.986   7.940  72.350  1.00  0.00    -0.373 C  
HETATM    6  C   UNL     1     -12.245   6.877  71.272  1.00  0.00    -0.427 C  
HETATM    7  C   UNL     1     -11.051   6.804  70.306  1.00  0.00    -0.360 C  
HETATM    8  C   UNL     1     -10.841   8.182  69.646  1.00  0.00    -0.162 C  
HETATM    9  C   UNL     1      -9.792   6.423  71.098  1.00  0.00    -0.198 C  
HETATM   10  C   UNL     1     -10.566   9.276  70.719  1.00  0.00    -0.285 C  
HETATM   11  C   UNL     1      -9.300   8.848  71.502  1.00  0.00    -0.335 C  
HETATM   12  C   UNL     1     -11.786   9.309  71.678  1.00  0.00    -0.462 C  
ENDROOT
BRANCH  10  13
HETATM   13  N   UNL     1     -10.382  10.560  70.013  1.00  0.00    -0.439 NA 
HETATM   14  H   UNL     1      -9.987  10.402  69.086  1.00  0.00     0.000 HD 
BRANCH  13  15
HETATM   15  C   UNL     1     -11.603  11.385  69.918  1.00  0.00    -0.323 C  
BRANCH  15  16
HETATM   16  C   UNL     1     -11.765  11.974  68.514  1.00  0.00    -0.332 C  
HETATM   17  O   UNL     1     -11.943  11.229  67.548  1.00  0.00    -0.612 OA 
HETATM   18  N   UNL     1     -11.746  13.346  68.369  1.00  0.00    -0.334 N  
HETATM   19  C   UNL     1     -11.978  13.972  67.084  1.00  0.00    -0.430 C  
HETATM   20  C   UNL     1     -11.116  15.215  67.137  1.00  0.00    -0.335 C  
HETATM   21  C   UNL     1     -11.167  15.640  68.603  1.00  0.00    -0.338 C  
HETATM   22  C   UNL     1     -11.458  14.351  69.398  1.00  0.00    -0.288 C  
HETATM   23  C   UNL     1     -12.594  14.558  70.322  1.00  0.00    -0.323 C  
HETATM   24  N   UNL     1     -13.499  14.732  71.030  1.00  0.00    -0.377 NA 
ENDBRANCH  15  16
ENDBRANCH  13  15
ENDBRANCH  10  13
TORSDOF 3
ENDMDL
MODEL       27
REMARK 921   NORMALIZED FREE ENERGY PREDICTED BY IDOCK:   -6.13 KCAL/MOL
REMARK 922        TOTAL FREE ENERGY PREDICTED BY IDOCK:   -7.85 KCAL/MOL
REMARK 923 INTER-LIGAND FREE ENERGY PREDICTED BY IDOCK:   -7.36 KCAL/MOL
REMARK 924 INTRA-LIGAND FREE ENERGY PREDICTED BY IDOCK:   -0.49 KCAL/MOL
REMARK 927      BINDING AFFINITY PREDICTED BY RF-SCORE:    0.00 PKD
ROOT
HETATM    1  O   UNL     1     -10.634  20.060  69.603  1.00  0.00    -0.506 OA 
HETATM    2  C   UNL     1     -10.054  19.223  68.613  1.00  0.00    -0.419 C  
HETATM    3  H   UNL     1     -11.577  20.085  69.493  1.00  0.00     0.000 HD 
HETATM    4  C   UNL     1      -8.527  19.183  68.793  1.00  0.00    -0.376 C  
HETATM    5  C   UNL     1      -7.894  18.285  67.719  1.00  0.00    -0.245 C  
HETATM    6  C   UNL     1      -8.255  18.823  66.326  1.00  0.00    -0.270 C  
HETATM    7  C   UNL     1      -9.782  18.840  66.146  1.00  0.00    -0.280 C  
HETATM    8  C   UNL     1     -10.333  17.409  66.317  1.00  0.00    -0.330 C  
HETATM    9  C   UNL     1     -10.399  19.753  67.214  1.00  0.00    -0.581 C  
HETATM   10  C   UNL     1      -9.989  16.846  67.727  1.00  0.00    -0.278 C  
HETATM   11  C   UNL     1     -10.617  17.801  68.773  1.00  0.00    -0.135 C  
HETATM   12  C   UNL     1      -8.445  16.857  67.872  1.00  0.00    -0.203 C  
ENDROOT
BRANCH  10  13
HETATM   13  N   UNL     1     -10.543  15.480  67.810  1.00  0.00    -0.274 NA 
HETATM   14  H   UNL     1      -9.834  14.828  68.147  1.00  0.00     0.000 HD 
BRANCH  13  15
HETATM   15  C   UNL     1     -11.772  15.367  68.621  1.00  0.00    -0.354 C  
BRANCH  15  16
HETATM   16  C   UNL     1     -11.850  14.008  69.323  1.00  0.00    -0.344 C  
HETATM   17  O   UNL     1     -11.305  13.022  68.822  1.00  0.00    -0.252 OA 
HETATM   18  N   UNL     1     -12.506  13.930  70.534  1.00  0.00    -0.351 N  
HETATM   19  C   UNL     1     -12.545  12.696  71.291  1.00  0.00    -0.240 C  
HETATM   20  C   UNL     1     -13.891  12.748  71.981  1.00  0.00    -0.203 C  
HETATM   21  C   UNL     1     -14.103  14.234  72.269  1.00  0.00    -0.621 C  
HETATM   22  C   UNL     1     -13.273  14.983  71.207  1.00  0.00    -0.432 C  
HETATM   23  C   UNL     1     -12.405  15.994  71.849  1.00  0.00    -0.450 C  
HETATM   24  N   UNL     1     -11.716  16.771  72.371  1.00  0.00    -0.215 NA 
ENDBRANCH  15  16
ENDBRANCH  13  15
ENDBRANCH  10  13
TORSDOF 3
ENDMDL
MODEL       28
REMARK 921   NORMALIZED FREE ENERGY PREDICTED BY IDOCK:   -6.10 KCAL/MOL
REMARK 922        TOTAL FREE ENERGY PREDICTED BY IDOCK:   -7.81 KCAL/MOL
REMARK 923 INTER-LIGAND FREE ENERGY PREDICTED BY IDOCK:   -7.21 KCAL/MOL
REMARK 924 INTRA-LIGAND FREE ENERGY PREDICTED BY IDOCK:   -0.61 KCAL/MOL
REMARK 927      BINDING AFFINITY PREDICTED BY RF-SCORE:    0.00 PKD
ROOT
HETATM    1  O   UNL     1      -9.552   8.932  65.329  1.00  0.00    -0.454 OA 
HETATM    2  C   UNL     1      -9.721  10.130  66.074  1.00  0.00    -0.226 C  
HETATM    3  H   UNL     1     -10.304   8.794  64.765  1.00  0.00     0.000 HD 
HETATM    4  C   UNL     1      -8.504  10.353  66.987  1.00  0.00    -0.127 C  
HETATM    5  C   UNL     1      -8.687  11.643  67.801  1.00  0.00    -0.152 C  
HETATM    6  C   UNL     1      -9.971  11.543  68.637  1.00  0.00    -0.207 C  
HETATM    7  C   UNL     1     -11.185  11.341  67.716  1.00  0.00    -0.354 C  
HETATM    8  C   UNL     1     -11.287  12.528  66.736  1.00  0.00    -0.390 C  
HETATM    9  C   UNL     1     -10.998  10.041  66.922  1.00  0.00    -0.070 C  
HETATM   10  C   UNL     1     -10.000  12.644  65.869  1.00  0.00    -0.264 C  
HETATM   11  C   UNL     1      -9.840  11.311  65.096  1.00  0.00    -0.298 C  
HETATM   12  C   UNL     1      -8.800  12.834  66.834  1.00  0.00    -0.194 C  
ENDROOT
BRANCH  10  13
HETATM   13  N   UNL     1     -10.171  13.799  64.965  1.00  0.00    -0.515 NA 
HETATM   14  H   UNL     1     -10.078  13.507  63.992  1.00  0.00     0.000 HD 
BRANCH  13  15
HETATM   15  C   UNL     1     -11.430  14.545  65.159  1.00  0.00    -0.368 C  
BRANCH  15  16
HETATM   16  C   UNL     1     -11.222  16.048  64.953  1.00  0.00    -0.312 C  
HETATM   17  O   UNL     1     -11.590  16.585  63.906  1.00  0.00    -1.175 OA 
HETATM   18  N   UNL     1     -10.653  16.780  65.975  1.00  0.00    -0.275 N  
HETATM   19  C   UNL     1     -10.505  18.218  65.881  1.00  0.00    -0.307 C  
HETATM   20  C   UNL     1      -9.233  18.492  66.654  1.00  0.00    -0.306 C  
HETATM   21  C   UNL     1      -9.245  17.449  67.770  1.00  0.00    -0.248 C  
HETATM   22  C   UNL     1     -10.087  16.276  67.231  1.00  0.00    -0.264 C  
HETATM   23  C   UNL     1     -11.129  15.895  68.209  1.00  0.00    -0.345 C  
HETATM   24  N   UNL     1     -11.953  15.620  68.981  1.00  0.00    -0.356 NA 
ENDBRANCH  15  16
ENDBRANCH  13  15
ENDBRANCH  10  13
TORSDOF 3
ENDMDL
MODEL       29
REMARK 921   NORMALIZED FREE ENERGY PREDICTED BY IDOCK:   -6.07 KCAL/MOL
REMARK 922        TOTAL FREE ENERGY PREDICTED BY IDOCK:   -7.78 KCAL/MOL
REMARK 923 INTER-LIGAND FREE ENERGY PREDICTED BY IDOCK:   -7.26 KCAL/MOL
REMARK 924 INTRA-LIGAND FREE ENERGY PREDICTED BY IDOCK:   -0.52 KCAL/MOL
REMARK 927      BINDING AFFINITY PREDICTED BY RF-SCORE:    0.00 PKD
ROOT
HETATM    1  O   UNL     1      -6.355  18.931  66.814  1.00  0.00    -0.184 OA 
HETATM    2  C   UNL     1      -7.759  18.858  67.019  1.00  0.00    -0.230 C  
HETATM    3  H   UNL     1      -5.919  18.256  67.320  1.00  0.00     0.000 HD 
HETATM    4  C   UNL     1      -8.464  19.951  66.199  1.00  0.00    -0.350 C  
HETATM    5  C   UNL     1      -9.982  19.881  66.424  1.00  0.00    -0.593 C  
HETATM    6  C   UNL     1     -10.286  20.054  67.920  1.00  0.00    -0.545 C  
HETATM    7  C   UNL     1      -9.595  18.946  68.731  1.00  0.00    -0.433 C  
HETATM    8  C   UNL     1     -10.098  17.570  68.248  1.00  0.00    -0.346 C  
HETATM    9  C   UNL     1      -8.079  19.039  68.510  1.00  0.00    -0.385 C  
HETATM   10  C   UNL     1      -9.791  17.365  66.736  1.00  0.00    -0.296 C  
HETATM   11  C   UNL     1      -8.257  17.480  66.554  1.00  0.00    -0.311 C  
HETATM   12  C   UNL     1     -10.495  18.508  65.957  1.00  0.00    -0.433 C  
ENDROOT
BRANCH  10  13
HETATM   13  N   UNL     1     -10.305  16.035  66.352  1.00  0.00    -0.296 NA 
HETATM   14  H   UNL     1      -9.533  15.405  66.134  1.00  0.00     0.000 HD 
BRANCH  13  15
HETATM   15  C   UNL     1     -11.208  15.419  67.343  1.00  0.00    -0.287 C  
BRANCH  15  16
HETATM   16  C   UNL     1     -11.715  14.057  66.860  1.00  0.00    -0.410 C  
HETATM   17  O   UNL     1     -12.632  13.996  66.039  1.00  0.00    -0.481 OA 
HETATM   18  N   UNL     1     -11.097  12.918  67.335  1.00  0.00    -0.263 N  
HETATM   19  C   UNL     1     -11.470  11.603  66.856  1.00  0.00    -0.247 C  
HETATM   20  C   UNL     1     -11.260  10.715  68.064  1.00  0.00    -0.373 C  
HETATM   21  C   UNL     1     -10.061  11.337  68.777  1.00  0.00    -0.204 C  
HETATM   22  C   UNL     1     -10.065  12.825  68.372  1.00  0.00    -0.226 C  
HETATM   23  C   UNL     1      -8.730  13.230  67.880  1.00  0.00    -0.192 C  
HETATM   24  N   UNL     1      -7.680  13.528  67.480  1.00  0.00    -0.173 NA 
ENDBRANCH  15  16
ENDBRANCH  13  15
ENDBRANCH  10  13
TORSDOF 3
ENDMDL
MODEL       30
REMARK 921   NORMALIZED FREE ENERGY PREDICTED BY IDOCK:   -6.05 KCAL/MOL
REMARK 922        TOTAL FREE ENERGY PREDICTED BY IDOCK:   -7.75 KCAL/MOL
REMARK 923 INTER-LIGAND FREE ENERGY PREDICTED BY IDOCK:   -7.24 KCAL/MOL
REMARK 924 INTRA-LIGAND FREE ENERGY PREDICTED BY IDOCK:   -0.51 KCAL/MOL
REMARK 927      BINDING AFFINITY PREDICTED BY RF-SCORE:    0.00 PKD
ROOT
HETATM    1  O   UNL     1      -6.575  18.752  67.012  1.00  0.00    -0.193 OA 
HETATM    2  C   UNL     1      -7.991  18.732  67.119  1.00  0.00    -0.245 C  
HETATM    3  H   UNL     1      -6.205  18.020  67.490  1.00  0.00     0.000 HD 
HETATM    4  C   UNL     1      -8.591  19.917  66.343  1.00  0.00    -0.386 C  
HETATM    5  C   UNL     1     -10.122  19.904  66.464  1.00  0.00    -0.607 C  
HETATM    6  C   UNL     1     -10.520  19.977  67.945  1.00  0.00    -0.459 C  
HETATM    7  C   UNL     1      -9.935  18.778  68.708  1.00  0.00    -0.442 C  
HETATM    8  C   UNL     1     -10.463  17.469  68.086  1.00  0.00    -0.386 C  
HETATM    9  C   UNL     1      -8.405  18.813  68.595  1.00  0.00    -0.360 C  
HETATM   10  C   UNL     1     -10.063  17.366  66.586  1.00  0.00    -0.317 C  
HETATM   11  C   UNL     1      -8.517  17.419  66.514  1.00  0.00    -0.298 C  
HETATM   12  C   UNL     1     -10.661  18.598  65.856  1.00  0.00    -0.365 C  
ENDROOT
BRANCH  10  13
HETATM   13  N   UNL     1     -10.606  16.096  66.064  1.00  0.00    -0.315 NA 
HETATM   14  H   UNL     1      -9.926  15.642  65.454  1.00  0.00     0.000 HD 
BRANCH  13  15
HETATM   15  C   UNL     1     -11.071  15.157  67.104  1.00  0.00    -0.335 C  
BRANCH  15  16
HETATM   16  C   UNL     1     -10.197  13.900  67.146  1.00  0.00    -0.258 C  
HETATM   17  O   UNL     1      -9.131  13.868  66.528  1.00  0.00    -0.231 OA 
HETATM   18  N   UNL     1     -10.614  12.834  67.917  1.00  0.00    -0.216 N  
HETATM   19  C   UNL     1      -9.796  11.649  68.069  1.00  0.00    -0.190 C  
HETATM   20  C   UNL     1     -10.812  10.535  68.204  1.00  0.00    -0.300 C  
HETATM   21  C   UNL     1     -11.976  11.183  68.951  1.00  0.00    -0.367 C  
HETATM   22  C   UNL     1     -11.887  12.688  68.630  1.00  0.00    -0.302 C  
HETATM   23  C   UNL     1     -11.934  13.486  69.874  1.00  0.00    -0.348 C  
HETATM   24  N   UNL     1     -11.955  14.097  70.863  1.00  0.00    -0.323 NA 
ENDBRANCH  15  16
ENDBRANCH  13  15
ENDBRANCH  10  13
TORSDOF 3
ENDMDL
MODEL       31
REMARK 921   NORMALIZED FREE ENERGY PREDICTED BY IDOCK:   -6.04 KCAL/MOL
REMARK 922        TOTAL FREE ENERGY PREDICTED BY IDOCK:   -7.75 KCAL/MOL
REMARK 923 INTER-LIGAND FREE ENERGY PREDICTED BY IDOCK:   -7.34 KCAL/MOL
REMARK 924 INTRA-LIGAND FREE ENERGY PREDICTED BY IDOCK:   -0.41 KCAL/MOL
REMARK 927      BINDING AFFINITY PREDICTED BY RF-SCORE:    0.00 PKD
ROOT
HETATM    1  O   UNL     1     -11.188   5.826  69.248  1.00  0.00    -0.300 OA 
HETATM    2  C   UNL     1     -11.069   6.836  70.240  1.00  0.00    -0.310 C  
HETATM    3  H   UNL     1     -11.939   6.003  68.695  1.00  0.00     0.000 HD 
HETATM    4  C   UNL     1      -9.851   6.549  71.134  1.00  0.00    -0.198 C  
HETATM    5  C   UNL     1      -9.725   7.635  72.214  1.00  0.00    -0.226 C  
HETATM    6  C   UNL     1     -11.010   7.673  73.055  1.00  0.00    -0.457 C  
HETATM    7  C   UNL     1     -12.218   7.981  72.157  1.00  0.00    -0.377 C  
HETATM    8  C   UNL     1     -12.005   9.341  71.460  1.00  0.00    -0.439 C  
HETATM    9  C   UNL     1     -12.344   6.880  71.094  1.00  0.00    -0.419 C  
HETATM   10  C   UNL     1     -10.713   9.324  70.592  1.00  0.00    -0.269 C  
HETATM   11  C   UNL     1     -10.874   8.194  69.545  1.00  0.00    -0.128 C  
HETATM   12  C   UNL     1      -9.522   8.998  71.531  1.00  0.00    -0.316 C  
ENDROOT
BRANCH  10  13
HETATM   13  N   UNL     1     -10.577  10.654  69.966  1.00  0.00    -0.463 NA 
HETATM   14  H   UNL     1      -9.593  10.883  69.827  1.00  0.00     0.000 HD 
BRANCH  13  15
HETATM   15  C   UNL     1     -11.325  10.815  68.704  1.00  0.00    -0.291 C  
BRANCH  15  16
HETATM   16  C   UNL     1     -11.634  12.290  68.427  1.00  0.00    -0.326 C  
HETATM   17  O   UNL     1     -11.786  13.076  69.364  1.00  0.00    -0.306 OA 
HETATM   18  N   UNL     1     -11.697  12.714  67.115  1.00  0.00    -0.366 N  
HETATM   19  C   UNL     1     -11.901  14.108  66.783  1.00  0.00    -0.425 C  
HETATM   20  C   UNL     1     -12.696  14.052  65.496  1.00  0.00    -0.517 C  
HETATM   21  C   UNL     1     -12.163  12.809  64.786  1.00  0.00    -0.517 C  
HETATM   22  C   UNL     1     -11.629  11.891  65.903  1.00  0.00    -0.224 C  
HETATM   23  C   UNL     1     -10.252  11.449  65.596  1.00  0.00    -0.251 C  
HETATM   24  N   UNL     1      -9.163  11.125  65.348  1.00  0.00    -0.213 NA 
ENDBRANCH  15  16
ENDBRANCH  13  15
ENDBRANCH  10  13
TORSDOF 3
ENDMDL
MODEL       32
REMARK 921   NORMALIZED FREE ENERGY PREDICTED BY IDOCK:   -6.01 KCAL/MOL
REMARK 922        TOTAL FREE ENERGY PREDICTED BY IDOCK:   -7.70 KCAL/MOL
REMARK 923 INTER-LIGAND FREE ENERGY PREDICTED BY IDOCK:   -7.18 KCAL/MOL
REMARK 924 INTRA-LIGAND FREE ENERGY PREDICTED BY IDOCK:   -0.52 KCAL/MOL
REMARK 927      BINDING AFFINITY PREDICTED BY RF-SCORE:    0.00 PKD
ROOT
HETATM    1  O   UNL     1     -12.704  12.665  63.104  1.00  0.00    -0.665 OA 
HETATM    2  C   UNL     1     -11.983  13.043  64.268  1.00  0.00    -0.402 C  
HETATM    3  H   UNL     1     -12.574  11.740  62.931  1.00  0.00     0.000 HD 
HETATM    4  C   UNL     1     -12.193  14.541  64.549  1.00  0.00    -0.483 C  
HETATM    5  C   UNL     1     -11.408  14.956  65.803  1.00  0.00    -0.314 C  
HETATM    6  C   UNL     1      -9.917  14.655  65.596  1.00  0.00    -0.381 C  
HETATM    7  C   UNL     1      -9.713  13.153  65.338  1.00  0.00    -0.028 C  
HETATM    8  C   UNL     1     -10.251  12.350  66.539  1.00  0.00    -0.244 C  
HETATM    9  C   UNL     1     -10.488  12.756  64.073  1.00  0.00    -0.433 C  
HETATM   10  C   UNL     1     -11.765  12.630  66.763  1.00  0.00    -0.392 C  
HETATM   11  C   UNL     1     -12.507  12.230  65.464  1.00  0.00     0.089 C  
HETATM   12  C   UNL     1     -11.928  14.153  67.008  1.00  0.00    -0.471 C  
ENDROOT
BRANCH  10  13
HETATM   13  N   UNL     1     -12.201  11.833  67.927  1.00  0.00    -0.437 NA 
HETATM   14  H   UNL     1     -12.108  10.836  67.730  1.00  0.00     0.000 HD 
BRANCH  13  15
HETATM   15  C   UNL     1     -11.519  12.173  69.191  1.00  0.00    -0.296 C  
BRANCH  15  16
HETATM   16  C   UNL     1     -11.976  11.259  70.331  1.00  0.00    -0.380 C  
HETATM   17  O   UNL     1     -12.989  11.536  70.976  1.00  0.00    -0.290 OA 
HETATM   18  N   UNL     1     -11.252  10.112  70.586  1.00  0.00    -0.325 N  
HETATM   19  C   UNL     1     -11.676   9.161  71.592  1.00  0.00    -0.378 C  
HETATM   20  C   UNL     1     -10.372   8.608  72.126  1.00  0.00    -0.403 C  
HETATM   21  C   UNL     1      -9.448   8.597  70.909  1.00  0.00    -0.242 C  
HETATM   22  C   UNL     1      -9.987   9.696  69.972  1.00  0.00    -0.247 C  
HETATM   23  C   UNL     1     -10.169   9.165  68.604  1.00  0.00    -0.204 C  
HETATM   24  N   UNL     1     -10.323   8.727  67.538  1.00  0.00    -0.252 NA 
ENDBRANCH  15  16
ENDBRANCH  13  15
ENDBRANCH  10  13
TORSDOF 3
ENDMDL
MODEL       33
REMARK 921   NORMALIZED FREE ENERGY PREDICTED BY IDOCK:   -6.00 KCAL/MOL
REMARK 922        TOTAL FREE ENERGY PREDICTED BY IDOCK:   -7.70 KCAL/MOL
REMARK 923 INTER-LIGAND FREE ENERGY PREDICTED BY IDOCK:   -7.27 KCAL/MOL
REMARK 924 INTRA-LIGAND FREE ENERGY PREDICTED BY IDOCK:   -0.43 KCAL/MOL
REMARK 927      BINDING AFFINITY PREDICTED BY RF-SCORE:    0.00 PKD
ROOT
HETATM    1  O   UNL     1     -10.167  19.637  69.937  1.00  0.00    -0.487 OA 
HETATM    2  C   UNL     1      -9.777  19.246  68.629  1.00  0.00    -0.429 C  
HETATM    3  H   UNL     1     -11.109  19.751  69.973  1.00  0.00     0.000 HD 
HETATM    4  C   UNL     1      -8.251  19.060  68.572  1.00  0.00    -0.390 C  
HETATM    5  C   UNL     1      -7.824  18.645  67.156  1.00  0.00    -0.241 C  
HETATM    6  C   UNL     1      -8.270  19.719  66.152  1.00  0.00    -0.363 C  
HETATM    7  C   UNL     1      -9.797  19.883  66.199  1.00  0.00    -0.562 C  
HETATM    8  C   UNL     1     -10.468  18.535  65.861  1.00  0.00    -0.379 C  
HETATM    9  C   UNL     1     -10.208  20.314  67.614  1.00  0.00    -0.469 C  
HETATM   10  C   UNL     1     -10.039  17.433  66.872  1.00  0.00    -0.314 C  
HETATM   11  C   UNL     1     -10.458  17.911  68.285  1.00  0.00    -0.362 C  
HETATM   12  C   UNL     1      -8.494  17.307  66.802  1.00  0.00    -0.275 C  
ENDROOT
BRANCH  10  13
HETATM   13  N   UNL     1     -10.715  16.179  66.481  1.00  0.00    -0.270 NA 
HETATM   14  H   UNL     1     -11.590  16.382  65.997  1.00  0.00     0.000 HD 
BRANCH  13  15
HETATM   15  C   UNL     1      -9.883  15.263  65.675  1.00  0.00    -0.348 C  
BRANCH  15  16
HETATM   16  C   UNL     1     -10.594  13.926  65.446  1.00  0.00    -0.335 C  
HETATM   17  O   UNL     1     -11.218  13.729  64.401  1.00  0.00    -0.376 OA 
HETATM   18  N   UNL     1     -10.485  12.948  66.413  1.00  0.00    -0.263 N  
HETATM   19  C   UNL     1     -11.061  11.633  66.224  1.00  0.00    -0.290 C  
HETATM   20  C   UNL     1     -11.464  11.219  67.623  1.00  0.00    -0.341 C  
HETATM   21  C   UNL     1     -10.393  11.843  68.517  1.00  0.00    -0.228 C  
HETATM   22  C   UNL     1      -9.861  13.062  67.736  1.00  0.00    -0.224 C  
HETATM   23  C   UNL     1      -8.384  13.029  67.669  1.00  0.00    -0.181 C  
HETATM   24  N   UNL     1      -7.225  12.979  67.612  1.00  0.00    -0.138 NA 
ENDBRANCH  15  16
ENDBRANCH  13  15
ENDBRANCH  10  13
TORSDOF 3
ENDMDL
MODEL       34
REMARK 921   NORMALIZED FREE ENERGY PREDICTED BY IDOCK:   -5.99 KCAL/MOL
REMARK 922        TOTAL FREE ENERGY PREDICTED BY IDOCK:   -7.68 KCAL/MOL
REMARK 923 INTER-LIGAND FREE ENERGY PREDICTED BY IDOCK:   -7.10 KCAL/MOL
REMARK 924 INTRA-LIGAND FREE ENERGY PREDICTED BY IDOCK:   -0.58 KCAL/MOL
REMARK 927      BINDING AFFINITY PREDICTED BY RF-SCORE:    0.00 PKD
ROOT
HETATM    1  O   UNL     1     -10.031  19.356  68.744  1.00  0.00    -0.412 OA 
HETATM    2  C   UNL     1      -9.813  18.079  68.162  1.00  0.00    -0.340 C  
HETATM    3  H   UNL     1     -10.949  19.589  68.677  1.00  0.00     0.000 HD 
HETATM    4  C   UNL     1      -8.326  17.701  68.272  1.00  0.00    -0.274 C  
HETATM    5  C   UNL     1      -8.084  16.324  67.635  1.00  0.00    -0.161 C  
HETATM    6  C   UNL     1      -8.521  16.357  66.163  1.00  0.00    -0.329 C  
HETATM    7  C   UNL     1     -10.012  16.714  66.063  1.00  0.00    -0.346 C  
HETATM    8  C   UNL     1     -10.842  15.667  66.834  1.00  0.00    -0.282 C  
HETATM    9  C   UNL     1     -10.236  18.099  66.686  1.00  0.00    -0.388 C  
HETATM   10  C   UNL     1     -10.426  15.622  68.333  1.00  0.00    -0.242 C  
HETATM   11  C   UNL     1     -10.653  17.037  68.920  1.00  0.00    -0.328 C  
HETATM   12  C   UNL     1      -8.915  15.271  68.389  1.00  0.00    -0.184 C  
ENDROOT
BRANCH  10  13
HETATM   13  N   UNL     1     -11.257  14.598  68.998  1.00  0.00    -0.255 NA 
HETATM   14  H   UNL     1     -11.894  15.035  69.664  1.00  0.00     0.000 HD 
BRANCH  13  15
HETATM   15  C   UNL     1     -12.001  13.721  68.073  1.00  0.00    -0.355 C  
BRANCH  15  16
HETATM   16  C   UNL     1     -11.602  12.254  68.259  1.00  0.00    -0.331 C  
HETATM   17  O   UNL     1     -11.701  11.722  69.367  1.00  0.00    -0.289 OA 
HETATM   18  N   UNL     1     -11.171  11.544  67.157  1.00  0.00    -0.296 N  
HETATM   19  C   UNL     1     -10.859  10.133  67.244  1.00  0.00    -0.230 C  
HETATM   20  C   UNL     1      -9.741   9.956  66.239  1.00  0.00    -0.281 C  
HETATM   21  C   UNL     1     -10.079  10.951  65.130  1.00  0.00    -0.352 C  
HETATM   22  C   UNL     1     -10.917  12.055  65.806  1.00  0.00    -0.307 C  
HETATM   23  C   UNL     1     -12.163  12.295  65.047  1.00  0.00    -0.304 C  
HETATM   24  N   UNL     1     -13.146  12.460  64.449  1.00  0.00    -0.811 NA 
ENDBRANCH  15  16
ENDBRANCH  13  15
ENDBRANCH  10  13
TORSDOF 3
ENDMDL
MODEL       35
REMARK 921   NORMALIZED FREE ENERGY PREDICTED BY IDOCK:   -5.96 KCAL/MOL
REMARK 922        TOTAL FREE ENERGY PREDICTED BY IDOCK:   -7.64 KCAL/MOL
REMARK 923 INTER-LIGAND FREE ENERGY PREDICTED BY IDOCK:   -7.14 KCAL/MOL
REMARK 924 INTRA-LIGAND FREE ENERGY PREDICTED BY IDOCK:   -0.50 KCAL/MOL
REMARK 927      BINDING AFFINITY PREDICTED BY RF-SCORE:    0.00 PKD
ROOT
HETATM    1  O   UNL     1     -10.440  16.122  64.876  1.00  0.00    -0.605 OA 
HETATM    2  C   UNL     1     -10.249  15.545  66.160  1.00  0.00    -0.306 C  
HETATM    3  H   UNL     1      -9.978  15.611  64.222  1.00  0.00     0.000 HD 
HETATM    4  C   UNL     1     -10.997  16.372  67.220  1.00  0.00    -0.118 C  
HETATM    5  C   UNL     1     -10.786  15.757  68.612  1.00  0.00    -0.278 C  
HETATM    6  C   UNL     1      -9.284  15.712  68.930  1.00  0.00    -0.226 C  
HETATM    7  C   UNL     1      -8.547  14.867  67.878  1.00  0.00    -0.160 C  
HETATM    8  C   UNL     1      -9.126  13.437  67.874  1.00  0.00    -0.208 C  
HETATM    9  C   UNL     1      -8.752  15.502  66.496  1.00  0.00    -0.340 C  
HETATM   10  C   UNL     1     -10.647  13.455  67.543  1.00  0.00    -0.250 C  
HETATM   11  C   UNL     1     -10.811  14.114  66.151  1.00  0.00    -0.296 C  
HETATM   12  C   UNL     1     -11.350  14.326  68.618  1.00  0.00    -0.302 C  
ENDROOT
BRANCH  10  13
HETATM   13  N   UNL     1     -11.126  12.058  67.563  1.00  0.00    -0.258 NA 
HETATM   14  H   UNL     1     -10.348  11.413  67.423  1.00  0.00     0.000 HD 
BRANCH  13  15
HETATM   15  C   UNL     1     -11.887  11.690  68.773  1.00  0.00    -0.325 C  
BRANCH  15  16
HETATM   16  C   UNL     1     -11.123  10.668  69.620  1.00  0.00    -0.284 C  
HETATM   17  O   UNL     1      -9.986  10.321  69.292  1.00  0.00    -0.205 OA 
HETATM   18  N   UNL     1     -11.720  10.184  70.766  1.00  0.00    -0.329 N  
HETATM   19  C   UNL     1     -11.021   9.282  71.656  1.00  0.00    -0.363 C  
HETATM   20  C   UNL     1     -12.124   8.404  72.207  1.00  0.00    -0.456 C  
HETATM   21  C   UNL     1     -13.330   9.337  72.296  1.00  0.00    -0.547 C  
HETATM   22  C   UNL     1     -13.087  10.430  71.236  1.00  0.00    -0.399 C  
HETATM   23  C   UNL     1     -13.248  11.774  71.832  1.00  0.00    -0.362 C  
HETATM   24  N   UNL     1     -13.361  12.823  72.320  1.00  0.00    -0.520 NA 
ENDBRANCH  15  16
ENDBRANCH  13  15
ENDBRANCH  10  13
TORSDOF 3
ENDMDL
MODEL       36
REMARK 921   NORMALIZED FREE ENERGY PREDICTED BY IDOCK:   -5.94 KCAL/MOL
REMARK 922        TOTAL FREE ENERGY PREDICTED BY IDOCK:   -7.63 KCAL/MOL
REMARK 923 INTER-LIGAND FREE ENERGY PREDICTED BY IDOCK:   -7.05 KCAL/MOL
REMARK 924 INTRA-LIGAND FREE ENERGY PREDICTED BY IDOCK:   -0.58 KCAL/MOL
REMARK 927      BINDING AFFINITY PREDICTED BY RF-SCORE:    0.00 PKD
ROOT
HETATM    1  O   UNL     1     -12.429  14.167  63.127  1.00  0.00    -1.126 OA 
HETATM    2  C   UNL     1     -11.813  14.035  64.400  1.00  0.00    -0.431 C  
HETATM    3  H   UNL     1     -11.783  14.423  62.480  1.00  0.00     0.000 HD 
HETATM    4  C   UNL     1     -12.860  13.620  65.447  1.00  0.00    -0.440 C  
HETATM    5  C   UNL     1     -12.198  13.485  66.827  1.00  0.00    -0.392 C  
HETATM    6  C   UNL     1     -11.551  14.822  67.218  1.00  0.00    -0.385 C  
HETATM    7  C   UNL     1     -10.491  15.219  66.177  1.00  0.00    -0.318 C  
HETATM    8  C   UNL     1      -9.415  14.117  66.098  1.00  0.00    -0.229 C  
HETATM    9  C   UNL     1     -11.168  15.367  64.808  1.00  0.00    -0.404 C  
HETATM   10  C   UNL     1     -10.045  12.753  65.692  1.00  0.00    -0.270 C  
HETATM   11  C   UNL     1     -10.728  12.948  64.316  1.00  0.00    -0.430 C  
HETATM   12  C   UNL     1     -11.114  12.396  66.758  1.00  0.00    -0.333 C  
ENDROOT
BRANCH  10  13
HETATM   13  N   UNL     1      -8.958  11.755  65.643  1.00  0.00    -0.407 NA 
HETATM   14  H   UNL     1      -8.136  12.146  65.183  1.00  0.00     0.000 HD 
BRANCH  13  15
HETATM   15  C   UNL     1      -8.590  11.187  66.955  1.00  0.00    -0.147 C  
BRANCH  15  16
HETATM   16  C   UNL     1      -8.025   9.771  66.807  1.00  0.00    -0.105 C  
HETATM   17  O   UNL     1      -6.840   9.607  66.509  1.00  0.00    -0.081 OA 
HETATM   18  N   UNL     1      -8.860   8.700  67.053  1.00  0.00    -0.130 N  
HETATM   19  C   UNL     1      -8.370   7.338  67.015  1.00  0.00    -0.118 C  
HETATM   20  C   UNL     1      -9.560   6.549  66.512  1.00  0.00    -0.184 C  
HETATM   21  C   UNL     1     -10.764   7.278  67.104  1.00  0.00    -0.413 C  
HETATM   22  C   UNL     1     -10.300   8.731  67.327  1.00  0.00    -0.290 C  
HETATM   23  C   UNL     1     -10.605   9.166  68.707  1.00  0.00    -0.181 C  
HETATM   24  N   UNL     1     -10.836   9.485  69.801  1.00  0.00    -0.237 NA 
ENDBRANCH  15  16
ENDBRANCH  13  15
ENDBRANCH  10  13
TORSDOF 3
ENDMDL
MODEL       37
REMARK 921   NORMALIZED FREE ENERGY PREDICTED BY IDOCK:   -5.91 KCAL/MOL
REMARK 922        TOTAL FREE ENERGY PREDICTED BY IDOCK:   -7.59 KCAL/MOL
REMARK 923 INTER-LIGAND FREE ENERGY PREDICTED BY IDOCK:   -7.07 KCAL/MOL
REMARK 924 INTRA-LIGAND FREE ENERGY PREDICTED BY IDOCK:   -0.52 KCAL/MOL
REMARK 927      BINDING AFFINITY PREDICTED BY RF-SCORE:    0.00 PKD
ROOT
HETATM    1  O   UNL     1     -10.430  19.611  69.704  1.00  0.00    -0.521 OA 
HETATM    2  C   UNL     1      -9.944  19.242  68.421  1.00  0.00    -0.419 C  
HETATM    3  H   UNL     1     -11.375  19.697  69.679  1.00  0.00     0.000 HD 
HETATM    4  C   UNL     1      -8.413  19.102  68.463  1.00  0.00    -0.399 C  
HETATM    5  C   UNL     1      -7.882  18.711  67.075  1.00  0.00    -0.242 C  
HETATM    6  C   UNL     1      -8.295  19.778  66.050  1.00  0.00    -0.314 C  
HETATM    7  C   UNL     1      -9.827  19.896  66.000  1.00  0.00    -0.515 C  
HETATM    8  C   UNL     1     -10.432  18.532  65.611  1.00  0.00    -0.132 C  
HETATM    9  C   UNL     1     -10.341  20.304  67.387  1.00  0.00    -0.424 C  
HETATM   10  C   UNL     1     -10.037  17.435  66.642  1.00  0.00    -0.317 C  
HETATM   11  C   UNL     1     -10.561  17.890  68.027  1.00  0.00    -0.366 C  
HETATM   12  C   UNL     1      -8.488  17.356  66.671  1.00  0.00    -0.291 C  
ENDROOT
BRANCH  10  13
HETATM   13  N   UNL     1     -10.648  16.165  66.200  1.00  0.00    -0.306 NA 
HETATM   14  H   UNL     1      -9.999  15.645  65.608  1.00  0.00     0.000 HD 
BRANCH  13  15
HETATM   15  C   UNL     1     -11.140  15.309  67.298  1.00  0.00    -0.325 C  
BRANCH  15  16
HETATM   16  C   UNL     1     -10.330  14.013  67.396  1.00  0.00    -0.259 C  
HETATM   17  O   UNL     1      -9.358  13.835  66.659  1.00  0.00    -0.269 OA 
HETATM   18  N   UNL     1     -10.692  13.081  68.346  1.00  0.00    -0.249 N  
HETATM   19  C   UNL     1      -9.920  11.873  68.550  1.00  0.00    -0.192 C  
HETATM   20  C   UNL     1     -10.962  10.852  68.956  1.00  0.00    -0.285 C  
HETATM   21  C   UNL     1     -11.984  11.663  69.750  1.00  0.00    -0.402 C  
HETATM   22  C   UNL     1     -11.866  13.107  69.226  1.00  0.00    -0.323 C  
HETATM   23  C   UNL     1     -11.709  14.055  70.350  1.00  0.00    -0.222 C  
HETATM   24  N   UNL     1     -11.569  14.784  71.244  1.00  0.00    -0.300 NA 
ENDBRANCH  15  16
ENDBRANCH  13  15
ENDBRANCH  10  13
TORSDOF 3
ENDMDL
MODEL       38
REMARK 921   NORMALIZED FREE ENERGY PREDICTED BY IDOCK:   -5.88 KCAL/MOL
REMARK 922        TOTAL FREE ENERGY PREDICTED BY IDOCK:   -7.55 KCAL/MOL
REMARK 923 INTER-LIGAND FREE ENERGY PREDICTED BY IDOCK:   -7.12 KCAL/MOL
REMARK 924 INTRA-LIGAND FREE ENERGY PREDICTED BY IDOCK:   -0.43 KCAL/MOL
REMARK 927      BINDING AFFINITY PREDICTED BY RF-SCORE:    0.00 PKD
ROOT
HETATM    1  O   UNL     1     -12.510  13.767  63.056  1.00  0.00    -1.068 OA 
HETATM    2  C   UNL     1     -11.832  13.953  64.290  1.00  0.00    -0.412 C  
HETATM    3  H   UNL     1     -13.241  14.371  62.996  1.00  0.00     0.000 HD 
HETATM    4  C   UNL     1     -10.649  12.975  64.388  1.00  0.00    -0.429 C  
HETATM    5  C   UNL     1      -9.917  13.166  65.725  1.00  0.00    -0.260 C  
HETATM    6  C   UNL     1     -10.899  12.935  66.883  1.00  0.00    -0.278 C  
HETATM    7  C   UNL     1     -12.067  13.930  66.791  1.00  0.00    -0.476 C  
HETATM    8  C   UNL     1     -11.517  15.370  66.846  1.00  0.00    -0.071 C  
HETATM    9  C   UNL     1     -12.799  13.717  65.459  1.00  0.00    -0.443 C  
HETATM   10  C   UNL     1     -10.527  15.633  65.674  1.00  0.00    -0.382 C  
HETATM   11  C   UNL     1     -11.299  15.394  64.353  1.00  0.00    -0.246 C  
HETATM   12  C   UNL     1      -9.373  14.603  65.797  1.00  0.00    -0.058 C  
ENDROOT
BRANCH  10  13
HETATM   13  N   UNL     1     -10.044  17.023  65.799  1.00  0.00    -0.566 NA 
HETATM   14  H   UNL     1     -10.269  17.554  64.958  1.00  0.00     0.000 HD 
BRANCH  13  15
HETATM   15  C   UNL     1     -10.528  17.732  67.000  1.00  0.00    -0.322 C  
BRANCH  15  16
HETATM   16  C   UNL     1      -9.386  18.471  67.705  1.00  0.00    -0.281 C  
HETATM   17  O   UNL     1      -9.277  19.693  67.589  1.00  0.00    -0.314 OA 
HETATM   18  N   UNL     1      -8.518  17.743  68.493  1.00  0.00    -0.297 N  
HETATM   19  C   UNL     1      -7.469  18.389  69.254  1.00  0.00    -0.008 C  
HETATM   20  C   UNL     1      -6.354  17.365  69.255  1.00  0.00    -0.244 C  
HETATM   21  C   UNL     1      -7.082  16.023  69.288  1.00  0.00    -0.220 C  
HETATM   22  C   UNL     1      -8.463  16.286  68.655  1.00  0.00    -0.221 C  
HETATM   23  C   UNL     1      -9.539  15.773  69.530  1.00  0.00    -0.262 C  
HETATM   24  N   UNL     1     -10.374  15.380  70.237  1.00  0.00    -0.258 NA 
ENDBRANCH  15  16
ENDBRANCH  13  15
ENDBRANCH  10  13
TORSDOF 3
ENDMDL
MODEL       39
REMARK 921   NORMALIZED FREE ENERGY PREDICTED BY IDOCK:   -5.87 KCAL/MOL
REMARK 922        TOTAL FREE ENERGY PREDICTED BY IDOCK:   -7.54 KCAL/MOL
REMARK 923 INTER-LIGAND FREE ENERGY PREDICTED BY IDOCK:   -7.13 KCAL/MOL
REMARK 924 INTRA-LIGAND FREE ENERGY PREDICTED BY IDOCK:   -0.41 KCAL/MOL
REMARK 927      BINDING AFFINITY PREDICTED BY RF-SCORE:    0.00 PKD
ROOT
HETATM    1  O   UNL     1     -12.992   8.499  72.975  1.00  0.00    -0.719 OA 
HETATM    2  C   UNL     1     -11.924   8.188  72.092  1.00  0.00    -0.359 C  
HETATM    3  H   UNL     1     -12.787   9.287  73.464  1.00  0.00     0.000 HD 
HETATM    4  C   UNL     1     -12.255   6.912  71.299  1.00  0.00    -0.427 C  
HETATM    5  C   UNL     1     -11.098   6.567  70.349  1.00  0.00    -0.389 C  
HETATM    6  C   UNL     1      -9.809   6.374  71.161  1.00  0.00    -0.198 C  
HETATM    7  C   UNL     1      -9.473   7.660  71.933  1.00  0.00    -0.183 C  
HETATM    8  C   UNL     1      -9.297   8.823  70.936  1.00  0.00    -0.266 C  
HETATM    9  C   UNL     1     -10.629   7.982  72.890  1.00  0.00    -0.399 C  
HETATM   10  C   UNL     1     -10.595   9.047  70.107  1.00  0.00    -0.224 C  
HETATM   11  C   UNL     1     -11.736   9.356  71.108  1.00  0.00    -0.418 C  
HETATM   12  C   UNL     1     -10.905   7.726  69.355  1.00  0.00    -0.121 C  
ENDROOT
BRANCH  10  13
HETATM   13  N   UNL     1     -10.345  10.167  69.178  1.00  0.00    -0.205 NA 
HETATM   14  H   UNL     1      -9.347  10.372  69.127  1.00  0.00     0.000 HD 
BRANCH  13  15
HETATM   15  C   UNL     1     -10.900   9.973  67.824  1.00  0.00    -0.282 C  
BRANCH  15  16
HETATM   16  C   UNL     1     -11.369  11.300  67.221  1.00  0.00    -0.255 C  
HETATM   17  O   UNL     1     -12.016  12.095  67.905  1.00  0.00    -0.489 OA 
HETATM   18  N   UNL     1     -11.016  11.593  65.919  1.00  0.00    -0.294 N  
HETATM   19  C   UNL     1     -11.354  12.865  65.315  1.00  0.00    -0.300 C  
HETATM   20  C   UNL     1     -11.577  12.515  63.859  1.00  0.00    -0.516 C  
HETATM   21  C   UNL     1     -10.579  11.390  63.591  1.00  0.00    -0.476 C  
HETATM   22  C   UNL     1     -10.334  10.720  64.958  1.00  0.00    -0.287 C  
HETATM   23  C   UNL     1      -8.884  10.608  65.226  1.00  0.00    -0.189 C  
HETATM   24  N   UNL     1      -7.741  10.543  65.429  1.00  0.00    -0.136 NA 
ENDBRANCH  15  16
ENDBRANCH  13  15
ENDBRANCH  10  13
TORSDOF 3
ENDMDL
MODEL       40
REMARK 921   NORMALIZED FREE ENERGY PREDICTED BY IDOCK:   -5.85 KCAL/MOL
REMARK 922        TOTAL FREE ENERGY PREDICTED BY IDOCK:   -7.52 KCAL/MOL
REMARK 923 INTER-LIGAND FREE ENERGY PREDICTED BY IDOCK:   -7.10 KCAL/MOL
REMARK 924 INTRA-LIGAND FREE ENERGY PREDICTED BY IDOCK:   -0.42 KCAL/MOL
REMARK 927      BINDING AFFINITY PREDICTED BY RF-SCORE:    0.00 PKD
ROOT
HETATM    1  O   UNL     1     -12.512  12.222  65.051  1.00  0.00    -0.535 OA 
HETATM    2  C   UNL     1     -11.749  12.874  66.056  1.00  0.00    -0.404 C  
HETATM    3  H   UNL     1     -12.116  11.387  64.836  1.00  0.00     0.000 HD 
HETATM    4  C   UNL     1     -12.391  14.227  66.406  1.00  0.00    -0.378 C  
HETATM    5  C   UNL     1     -11.564  14.939  67.486  1.00  0.00    -0.355 C  
HETATM    6  C   UNL     1     -10.128  15.144  66.980  1.00  0.00    -0.244 C  
HETATM    7  C   UNL     1      -9.486  13.786  66.654  1.00  0.00    -0.289 C  
HETATM    8  C   UNL     1      -9.476  12.907  67.921  1.00  0.00    -0.208 C  
HETATM    9  C   UNL     1     -10.312  13.094  65.561  1.00  0.00    -0.299 C  
HETATM   10  C   UNL     1     -10.922  12.675  68.448  1.00  0.00    -0.257 C  
HETATM   11  C   UNL     1     -11.725  11.989  67.314  1.00  0.00    -0.339 C  
HETATM   12  C   UNL     1     -11.537  14.067  68.753  1.00  0.00    -0.366 C  
ENDROOT
BRANCH  10  13
HETATM   13  N   UNL     1     -10.829  11.834  69.658  1.00  0.00    -0.456 NA 
HETATM   14  H   UNL     1     -11.230  12.319  70.460  1.00  0.00     0.000 HD 
BRANCH  13  15
HETATM   15  C   UNL     1     -11.427  10.492  69.516  1.00  0.00    -0.272 C  
BRANCH  15  16
HETATM   16  C   UNL     1     -11.939   9.969  70.861  1.00  0.00    -0.361 C  
HETATM   17  O   UNL     1     -12.825  10.579  71.464  1.00  0.00    -0.390 OA 
HETATM   18  N   UNL     1     -11.416   8.790  71.353  1.00  0.00    -0.276 N  
HETATM   19  C   UNL     1     -11.914   8.196  72.575  1.00  0.00    -0.350 C  
HETATM   20  C   UNL     1     -10.690   7.533  73.169  1.00  0.00    -0.452 C  
HETATM   21  C   UNL     1      -9.895   7.065  71.952  1.00  0.00    -0.173 C  
HETATM   22  C   UNL     1     -10.306   8.006  70.802  1.00  0.00    -0.199 C  
HETATM   23  C   UNL     1     -10.701   7.224  69.611  1.00  0.00    -0.236 C  
HETATM   24  N   UNL     1     -11.025   6.594  68.689  1.00  0.00    -0.263 NA 
ENDBRANCH  15  16
ENDBRANCH  13  15
ENDBRANCH  10  13
TORSDOF 3
ENDMDL
MODEL       41
REMARK 921   NORMALIZED FREE ENERGY PREDICTED BY IDOCK:   -5.84 KCAL/MOL
REMARK 922        TOTAL FREE ENERGY PREDICTED BY IDOCK:   -7.51 KCAL/MOL
REMARK 923 INTER-LIGAND FREE ENERGY PREDICTED BY IDOCK:   -7.03 KCAL/MOL
REMARK 924 INTRA-LIGAND FREE ENERGY PREDICTED BY IDOCK:   -0.48 KCAL/MOL
REMARK 927      BINDING AFFINITY PREDICTED BY RF-SCORE:    0.00 PKD
ROOT
HETATM    1  O   UNL     1      -9.761  11.257  67.556  1.00  0.00    -0.175 OA 
HETATM    2  C   UNL     1     -10.415  11.838  66.437  1.00  0.00    -0.235 C  
HETATM    3  H   UNL     1      -8.839  11.137  67.365  1.00  0.00     0.000 HD 
HETATM    4  C   UNL     1     -11.909  12.032  66.747  1.00  0.00    -0.244 C  
HETATM    5  C   UNL     1     -12.622  12.652  65.536  1.00  0.00    -0.182 C  
HETATM    6  C   UNL     1     -12.443  11.739  64.314  1.00  0.00    -0.154 C  
HETATM    7  C   UNL     1     -10.949  11.567  63.998  1.00  0.00    -0.454 C  
HETATM    8  C   UNL     1     -10.324  12.949  63.717  1.00  0.00    -0.143 C  
HETATM    9  C   UNL     1     -10.253  10.931  65.209  1.00  0.00    -0.351 C  
HETATM   10  C   UNL     1     -10.482  13.891  64.946  1.00  0.00    -0.426 C  
HETATM   11  C   UNL     1      -9.780  13.208  66.146  1.00  0.00    -0.254 C  
HETATM   12  C   UNL     1     -11.999  14.027  65.238  1.00  0.00    -0.384 C  
ENDROOT
BRANCH  10  13
HETATM   13  N   UNL     1      -9.866  15.187  64.598  1.00  0.00    -0.369 NA 
HETATM   14  H   UNL     1     -10.462  15.702  63.950  1.00  0.00     0.000 HD 
BRANCH  13  15
HETATM   15  C   UNL     1      -9.521  16.030  65.760  1.00  0.00    -0.247 C  
BRANCH  15  16
HETATM   16  C   UNL     1     -10.258  17.371  65.710  1.00  0.00    -0.191 C  
HETATM   17  O   UNL     1     -11.026  17.620  64.778  1.00  0.00    -0.917 OA 
HETATM   18  N   UNL     1     -10.071  18.264  66.745  1.00  0.00    -0.344 N  
HETATM   19  C   UNL     1     -10.801  19.513  66.804  1.00  0.00    -0.390 C  
HETATM   20  C   UNL     1      -9.825  20.462  67.465  1.00  0.00    -0.564 C  
HETATM   21  C   UNL     1      -9.057  19.579  68.447  1.00  0.00    -0.410 C  
HETATM   22  C   UNL     1      -9.132  18.152  67.866  1.00  0.00    -0.265 C  
HETATM   23  C   UNL     1      -9.593  17.198  68.897  1.00  0.00    -0.237 C  
HETATM   24  N   UNL     1      -9.973  16.464  69.715  1.00  0.00    -0.087 NA 
ENDBRANCH  15  16
ENDBRANCH  13  15
ENDBRANCH  10  13
TORSDOF 3
ENDMDL
MODEL       42
REMARK 921   NORMALIZED FREE ENERGY PREDICTED BY IDOCK:   -5.83 KCAL/MOL
REMARK 922        TOTAL FREE ENERGY PREDICTED BY IDOCK:   -7.49 KCAL/MOL
REMARK 923 INTER-LIGAND FREE ENERGY PREDICTED BY IDOCK:   -6.97 KCAL/MOL
REMARK 924 INTRA-LIGAND FREE ENERGY PREDICTED BY IDOCK:   -0.52 KCAL/MOL
REMARK 927      BINDING AFFINITY PREDICTED BY RF-SCORE:    0.00 PKD
ROOT
HETATM    1  O   UNL     1     -12.529  15.088  69.021  1.00  0.00    -0.577 OA 
HETATM    2  C   UNL     1     -11.739  14.173  68.276  1.00  0.00    -0.348 C  
HETATM    3  H   UNL     1     -13.448  14.868  68.931  1.00  0.00     0.000 HD 
HETATM    4  C   UNL     1     -10.250  14.530  68.420  1.00  0.00    -0.239 C  
HETATM    5  C   UNL     1      -9.392  13.547  67.609  1.00  0.00    -0.216 C  
HETATM    6  C   UNL     1      -9.813  13.597  66.133  1.00  0.00    -0.304 C  
HETATM    7  C   UNL     1     -11.296  13.219  65.995  1.00  0.00    -0.329 C  
HETATM    8  C   UNL     1     -11.516  11.799  66.557  1.00  0.00    -0.325 C  
HETATM    9  C   UNL     1     -12.143  14.218  66.795  1.00  0.00    -0.446 C  
HETATM   10  C   UNL     1     -11.106  11.725  68.056  1.00  0.00    -0.242 C  
HETATM   11  C   UNL     1     -11.971  12.755  68.824  1.00  0.00    -0.278 C  
HETATM   12  C   UNL     1      -9.610  12.125  68.153  1.00  0.00    -0.208 C  
ENDROOT
BRANCH  10  13
HETATM   13  N   UNL     1     -11.340  10.341  68.516  1.00  0.00    -0.473 NA 
HETATM   14  H   UNL     1     -11.137   9.678  67.768  1.00  0.00     0.000 HD 
BRANCH  13  15
HETATM   15  C   UNL     1     -10.606   9.973  69.743  1.00  0.00    -0.267 C  
BRANCH  15  16
HETATM   16  C   UNL     1     -11.533   9.309  70.765  1.00  0.00    -0.292 C  
HETATM   17  O   UNL     1     -12.321   9.994  71.421  1.00  0.00    -0.355 OA 
HETATM   18  N   UNL     1     -11.488   7.937  70.901  1.00  0.00    -0.282 N  
HETATM   19  C   UNL     1     -12.395   7.237  71.786  1.00  0.00    -0.341 C  
HETATM   20  C   UNL     1     -11.574   6.062  72.275  1.00  0.00    -0.359 C  
HETATM   21  C   UNL     1     -10.693   5.703  71.080  1.00  0.00    -0.310 C  
HETATM   22  C   UNL     1     -10.553   7.004  70.264  1.00  0.00    -0.226 C  
HETATM   23  C   UNL     1     -10.877   6.760  68.842  1.00  0.00    -0.243 C  
HETATM   24  N   UNL     1     -11.151   6.554  67.731  1.00  0.00    -0.310 NA 
ENDBRANCH  15  16
ENDBRANCH  13  15
ENDBRANCH  10  13
TORSDOF 3
ENDMDL
MODEL       43
REMARK 921   NORMALIZED FREE ENERGY PREDICTED BY IDOCK:   -5.82 KCAL/MOL
REMARK 922        TOTAL FREE ENERGY PREDICTED BY IDOCK:   -7.48 KCAL/MOL
REMARK 923 INTER-LIGAND FREE ENERGY PREDICTED BY IDOCK:   -7.01 KCAL/MOL
REMARK 924 INTRA-LIGAND FREE ENERGY PREDICTED BY IDOCK:   -0.47 KCAL/MOL
REMARK 927      BINDING AFFINITY PREDICTED BY RF-SCORE:    0.00 PKD
ROOT
HETATM    1  O   UNL     1      -8.556  14.903  66.161  1.00  0.00    -0.418 OA 
HETATM    2  C   UNL     1      -9.750  14.212  66.502  1.00  0.00    -0.295 C  
HETATM    3  H   UNL     1      -8.239  15.390  66.912  1.00  0.00     0.000 HD 
HETATM    4  C   UNL     1     -10.263  13.423  65.285  1.00  0.00    -0.312 C  
HETATM    5  C   UNL     1     -11.559  12.682  65.648  1.00  0.00    -0.418 C  
HETATM    6  C   UNL     1     -12.615  13.695  66.113  1.00  0.00    -0.391 C  
HETATM    7  C   UNL     1     -12.103  14.464  67.342  1.00  0.00    -0.348 C  
HETATM    8  C   UNL     1     -11.795  13.467  68.477  1.00  0.00    -0.398 C  
HETATM    9  C   UNL     1     -10.819  15.214  66.961  1.00  0.00    -0.314 C  
HETATM   10  C   UNL     1     -10.718  12.435  68.034  1.00  0.00    -0.223 C  
HETATM   11  C   UNL     1      -9.446  13.230  67.646  1.00  0.00    -0.211 C  
HETATM   12  C   UNL     1     -11.267  11.691  66.788  1.00  0.00    -0.371 C  
ENDROOT
BRANCH  10  13
HETATM   13  N   UNL     1     -10.483  11.518  69.167  1.00  0.00    -0.394 NA 
HETATM   14  H   UNL     1     -10.636  12.001  70.053  1.00  0.00     0.000 HD 
BRANCH  13  15
HETATM   15  C   UNL     1     -11.271  10.271  69.117  1.00  0.00    -0.215 C  
BRANCH  15  16
HETATM   16  C   UNL     1     -11.898   9.958  70.479  1.00  0.00    -0.270 C  
HETATM   17  O   UNL     1     -12.752  10.710  70.954  1.00  0.00    -0.355 OA 
HETATM   18  N   UNL     1     -11.513   8.804  71.131  1.00  0.00    -0.273 N  
HETATM   19  C   UNL     1     -12.127   8.403  72.380  1.00  0.00    -0.378 C  
HETATM   20  C   UNL     1     -11.002   7.710  73.119  1.00  0.00    -0.411 C  
HETATM   21  C   UNL     1     -10.194   7.034  72.013  1.00  0.00    -0.209 C  
HETATM   22  C   UNL     1     -10.456   7.865  70.741  1.00  0.00    -0.210 C  
HETATM   23  C   UNL     1     -10.863   6.987  69.624  1.00  0.00    -0.247 C  
HETATM   24  N   UNL     1     -11.197   6.283  68.761  1.00  0.00    -0.354 NA 
ENDBRANCH  15  16
ENDBRANCH  13  15
ENDBRANCH  10  13
TORSDOF 3
ENDMDL
MODEL       44
REMARK 921   NORMALIZED FREE ENERGY PREDICTED BY IDOCK:   -5.81 KCAL/MOL
REMARK 922        TOTAL FREE ENERGY PREDICTED BY IDOCK:   -7.47 KCAL/MOL
REMARK 923 INTER-LIGAND FREE ENERGY PREDICTED BY IDOCK:   -6.97 KCAL/MOL
REMARK 924 INTRA-LIGAND FREE ENERGY PREDICTED BY IDOCK:   -0.50 KCAL/MOL
REMARK 927      BINDING AFFINITY PREDICTED BY RF-SCORE:    0.00 PKD
ROOT
HETATM    1  O   UNL     1     -12.648  14.482  68.581  1.00  0.00    -0.545 OA 
HETATM    2  C   UNL     1     -11.694  14.155  67.581  1.00  0.00    -0.387 C  
HETATM    3  H   UNL     1     -12.206  14.667  69.401  1.00  0.00     0.000 HD 
HETATM    4  C   UNL     1     -12.411  13.855  66.253  1.00  0.00    -0.489 C  
HETATM    5  C   UNL     1     -11.382  13.493  65.171  1.00  0.00    -0.315 C  
HETATM    6  C   UNL     1     -10.568  12.273  65.626  1.00  0.00    -0.295 C  
HETATM    7  C   UNL     1      -9.838  12.587  66.942  1.00  0.00    -0.229 C  
HETATM    8  C   UNL     1      -8.903  13.795  66.732  1.00  0.00    -0.156 C  
HETATM    9  C   UNL     1     -10.877  12.930  68.019  1.00  0.00    -0.261 C  
HETATM   10  C   UNL     1      -9.707  15.049  66.280  1.00  0.00    -0.291 C  
HETATM   11  C   UNL     1     -10.750  15.353  67.384  1.00  0.00    -0.296 C  
HETATM   12  C   UNL     1     -10.436  14.687  64.960  1.00  0.00    -0.447 C  
ENDROOT
BRANCH  10  13
HETATM   13  N   UNL     1      -8.745  16.155  66.097  1.00  0.00    -0.337 NA 
HETATM   14  H   UNL     1      -8.629  16.365  65.105  1.00  0.00     0.000 HD 
BRANCH  13  15
HETATM   15  C   UNL     1      -9.076  17.383  66.846  1.00  0.00    -0.245 C  
BRANCH  15  16
HETATM   16  C   UNL     1      -8.059  17.643  67.961  1.00  0.00    -0.243 C  
HETATM   17  O   UNL     1      -7.985  16.874  68.922  1.00  0.00    -0.245 OA 
HETATM   18  N   UNL     1      -7.212  18.726  67.840  1.00  0.00    -0.235 N  
HETATM   19  C   UNL     1      -6.171  18.981  68.814  1.00  0.00    -0.234 C  
HETATM   20  C   UNL     1      -6.075  20.492  68.838  1.00  0.00    -0.369 C  
HETATM   21  C   UNL     1      -6.372  20.906  67.398  1.00  0.00    -0.382 C  
HETATM   22  C   UNL     1      -7.237  19.772  66.812  1.00  0.00    -0.227 C  
HETATM   23  C   UNL     1      -6.680  19.311  65.522  1.00  0.00    -0.272 C  
HETATM   24  N   UNL     1      -6.220  18.949  64.518  1.00  0.00    -0.465 NA 
ENDBRANCH  15  16
ENDBRANCH  13  15
ENDBRANCH  10  13
TORSDOF 3
ENDMDL
MODEL       45
REMARK 921   NORMALIZED FREE ENERGY PREDICTED BY IDOCK:   -5.75 KCAL/MOL
REMARK 922        TOTAL FREE ENERGY PREDICTED BY IDOCK:   -7.41 KCAL/MOL
REMARK 923 INTER-LIGAND FREE ENERGY PREDICTED BY IDOCK:   -6.93 KCAL/MOL
REMARK 924 INTRA-LIGAND FREE ENERGY PREDICTED BY IDOCK:   -0.48 KCAL/MOL
REMARK 927      BINDING AFFINITY PREDICTED BY RF-SCORE:    0.00 PKD
ROOT
HETATM    1  O   UNL     1     -10.248  10.723  69.944  1.00  0.00    -0.439 OA 
HETATM    2  C   UNL     1     -10.203  11.268  68.633  1.00  0.00    -0.203 C  
HETATM    3  H   UNL     1      -9.801  11.302  70.550  1.00  0.00     0.000 HD 
HETATM    4  C   UNL     1     -10.927  10.331  67.652  1.00  0.00    -0.356 C  
HETATM    5  C   UNL     1     -10.872  10.913  66.231  1.00  0.00    -0.191 C  
HETATM    6  C   UNL     1      -9.407  11.100  65.810  1.00  0.00    -0.238 C  
HETATM    7  C   UNL     1      -8.697  12.055  66.783  1.00  0.00    -0.192 C  
HETATM    8  C   UNL     1      -9.422  13.416  66.785  1.00  0.00    -0.263 C  
HETATM    9  C   UNL     1      -8.743  11.453  68.194  1.00  0.00    -0.154 C  
HETATM   10  C   UNL     1     -10.907  13.254  67.219  1.00  0.00    -0.264 C  
HETATM   11  C   UNL     1     -10.911  12.634  68.638  1.00  0.00    -0.281 C  
HETATM   12  C   UNL     1     -11.583  12.277  66.221  1.00  0.00    -0.446 C  
ENDROOT
BRANCH  10  13
HETATM   13  N   UNL     1     -11.531  14.593  67.190  1.00  0.00    -0.357 NA 
HETATM   14  H   UNL     1     -12.035  14.769  68.059  1.00  0.00     0.000 HD 
BRANCH  13  15
HETATM   15  C   UNL     1     -10.593  15.697  66.907  1.00  0.00    -0.311 C  
BRANCH  15  16
HETATM   16  C   UNL     1     -10.678  16.786  67.981  1.00  0.00    -0.355 C  
HETATM   17  O   UNL     1     -11.254  16.558  69.047  1.00  0.00    -0.305 OA 
HETATM   18  N   UNL     1     -10.066  17.999  67.739  1.00  0.00    -0.335 N  
HETATM   19  C   UNL     1     -10.035  19.041  68.744  1.00  0.00    -0.411 C  
HETATM   20  C   UNL     1     -10.083  20.317  67.930  1.00  0.00    -0.476 C  
HETATM   21  C   UNL     1      -9.304  19.976  66.661  1.00  0.00    -0.505 C  
HETATM   22  C   UNL     1      -9.427  18.448  66.498  1.00  0.00    -0.317 C  
HETATM   23  C   UNL     1      -8.094  17.840  66.296  1.00  0.00    -0.234 C  
HETATM   24  N   UNL     1      -7.037  17.377  66.156  1.00  0.00    -0.294 NA 
ENDBRANCH  15  16
ENDBRANCH  13  15
ENDBRANCH  10  13
TORSDOF 3
ENDMDL
MODEL       46
REMARK 921   NORMALIZED FREE ENERGY PREDICTED BY IDOCK:   -5.73 KCAL/MOL
REMARK 922        TOTAL FREE ENERGY PREDICTED BY IDOCK:   -7.38 KCAL/MOL
REMARK 923 INTER-LIGAND FREE ENERGY PREDICTED BY IDOCK:   -6.92 KCAL/MOL
REMARK 924 INTRA-LIGAND FREE ENERGY PREDICTED BY IDOCK:   -0.46 KCAL/MOL
REMARK 927      BINDING AFFINITY PREDICTED BY RF-SCORE:    0.00 PKD
ROOT
HETATM    1  O   UNL     1      -6.379  18.049  67.145  1.00  0.00    -0.159 OA 
HETATM    2  C   UNL     1      -7.740  18.447  67.223  1.00  0.00    -0.223 C  
HETATM    3  H   UNL     1      -6.171  17.465  67.864  1.00  0.00     0.000 HD 
HETATM    4  C   UNL     1      -8.076  19.393  66.058  1.00  0.00    -0.260 C  
HETATM    5  C   UNL     1      -9.545  19.832  66.143  1.00  0.00    -0.484 C  
HETATM    6  C   UNL     1      -9.794  20.530  67.489  1.00  0.00    -0.534 C  
HETATM    7  C   UNL     1      -9.477  19.571  68.647  1.00  0.00    -0.462 C  
HETATM    8  C   UNL     1     -10.369  18.318  68.532  1.00  0.00    -0.341 C  
HETATM    9  C   UNL     1      -8.002  19.154  68.560  1.00  0.00    -0.386 C  
HETATM   10  C   UNL     1     -10.127  17.586  67.180  1.00  0.00    -0.321 C  
HETATM   11  C   UNL     1      -8.629  17.195  67.125  1.00  0.00    -0.221 C  
HETATM   12  C   UNL     1     -10.446  18.589  66.040  1.00  0.00    -0.433 C  
ENDROOT
BRANCH  10  13
HETATM   13  N   UNL     1     -11.016  16.407  67.144  1.00  0.00    -0.161 NA 
HETATM   14  H   UNL     1     -11.754  16.539  66.452  1.00  0.00     0.000 HD 
BRANCH  13  15
HETATM   15  C   UNL     1     -10.321  15.125  66.915  1.00  0.00    -0.272 C  
BRANCH  15  16
HETATM   16  C   UNL     1     -10.538  14.624  65.484  1.00  0.00    -0.355 C  
HETATM   17  O   UNL     1     -10.877  15.412  64.599  1.00  0.00    -0.387 OA 
HETATM   18  N   UNL     1     -10.307  13.291  65.211  1.00  0.00    -0.307 N  
HETATM   19  C   UNL     1     -10.411  12.769  63.865  1.00  0.00    -0.372 C  
HETATM   20  C   UNL     1     -10.908  11.354  64.072  1.00  0.00    -0.450 C  
HETATM   21  C   UNL     1     -10.254  10.920  65.383  1.00  0.00    -0.339 C  
HETATM   22  C   UNL     1      -9.991  12.223  66.165  1.00  0.00    -0.243 C  
HETATM   23  C   UNL     1      -8.587  12.275  66.627  1.00  0.00    -0.099 C  
HETATM   24  N   UNL     1      -7.476  12.307  66.968  1.00  0.00    -0.110 NA 
ENDBRANCH  15  16
ENDBRANCH  13  15
ENDBRANCH  10  13
TORSDOF 3
ENDMDL
MODEL       47
REMARK 921   NORMALIZED FREE ENERGY PREDICTED BY IDOCK:   -5.69 KCAL/MOL
REMARK 922        TOTAL FREE ENERGY PREDICTED BY IDOCK:   -7.32 KCAL/MOL
REMARK 923 INTER-LIGAND FREE ENERGY PREDICTED BY IDOCK:   -6.76 KCAL/MOL
REMARK 924 INTRA-LIGAND FREE ENERGY PREDICTED BY IDOCK:   -0.57 KCAL/MOL
REMARK 927      BINDING AFFINITY PREDICTED BY RF-SCORE:    0.00 PKD
ROOT
HETATM    1  O   UNL     1     -12.433  14.421  63.172  1.00  0.00    -1.009 OA 
HETATM    2  C   UNL     1     -11.837  14.204  64.443  1.00  0.00    -0.428 C  
HETATM    3  H   UNL     1     -11.772  14.692  62.547  1.00  0.00     0.000 HD 
HETATM    4  C   UNL     1     -12.909  13.765  65.455  1.00  0.00    -0.464 C  
HETATM    5  C   UNL     1     -12.269  13.538  66.833  1.00  0.00    -0.377 C  
HETATM    6  C   UNL     1     -11.589  14.833  67.302  1.00  0.00    -0.385 C  
HETATM    7  C   UNL     1     -10.505  15.253  66.296  1.00  0.00    -0.313 C  
HETATM    8  C   UNL     1      -9.460  14.126  66.170  1.00  0.00    -0.229 C  
HETATM    9  C   UNL     1     -11.160  15.494  64.929  1.00  0.00    -0.428 C  
HETATM   10  C   UNL     1     -10.123  12.804  65.686  1.00  0.00    -0.270 C  
HETATM   11  C   UNL     1     -10.782  13.092  64.314  1.00  0.00    -0.431 C  
HETATM   12  C   UNL     1     -11.216  12.423  66.719  1.00  0.00    -0.363 C  
ENDROOT
BRANCH  10  13
HETATM   13  N   UNL     1      -9.064  11.779  65.596  1.00  0.00    -0.403 NA 
HETATM   14  H   UNL     1      -8.143  12.216  65.620  1.00  0.00     0.000 HD 
BRANCH  13  15
HETATM   15  C   UNL     1      -9.156  10.715  66.615  1.00  0.00    -0.160 C  
BRANCH  15  16
HETATM   16  C   UNL     1      -7.980  10.782  67.593  1.00  0.00    -0.110 C  
HETATM   17  O   UNL     1      -6.938  11.356  67.268  1.00  0.00    -0.097 OA 
HETATM   18  N   UNL     1      -8.132  10.223  68.846  1.00  0.00    -0.114 N  
HETATM   19  C   UNL     1      -7.092  10.324  69.848  1.00  0.00    -0.152 C  
HETATM   20  C   UNL     1      -7.222   9.031  70.623  1.00  0.00    -0.093 C  
HETATM   21  C   UNL     1      -8.721   8.738  70.606  1.00  0.00    -0.208 C  
HETATM   22  C   UNL     1      -9.265   9.435  69.343  1.00  0.00    -0.165 C  
HETATM   23  C   UNL     1     -10.434  10.276  69.679  1.00  0.00    -0.253 C  
HETATM   24  N   UNL     1     -11.341  10.945  69.963  1.00  0.00    -0.305 NA 
ENDBRANCH  15  16
ENDBRANCH  13  15
ENDBRANCH  10  13
TORSDOF 3
ENDMDL
MODEL       48
REMARK 921   NORMALIZED FREE ENERGY PREDICTED BY IDOCK:   -5.67 KCAL/MOL
REMARK 922        TOTAL FREE ENERGY PREDICTED BY IDOCK:   -7.30 KCAL/MOL
REMARK 923 INTER-LIGAND FREE ENERGY PREDICTED BY IDOCK:   -6.82 KCAL/MOL
REMARK 924 INTRA-LIGAND FREE ENERGY PREDICTED BY IDOCK:   -0.49 KCAL/MOL
REMARK 927      BINDING AFFINITY PREDICTED BY RF-SCORE:    0.00 PKD
ROOT
HETATM    1  O   UNL     1      -8.258   7.234  72.883  1.00  0.00    -0.103 OA 
HETATM    2  C   UNL     1      -9.488   7.502  72.226  1.00  0.00    -0.153 C  
HETATM    3  H   UNL     1      -7.544   7.267  72.257  1.00  0.00     0.000 HD 
HETATM    4  C   UNL     1     -10.644   7.448  73.240  1.00  0.00    -0.442 C  
HETATM    5  C   UNL     1     -11.978   7.730  72.532  1.00  0.00    -0.304 C  
HETATM    6  C   UNL     1     -12.195   6.694  71.418  1.00  0.00    -0.378 C  
HETATM    7  C   UNL     1     -11.047   6.768  70.399  1.00  0.00    -0.357 C  
HETATM    8  C   UNL     1     -10.991   8.186  69.794  1.00  0.00    -0.133 C  
HETATM    9  C   UNL     1      -9.723   6.469  71.115  1.00  0.00    -0.188 C  
HETATM   10  C   UNL     1     -10.761   9.254  70.903  1.00  0.00    -0.301 C  
HETATM   11  C   UNL     1      -9.426   8.909  71.609  1.00  0.00    -0.351 C  
HETATM   12  C   UNL     1     -11.930   9.138  71.915  1.00  0.00    -0.443 C  
ENDROOT
BRANCH  10  13
HETATM   13  N   UNL     1     -10.724  10.578  70.249  1.00  0.00    -0.454 NA 
HETATM   14  H   UNL     1      -9.948  10.627  69.589  1.00  0.00     0.000 HD 
BRANCH  13  15
HETATM   15  C   UNL     1     -11.985  10.968  69.590  1.00  0.00    -0.353 C  
BRANCH  15  16
HETATM   16  C   UNL     1     -11.996  12.463  69.255  1.00  0.00    -0.253 C  
HETATM   17  O   UNL     1     -12.145  13.296  70.152  1.00  0.00    -0.336 OA 
HETATM   18  N   UNL     1     -11.798  12.846  67.944  1.00  0.00    -0.353 N  
HETATM   19  C   UNL     1     -11.712  14.242  67.571  1.00  0.00    -0.384 C  
HETATM   20  C   UNL     1     -12.313  14.274  66.182  1.00  0.00    -0.411 C  
HETATM   21  C   UNL     1     -11.903  12.935  65.571  1.00  0.00    -0.455 C  
HETATM   22  C   UNL     1     -11.698  11.981  66.764  1.00  0.00    -0.264 C  
HETATM   23  C   UNL     1     -10.387  11.305  66.667  1.00  0.00    -0.237 C  
HETATM   24  N   UNL     1      -9.345  10.796  66.584  1.00  0.00    -0.164 NA 
ENDBRANCH  15  16
ENDBRANCH  13  15
ENDBRANCH  10  13
TORSDOF 3
ENDMDL
MODEL       49
REMARK 921   NORMALIZED FREE ENERGY PREDICTED BY IDOCK:   -5.66 KCAL/MOL
REMARK 922        TOTAL FREE ENERGY PREDICTED BY IDOCK:   -7.30 KCAL/MOL
REMARK 923 INTER-LIGAND FREE ENERGY PREDICTED BY IDOCK:   -6.96 KCAL/MOL
REMARK 924 INTRA-LIGAND FREE ENERGY PREDICTED BY IDOCK:   -0.34 KCAL/MOL
REMARK 927      BINDING AFFINITY PREDICTED BY RF-SCORE:    0.00 PKD
ROOT
HETATM    1  O   UNL     1     -11.401  11.182  62.722  1.00  0.00    -0.683 OA 
HETATM    2  C   UNL     1     -11.325  11.806  63.996  1.00  0.00    -0.381 C  
HETATM    3  H   UNL     1     -11.782  11.780  62.091  1.00  0.00     0.000 HD 
HETATM    4  C   UNL     1     -10.707  10.837  65.017  1.00  0.00    -0.160 C  
HETATM    5  C   UNL     1     -10.632  11.505  66.398  1.00  0.00    -0.304 C  
HETATM    6  C   UNL     1     -12.041  11.923  66.842  1.00  0.00     0.248 C  
HETATM    7  C   UNL     1     -12.644  12.908  65.828  1.00  0.00    -0.174 C  
HETATM    8  C   UNL     1     -11.736  14.151  65.720  1.00  0.00    -0.360 C  
HETATM    9  C   UNL     1     -12.729  12.222  64.457  1.00  0.00    -0.336 C  
HETATM   10  C   UNL     1     -10.303  13.754  65.261  1.00  0.00    -0.361 C  
HETATM   11  C   UNL     1     -10.435  13.055  63.885  1.00  0.00    -0.241 C  
HETATM   12  C   UNL     1      -9.737  12.753  66.302  1.00  0.00    -0.262 C  
ENDROOT
BRANCH  10  13
HETATM   13  N   UNL     1      -9.499  14.991  65.188  1.00  0.00    -0.225 NA 
HETATM   14  H   UNL     1      -9.782  15.552  64.385  1.00  0.00     0.000 HD 
BRANCH  13  15
HETATM   15  C   UNL     1      -9.518  15.806  66.418  1.00  0.00    -0.297 C  
BRANCH  15  16
HETATM   16  C   UNL     1     -10.180  17.165  66.172  1.00  0.00    -0.334 C  
HETATM   17  O   UNL     1     -10.652  17.430  65.064  1.00  0.00    -0.617 OA 
HETATM   18  N   UNL     1     -10.268  18.055  67.223  1.00  0.00    -0.348 N  
HETATM   19  C   UNL     1     -10.955  19.321  67.083  1.00  0.00    -0.336 C  
HETATM   20  C   UNL     1     -10.179  20.247  67.995  1.00  0.00    -0.424 C  
HETATM   21  C   UNL     1      -9.736  19.346  69.147  1.00  0.00    -0.404 C  
HETATM   22  C   UNL     1      -9.681  17.921  68.560  1.00  0.00    -0.351 C  
HETATM   23  C   UNL     1     -10.434  16.980  69.417  1.00  0.00    -0.250 C  
HETATM   24  N   UNL     1     -11.044  16.257  70.093  1.00  0.00    -0.361 NA 
ENDBRANCH  15  16
ENDBRANCH  13  15
ENDBRANCH  10  13
TORSDOF 3
ENDMDL
MODEL       50
REMARK 921   NORMALIZED FREE ENERGY PREDICTED BY IDOCK:   -5.63 KCAL/MOL
REMARK 922        TOTAL FREE ENERGY PREDICTED BY IDOCK:   -7.26 KCAL/MOL
REMARK 923 INTER-LIGAND FREE ENERGY PREDICTED BY IDOCK:   -6.79 KCAL/MOL
REMARK 924 INTRA-LIGAND FREE ENERGY PREDICTED BY IDOCK:   -0.47 KCAL/MOL
REMARK 927      BINDING AFFINITY PREDICTED BY RF-SCORE:    0.00 PKD
ROOT
HETATM    1  O   UNL     1     -12.449  14.139  68.726  1.00  0.00    -0.542 OA 
HETATM    2  C   UNL     1     -11.698  14.270  67.527  1.00  0.00    -0.384 C  
HETATM    3  H   UNL     1     -11.987  14.556  69.443  1.00  0.00     0.000 HD 
HETATM    4  C   UNL     1     -12.446  13.593  66.365  1.00  0.00    -0.377 C  
HETATM    5  C   UNL     1     -11.634  13.726  65.068  1.00  0.00    -0.350 C  
HETATM    6  C   UNL     1     -10.253  13.082  65.262  1.00  0.00    -0.294 C  
HETATM    7  C   UNL     1      -9.503  13.778  66.410  1.00  0.00    -0.259 C  
HETATM    8  C   UNL     1      -9.344  15.277  66.083  1.00  0.00    -0.360 C  
HETATM    9  C   UNL     1     -10.317  13.623  67.702  1.00  0.00    -0.239 C  
HETATM   10  C   UNL     1     -10.732  15.954  65.893  1.00  0.00    -0.296 C  
HETATM   11  C   UNL     1     -11.525  15.765  67.210  1.00  0.00     0.032 C  
HETATM   12  C   UNL     1     -11.459  15.217  64.737  1.00  0.00    -0.364 C  
ENDROOT
BRANCH  10  13
HETATM   13  N   UNL     1     -10.496  17.378  65.579  1.00  0.00    -0.638 NA 
HETATM   14  H   UNL     1     -11.285  17.764  65.060  1.00  0.00     0.000 HD 
BRANCH  13  15
HETATM   15  C   UNL     1     -10.193  18.220  66.754  1.00  0.00    -0.378 C  
BRANCH  15  16
HETATM   16  C   UNL     1      -9.431  19.484  66.347  1.00  0.00    -0.386 C  
HETATM   17  O   UNL     1     -10.028  20.558  66.240  1.00  0.00    -0.309 OA 
HETATM   18  N   UNL     1      -8.069  19.396  66.145  1.00  0.00    -0.324 N  
HETATM   19  C   UNL     1      -7.274  20.568  65.842  1.00  0.00    -0.102 C  
HETATM   20  C   UNL     1      -6.185  20.032  64.938  1.00  0.00    -0.316 C  
HETATM   21  C   UNL     1      -5.925  18.622  65.468  1.00  0.00    -0.268 C  
HETATM   22  C   UNL     1      -7.240  18.187  66.145  1.00  0.00    -0.281 C  
HETATM   23  C   UNL     1      -6.975  17.682  67.510  1.00  0.00    -0.168 C  
HETATM   24  N   UNL     1      -6.752  17.305  68.587  1.00  0.00    -0.182 NA 
ENDBRANCH  15  16
ENDBRANCH  13  15
ENDBRANCH  10  13
TORSDOF 3
ENDMDL
MODEL       51
REMARK 921   NORMALIZED FREE ENERGY PREDICTED BY IDOCK:   -5.59 KCAL/MOL
REMARK 922        TOTAL FREE ENERGY PREDICTED BY IDOCK:   -7.21 KCAL/MOL
REMARK 923 INTER-LIGAND FREE ENERGY PREDICTED BY IDOCK:   -6.78 KCAL/MOL
REMARK 924 INTRA-LIGAND FREE ENERGY PREDICTED BY IDOCK:   -0.43 KCAL/MOL
REMARK 927      BINDING AFFINITY PREDICTED BY RF-SCORE:    0.00 PKD
ROOT
HETATM    1  O   UNL     1     -12.268  15.420  67.901  1.00  0.00    -0.344 OA 
HETATM    2  C   UNL     1     -11.537  14.243  67.587  1.00  0.00    -0.368 C  
HETATM    3  H   UNL     1     -13.137  15.188  68.207  1.00  0.00     0.000 HD 
HETATM    4  C   UNL     1     -10.130  14.619  67.093  1.00  0.00    -0.244 C  
HETATM    5  C   UNL     1      -9.339  13.349  66.744  1.00  0.00    -0.260 C  
HETATM    6  C   UNL     1     -10.092  12.557  65.664  1.00  0.00    -0.285 C  
HETATM    7  C   UNL     1     -11.489  12.168  66.173  1.00  0.00    -0.429 C  
HETATM    8  C   UNL     1     -11.348  11.313  67.449  1.00  0.00    -0.349 C  
HETATM    9  C   UNL     1     -12.274  13.445  66.502  1.00  0.00    -0.414 C  
HETATM   10  C   UNL     1     -10.597  12.098  68.564  1.00  0.00    -0.233 C  
HETATM   11  C   UNL     1     -11.411  13.383  68.855  1.00  0.00    -0.347 C  
HETATM   12  C   UNL     1      -9.200  12.482  68.007  1.00  0.00    -0.204 C  
ENDROOT
BRANCH  10  13
HETATM   13  N   UNL     1     -10.498  11.216  69.744  1.00  0.00    -0.437 NA 
HETATM   14  H   UNL     1     -11.132  11.532  70.478  1.00  0.00     0.000 HD 
BRANCH  13  15
HETATM   15  C   UNL     1     -10.717   9.785  69.457  1.00  0.00    -0.233 C  
BRANCH  15  16
HETATM   16  C   UNL     1     -11.659   9.151  70.485  1.00  0.00    -0.197 C  
HETATM   17  O   UNL     1     -12.514   9.839  71.046  1.00  0.00    -0.312 OA 
HETATM   18  N   UNL     1     -11.550   7.797  70.732  1.00  0.00    -0.280 N  
HETATM   19  C   UNL     1     -12.463   7.119  71.627  1.00  0.00    -0.370 C  
HETATM   20  C   UNL     1     -11.608   6.034  72.247  1.00  0.00    -0.359 C  
HETATM   21  C   UNL     1     -10.649   5.633  71.127  1.00  0.00    -0.312 C  
HETATM   22  C   UNL     1     -10.535   6.872  70.216  1.00  0.00    -0.204 C  
HETATM   23  C   UNL     1     -10.773   6.500  68.805  1.00  0.00    -0.272 C  
HETATM   24  N   UNL     1     -10.980   6.194  67.703  1.00  0.00    -0.331 NA 
ENDBRANCH  15  16
ENDBRANCH  13  15
ENDBRANCH  10  13
TORSDOF 3
ENDMDL
MODEL       52
REMARK 921   NORMALIZED FREE ENERGY PREDICTED BY IDOCK:   -5.54 KCAL/MOL
REMARK 922        TOTAL FREE ENERGY PREDICTED BY IDOCK:   -7.16 KCAL/MOL
REMARK 923 INTER-LIGAND FREE ENERGY PREDICTED BY IDOCK:   -6.61 KCAL/MOL
REMARK 924 INTRA-LIGAND FREE ENERGY PREDICTED BY IDOCK:   -0.55 KCAL/MOL
REMARK 927      BINDING AFFINITY PREDICTED BY RF-SCORE:    0.00 PKD
ROOT
HETATM    1  O   UNL     1     -12.318  15.678  68.530  1.00  0.00    -0.489 OA 
HETATM    2  C   UNL     1     -11.517  14.806  67.745  1.00  0.00    -0.345 C  
HETATM    3  H   UNL     1     -12.887  15.171  69.096  1.00  0.00     0.000 HD 
HETATM    4  C   UNL     1     -10.595  15.626  66.827  1.00  0.00    -0.307 C  
HETATM    5  C   UNL     1      -9.733  14.686  65.971  1.00  0.00    -0.340 C  
HETATM    6  C   UNL     1     -10.645  13.774  65.136  1.00  0.00    -0.385 C  
HETATM    7  C   UNL     1     -11.547  12.942  66.061  1.00  0.00    -0.424 C  
HETATM    8  C   UNL     1     -10.670  12.091  67.002  1.00  0.00    -0.280 C  
HETATM    9  C   UNL     1     -12.415  13.893  66.898  1.00  0.00    -0.201 C  
HETATM   10  C   UNL     1      -9.744  12.994  67.867  1.00  0.00    -0.218 C  
HETATM   11  C   UNL     1     -10.655  13.944  68.683  1.00  0.00    -0.265 C  
HETATM   12  C   UNL     1      -8.860  13.823  66.898  1.00  0.00    -0.203 C  
ENDROOT
BRANCH  10  13
HETATM   13  N   UNL     1      -8.937  12.109  68.732  1.00  0.00    -0.383 NA 
HETATM   14  H   UNL     1      -9.016  12.397  69.707  1.00  0.00     0.000 HD 
BRANCH  13  15
HETATM   15  C   UNL     1      -9.245  10.672  68.593  1.00  0.00    -0.181 C  
BRANCH  15  16
HETATM   16  C   UNL     1      -8.901   9.905  69.873  1.00  0.00    -0.195 C  
HETATM   17  O   UNL     1      -7.723   9.704  70.174  1.00  0.00    -0.135 OA 
HETATM   18  N   UNL     1      -9.933   9.486  70.687  1.00  0.00    -0.279 N  
HETATM   19  C   UNL     1      -9.677   8.831  71.953  1.00  0.00    -0.316 C  
HETATM   20  C   UNL     1     -10.836   7.868  72.093  1.00  0.00    -0.327 C  
HETATM   21  C   UNL     1     -12.007   8.601  71.440  1.00  0.00    -0.355 C  
HETATM   22  C   UNL     1     -11.373   9.570  70.422  1.00  0.00    -0.264 C  
HETATM   23  C   UNL     1     -11.905  10.938  70.610  1.00  0.00    -0.352 C  
HETATM   24  N   UNL     1     -12.320  12.010  70.782  1.00  0.00    -0.362 NA 
ENDBRANCH  15  16
ENDBRANCH  13  15
ENDBRANCH  10  13
TORSDOF 3
ENDMDL
MODEL       53
REMARK 921   NORMALIZED FREE ENERGY PREDICTED BY IDOCK:   -5.54 KCAL/MOL
REMARK 922        TOTAL FREE ENERGY PREDICTED BY IDOCK:   -7.15 KCAL/MOL
REMARK 923 INTER-LIGAND FREE ENERGY PREDICTED BY IDOCK:   -6.73 KCAL/MOL
REMARK 924 INTRA-LIGAND FREE ENERGY PREDICTED BY IDOCK:   -0.42 KCAL/MOL
REMARK 927      BINDING AFFINITY PREDICTED BY RF-SCORE:    0.00 PKD
ROOT
HETATM    1  O   UNL     1     -11.872  16.480  73.977  1.00  0.00    -0.250 OA 
HETATM    2  C   UNL     1     -12.392  15.646  72.951  1.00  0.00    -0.447 C  
HETATM    3  H   UNL     1     -10.991  16.206  74.200  1.00  0.00     0.000 HD 
HETATM    4  C   UNL     1     -13.820  16.091  72.590  1.00  0.00    -0.337 C  
HETATM    5  C   UNL     1     -14.389  15.186  71.487  1.00  0.00    -0.660 C  
HETATM    6  C   UNL     1     -14.390  13.728  71.971  1.00  0.00    -0.392 C  
HETATM    7  C   UNL     1     -12.957  13.285  72.309  1.00  0.00    -0.376 C  
HETATM    8  C   UNL     1     -12.070  13.423  71.056  1.00  0.00    -0.192 C  
HETATM    9  C   UNL     1     -12.407  14.186  73.424  1.00  0.00     0.249 C  
HETATM   10  C   UNL     1     -12.044  14.895  70.552  1.00  0.00    -0.320 C  
HETATM   11  C   UNL     1     -11.497  15.771  71.707  1.00  0.00    -0.484 C  
HETATM   12  C   UNL     1     -13.506  15.307  70.234  1.00  0.00     0.167 C  
ENDROOT
BRANCH  10  13
HETATM   13  N   UNL     1     -11.182  14.944  69.354  1.00  0.00    -0.268 NA 
HETATM   14  H   UNL     1     -10.982  14.001  69.022  1.00  0.00     0.000 HD 
BRANCH  13  15
HETATM   15  C   UNL     1     -11.710  15.775  68.255  1.00  0.00    -0.222 C  
BRANCH  15  16
HETATM   16  C   UNL     1     -10.898  15.579  66.972  1.00  0.00    -0.314 C  
HETATM   17  O   UNL     1      -9.958  16.334  66.714  1.00  0.00    -0.244 OA 
HETATM   18  N   UNL     1     -11.220  14.523  66.144  1.00  0.00    -0.334 N  
HETATM   19  C   UNL     1     -10.440  14.229  64.959  1.00  0.00    -0.435 C  
HETATM   20  C   UNL     1     -11.465  13.677  63.991  1.00  0.00    -0.303 C  
HETATM   21  C   UNL     1     -12.452  12.927  64.884  1.00  0.00    -0.540 C  
HETATM   22  C   UNL     1     -12.355  13.602  66.266  1.00  0.00    -0.412 C  
HETATM   23  C   UNL     1     -12.150  12.589  67.324  1.00  0.00    -0.062 C  
HETATM   24  N   UNL     1     -11.972  11.781  68.140  1.00  0.00    -0.557 NA 
ENDBRANCH  15  16
ENDBRANCH  13  15
ENDBRANCH  10  13
TORSDOF 3
ENDMDL
MODEL       54
REMARK 921   NORMALIZED FREE ENERGY PREDICTED BY IDOCK:   -5.54 KCAL/MOL
REMARK 922        TOTAL FREE ENERGY PREDICTED BY IDOCK:   -7.15 KCAL/MOL
REMARK 923 INTER-LIGAND FREE ENERGY PREDICTED BY IDOCK:   -6.73 KCAL/MOL
REMARK 924 INTRA-LIGAND FREE ENERGY PREDICTED BY IDOCK:   -0.42 KCAL/MOL
REMARK 927      BINDING AFFINITY PREDICTED BY RF-SCORE:    0.00 PKD
ROOT
HETATM    1  O   UNL     1      -7.449  10.066  70.672  1.00  0.00    -0.348 OA 
HETATM    2  C   UNL     1      -8.682   9.432  70.362  1.00  0.00    -0.240 C  
HETATM    3  H   UNL     1      -6.985  10.279  69.872  1.00  0.00     0.000 HD 
HETATM    4  C   UNL     1      -9.433   9.088  71.659  1.00  0.00    -0.293 C  
HETATM    5  C   UNL     1     -10.763   8.394  71.328  1.00  0.00    -0.286 C  
HETATM    6  C   UNL     1     -10.487   7.120  70.515  1.00  0.00    -0.228 C  
HETATM    7  C   UNL     1      -9.755   7.474  69.211  1.00  0.00    -0.163 C  
HETATM    8  C   UNL     1     -10.622   8.447  68.386  1.00  0.00    -0.155 C  
HETATM    9  C   UNL     1      -8.421   8.151  69.557  1.00  0.00    -0.127 C  
HETATM   10  C   UNL     1     -10.907   9.752  69.184  1.00  0.00    -0.207 C  
HETATM   11  C   UNL     1      -9.539  10.395  69.524  1.00  0.00    -0.182 C  
HETATM   12  C   UNL     1     -11.633   9.350  70.494  1.00  0.00    -0.291 C  
ENDROOT
BRANCH  10  13
HETATM   13  N   UNL     1     -11.741  10.624  68.333  1.00  0.00    -0.701 NA 
HETATM   14  H   UNL     1     -12.704  10.634  68.670  1.00  0.00     0.000 HD 
BRANCH  13  15
HETATM   15  C   UNL     1     -11.234  12.003  68.188  1.00  0.00    -0.260 C  
BRANCH  15  16
HETATM   16  C   UNL     1     -11.588  12.583  66.816  1.00  0.00    -0.382 C  
HETATM   17  O   UNL     1     -12.136  11.874  65.969  1.00  0.00    -0.500 OA 
HETATM   18  N   UNL     1     -11.315  13.913  66.572  1.00  0.00    -0.321 N  
HETATM   19  C   UNL     1     -11.700  14.546  65.328  1.00  0.00    -0.361 C  
HETATM   20  C   UNL     1     -10.607  15.569  65.100  1.00  0.00    -0.455 C  
HETATM   21  C   UNL     1     -10.229  16.027  66.508  1.00  0.00    -0.301 C  
HETATM   22  C   UNL     1     -10.592  14.852  67.437  1.00  0.00    -0.263 C  
HETATM   23  C   UNL     1     -11.415  15.325  68.571  1.00  0.00    -0.342 C  
HETATM   24  N   UNL     1     -12.075  15.710  69.447  1.00  0.00    -0.328 NA 
ENDBRANCH  15  16
ENDBRANCH  13  15
ENDBRANCH  10  13
TORSDOF 3
ENDMDL
MODEL       55
REMARK 921   NORMALIZED FREE ENERGY PREDICTED BY IDOCK:   -5.52 KCAL/MOL
REMARK 922        TOTAL FREE ENERGY PREDICTED BY IDOCK:   -7.13 KCAL/MOL
REMARK 923 INTER-LIGAND FREE ENERGY PREDICTED BY IDOCK:   -6.73 KCAL/MOL
REMARK 924 INTRA-LIGAND FREE ENERGY PREDICTED BY IDOCK:   -0.40 KCAL/MOL
REMARK 927      BINDING AFFINITY PREDICTED BY RF-SCORE:    0.00 PKD
ROOT
HETATM    1  O   UNL     1     -11.411   5.978  69.257  1.00  0.00    -0.384 OA 
HETATM    2  C   UNL     1     -11.146   6.972  70.237  1.00  0.00    -0.285 C  
HETATM    3  H   UNL     1     -12.200   6.200  68.778  1.00  0.00     0.000 HD 
HETATM    4  C   UNL     1      -9.868   6.613  71.013  1.00  0.00    -0.196 C  
HETATM    5  C   UNL     1      -9.583   7.681  72.080  1.00  0.00    -0.207 C  
HETATM    6  C   UNL     1     -10.780   7.781  73.037  1.00  0.00    -0.446 C  
HETATM    7  C   UNL     1     -12.049   8.160  72.257  1.00  0.00    -0.419 C  
HETATM    8  C   UNL     1     -11.828   9.512  71.549  1.00  0.00    -0.478 C  
HETATM    9  C   UNL     1     -12.331   7.077  71.207  1.00  0.00    -0.426 C  
HETATM   10  C   UNL     1     -10.626   9.434  70.564  1.00  0.00    -0.271 C  
HETATM   11  C   UNL     1     -10.943   8.324  69.532  1.00  0.00    -0.051 C  
HETATM   12  C   UNL     1      -9.371   9.038  71.387  1.00  0.00    -0.310 C  
ENDROOT
BRANCH  10  13
HETATM   13  N   UNL     1     -10.477  10.761  69.933  1.00  0.00    -0.451 NA 
HETATM   14  H   UNL     1      -9.775  10.727  69.194  1.00  0.00     0.000 HD 
BRANCH  13  15
HETATM   15  C   UNL     1     -11.735  11.338  69.420  1.00  0.00    -0.339 C  
BRANCH  15  16
HETATM   16  C   UNL     1     -11.950  12.758  69.953  1.00  0.00    -0.298 C  
HETATM   17  O   UNL     1     -12.636  12.942  70.961  1.00  0.00    -0.366 OA 
HETATM   18  N   UNL     1     -11.332  13.806  69.303  1.00  0.00    -0.268 N  
HETATM   19  C   UNL     1     -11.424  15.163  69.802  1.00  0.00    -0.297 C  
HETATM   20  C   UNL     1     -11.400  16.004  68.543  1.00  0.00    -0.382 C  
HETATM   21  C   UNL     1     -10.483  15.229  67.598  1.00  0.00    -0.263 C  
HETATM   22  C   UNL     1     -10.567  13.759  68.052  1.00  0.00    -0.252 C  
HETATM   23  C   UNL     1      -9.212  13.196  68.238  1.00  0.00    -0.194 C  
HETATM   24  N   UNL     1      -8.140  12.775  68.396  1.00  0.00    -0.148 NA 
ENDBRANCH  15  16
ENDBRANCH  13  15
ENDBRANCH  10  13
TORSDOF 3
ENDMDL
MODEL       56
REMARK 921   NORMALIZED FREE ENERGY PREDICTED BY IDOCK:   -5.51 KCAL/MOL
REMARK 922        TOTAL FREE ENERGY PREDICTED BY IDOCK:   -7.12 KCAL/MOL
REMARK 923 INTER-LIGAND FREE ENERGY PREDICTED BY IDOCK:   -6.61 KCAL/MOL
REMARK 924 INTRA-LIGAND FREE ENERGY PREDICTED BY IDOCK:   -0.51 KCAL/MOL
REMARK 927      BINDING AFFINITY PREDICTED BY RF-SCORE:    0.00 PKD
ROOT
HETATM    1  O   UNL     1     -11.272  16.822  70.220  1.00  0.00    -0.466 OA 
HETATM    2  C   UNL     1     -10.687  16.126  69.128  1.00  0.00    -0.292 C  
HETATM    3  H   UNL     1     -12.209  16.901  70.087  1.00  0.00     0.000 HD 
HETATM    4  C   UNL     1      -9.170  15.998  69.343  1.00  0.00    -0.202 C  
HETATM    5  C   UNL     1      -8.532  15.253  68.160  1.00  0.00    -0.151 C  
HETATM    6  C   UNL     1      -8.826  16.014  66.858  1.00  0.00    -0.258 C  
HETATM    7  C   UNL     1     -10.344  16.119  66.640  1.00  0.00    -0.297 C  
HETATM    8  C   UNL     1     -10.950  14.703  66.570  1.00  0.00    -0.318 C  
HETATM    9  C   UNL     1     -10.965  16.880  67.820  1.00  0.00    -0.212 C  
HETATM   10  C   UNL     1     -10.675  13.915  67.884  1.00  0.00    -0.240 C  
HETATM   11  C   UNL     1     -11.304  14.720  69.048  1.00  0.00    -0.295 C  
HETATM   12  C   UNL     1      -9.137  13.842  68.073  1.00  0.00    -0.191 C  
ENDROOT
BRANCH  10  13
HETATM   13  N   UNL     1     -11.279  12.575  67.737  1.00  0.00    -0.252 NA 
HETATM   14  H   UNL     1     -10.571  11.894  67.460  1.00  0.00     0.000 HD 
BRANCH  13  15
HETATM   15  C   UNL     1     -12.010  12.101  68.928  1.00  0.00    -0.242 C  
BRANCH  15  16
HETATM   16  C   UNL     1     -11.238  10.989  69.645  1.00  0.00    -0.278 C  
HETATM   17  O   UNL     1     -10.093  10.702  69.289  1.00  0.00    -0.217 OA 
HETATM   18  N   UNL     1     -11.839  10.352  70.712  1.00  0.00    -0.340 N  
HETATM   19  C   UNL     1     -11.136   9.352  71.487  1.00  0.00    -0.376 C  
HETATM   20  C   UNL     1     -12.232   8.395  71.906  1.00  0.00    -0.395 C  
HETATM   21  C   UNL     1     -13.453   9.293  72.101  1.00  0.00    -0.539 C  
HETATM   22  C   UNL     1     -13.215  10.517  71.193  1.00  0.00    -0.269 C  
HETATM   23  C   UNL     1     -13.402  11.770  71.956  1.00  0.00    -0.312 C  
HETATM   24  N   UNL     1     -13.536  12.745  72.574  1.00  0.00    -0.472 NA 
ENDBRANCH  15  16
ENDBRANCH  13  15
ENDBRANCH  10  13
TORSDOF 3
ENDMDL
MODEL       57
REMARK 921   NORMALIZED FREE ENERGY PREDICTED BY IDOCK:   -5.50 KCAL/MOL
REMARK 922        TOTAL FREE ENERGY PREDICTED BY IDOCK:   -7.11 KCAL/MOL
REMARK 923 INTER-LIGAND FREE ENERGY PREDICTED BY IDOCK:   -6.43 KCAL/MOL
REMARK 924 INTRA-LIGAND FREE ENERGY PREDICTED BY IDOCK:   -0.68 KCAL/MOL
REMARK 927      BINDING AFFINITY PREDICTED BY RF-SCORE:    0.00 PKD
ROOT
HETATM    1  O   UNL     1     -12.825   6.098  72.428  1.00  0.00    -0.519 OA 
HETATM    2  C   UNL     1     -11.554   6.565  72.000  1.00  0.00    -0.311 C  
HETATM    3  H   UNL     1     -13.437   6.823  72.473  1.00  0.00     0.000 HD 
HETATM    4  C   UNL     1     -10.564   5.390  71.926  1.00  0.00    -0.288 C  
HETATM    5  C   UNL     1      -9.185   5.892  71.472  1.00  0.00    -0.157 C  
HETATM    6  C   UNL     1      -8.679   6.958  72.455  1.00  0.00    -0.135 C  
HETATM    7  C   UNL     1      -9.663   8.137  72.507  1.00  0.00    -0.357 C  
HETATM    8  C   UNL     1      -9.804   8.748  71.098  1.00  0.00    -0.313 C  
HETATM    9  C   UNL     1     -11.030   7.625  72.979  1.00  0.00    -0.457 C  
HETATM   10  C   UNL     1     -10.327   7.689  70.084  1.00  0.00    -0.217 C  
HETATM   11  C   UNL     1     -11.698   7.189  70.602  1.00  0.00    -0.348 C  
HETATM   12  C   UNL     1      -9.315   6.513  70.071  1.00  0.00    -0.160 C  
ENDROOT
BRANCH  10  13
HETATM   13  N   UNL     1     -10.430   8.345  68.765  1.00  0.00    -0.295 NA 
HETATM   14  H   UNL     1     -11.408   8.501  68.520  1.00  0.00     0.000 HD 
BRANCH  13  15
HETATM   15  C   UNL     1      -9.665   9.602  68.646  1.00  0.00    -0.155 C  
BRANCH  15  16
HETATM   16  C   UNL     1     -10.264  10.517  67.574  1.00  0.00    -0.206 C  
HETATM   17  O   UNL     1     -10.068  10.280  66.380  1.00  0.00    -0.217 OA 
HETATM   18  N   UNL     1     -11.051  11.576  67.976  1.00  0.00    -0.234 N  
HETATM   19  C   UNL     1     -11.717  12.429  67.014  1.00  0.00    -0.353 C  
HETATM   20  C   UNL     1     -11.726  13.783  67.691  1.00  0.00    -0.402 C  
HETATM   21  C   UNL     1     -11.879  13.455  69.175  1.00  0.00    -0.383 C  
HETATM   22  C   UNL     1     -11.301  12.036  69.346  1.00  0.00    -0.251 C  
HETATM   23  C   UNL     1     -12.259  11.171  70.068  1.00  0.00    -0.326 C  
HETATM   24  N   UNL     1     -13.031  10.501  70.622  1.00  0.00    -0.344 NA 
ENDBRANCH  15  16
ENDBRANCH  13  15
ENDBRANCH  10  13
TORSDOF 3
ENDMDL
MODEL       58
REMARK 921   NORMALIZED FREE ENERGY PREDICTED BY IDOCK:   -5.47 KCAL/MOL
REMARK 922        TOTAL FREE ENERGY PREDICTED BY IDOCK:   -7.08 KCAL/MOL
REMARK 923 INTER-LIGAND FREE ENERGY PREDICTED BY IDOCK:   -6.61 KCAL/MOL
REMARK 924 INTRA-LIGAND FREE ENERGY PREDICTED BY IDOCK:   -0.47 KCAL/MOL
REMARK 927      BINDING AFFINITY PREDICTED BY RF-SCORE:    0.00 PKD
ROOT
HETATM    1  O   UNL     1     -12.638  14.363  68.639  1.00  0.00    -0.542 OA 
HETATM    2  C   UNL     1     -11.706  13.912  67.666  1.00  0.00    -0.368 C  
HETATM    3  H   UNL     1     -13.358  13.747  68.707  1.00  0.00     0.000 HD 
HETATM    4  C   UNL     1     -10.541  14.910  67.557  1.00  0.00    -0.266 C  
HETATM    5  C   UNL     1      -9.535  14.430  66.499  1.00  0.00    -0.309 C  
HETATM    6  C   UNL     1     -10.246  14.288  65.145  1.00  0.00    -0.414 C  
HETATM    7  C   UNL     1     -11.395  13.274  65.257  1.00  0.00    -0.317 C  
HETATM    8  C   UNL     1     -10.832  11.909  65.701  1.00  0.00    -0.333 C  
HETATM    9  C   UNL     1     -12.401  13.774  66.304  1.00  0.00    -0.479 C  
HETATM   10  C   UNL     1     -10.116  12.024  67.078  1.00  0.00    -0.203 C  
HETATM   11  C   UNL     1     -11.157  12.543  68.100  1.00  0.00    -0.282 C  
HETATM   12  C   UNL     1      -8.973  13.063  66.926  1.00  0.00    -0.210 C  
ENDROOT
BRANCH  10  13
HETATM   13  N   UNL     1      -9.602  10.685  67.429  1.00  0.00    -0.157 NA 
HETATM   14  H   UNL     1      -8.595  10.638  67.274  1.00  0.00     0.000 HD 
BRANCH  13  15
HETATM   15  C   UNL     1      -9.932  10.245  68.799  1.00  0.00    -0.179 C  
BRANCH  15  16
HETATM   16  C   UNL     1     -10.622   8.878  68.791  1.00  0.00    -0.157 C  
HETATM   17  O   UNL     1     -10.866   8.315  67.722  1.00  0.00    -0.138 OA 
HETATM   18  N   UNL     1     -10.923   8.285  70.000  1.00  0.00    -0.232 N  
HETATM   19  C   UNL     1     -11.499   6.958  70.067  1.00  0.00    -0.277 C  
HETATM   20  C   UNL     1     -12.383   7.018  71.294  1.00  0.00    -0.426 C  
HETATM   21  C   UNL     1     -11.636   7.952  72.244  1.00  0.00    -0.406 C  
HETATM   22  C   UNL     1     -10.779   8.862  71.341  1.00  0.00    -0.312 C  
HETATM   23  C   UNL     1      -9.375   8.875  71.804  1.00  0.00    -0.234 C  
HETATM   24  N   UNL     1      -8.272   8.860  72.170  1.00  0.00    -0.368 NA 
ENDBRANCH  15  16
ENDBRANCH  13  15
ENDBRANCH  10  13
TORSDOF 3
ENDMDL
MODEL       59
REMARK 921   NORMALIZED FREE ENERGY PREDICTED BY IDOCK:   -5.45 KCAL/MOL
REMARK 922        TOTAL FREE ENERGY PREDICTED BY IDOCK:   -7.05 KCAL/MOL
REMARK 923 INTER-LIGAND FREE ENERGY PREDICTED BY IDOCK:   -6.59 KCAL/MOL
REMARK 924 INTRA-LIGAND FREE ENERGY PREDICTED BY IDOCK:   -0.46 KCAL/MOL
REMARK 927      BINDING AFFINITY PREDICTED BY RF-SCORE:    0.00 PKD
ROOT
HETATM    1  O   UNL     1      -6.605  19.552  66.702  1.00  0.00    -0.187 OA 
HETATM    2  C   UNL     1      -7.900  19.010  66.922  1.00  0.00    -0.245 C  
HETATM    3  H   UNL     1      -5.958  19.044  67.175  1.00  0.00     0.000 HD 
HETATM    4  C   UNL     1      -8.948  19.833  66.154  1.00  0.00    -0.387 C  
HETATM    5  C   UNL     1     -10.351  19.255  66.396  1.00  0.00    -0.558 C  
HETATM    6  C   UNL     1     -10.657  19.269  67.901  1.00  0.00    -0.478 C  
HETATM    7  C   UNL     1      -9.618  18.427  68.659  1.00  0.00    -0.363 C  
HETATM    8  C   UNL     1      -9.649  16.979  68.129  1.00  0.00    -0.266 C  
HETATM    9  C   UNL     1      -8.224  19.025  68.422  1.00  0.00    -0.382 C  
HETATM   10  C   UNL     1      -9.330  16.937  66.606  1.00  0.00    -0.258 C  
HETATM   11  C   UNL     1      -7.926  17.560  66.409  1.00  0.00    -0.320 C  
HETATM   12  C   UNL     1     -10.392  17.806  65.882  1.00  0.00    -0.257 C  
ENDROOT
BRANCH  10  13
HETATM   13  N   UNL     1      -9.383  15.526  66.176  1.00  0.00    -0.322 NA 
HETATM   14  H   UNL     1      -8.609  15.316  65.546  1.00  0.00     0.000 HD 
BRANCH  13  15
HETATM   15  C   UNL     1      -9.425  14.551  67.283  1.00  0.00    -0.217 C  
BRANCH  15  16
HETATM   16  C   UNL     1      -8.483  13.372  67.019  1.00  0.00    -0.125 C  
HETATM   17  O   UNL     1      -7.293  13.450  67.330  1.00  0.00    -0.163 OA 
HETATM   18  N   UNL     1      -9.007  12.221  66.466  1.00  0.00    -0.194 N  
HETATM   19  C   UNL     1      -8.193  11.041  66.268  1.00  0.00    -0.164 C  
HETATM   20  C   UNL     1      -8.774  10.416  65.018  1.00  0.00    -0.195 C  
HETATM   21  C   UNL     1     -10.266  10.732  65.106  1.00  0.00    -0.365 C  
HETATM   22  C   UNL     1     -10.369  12.009  65.964  1.00  0.00    -0.238 C  
HETATM   23  C   UNL     1     -11.351  11.821  67.054  1.00  0.00    -0.321 C  
HETATM   24  N   UNL     1     -12.114  11.651  67.915  1.00  0.00    -0.585 NA 
ENDBRANCH  15  16
ENDBRANCH  13  15
ENDBRANCH  10  13
TORSDOF 3
ENDMDL
MODEL       60
REMARK 921   NORMALIZED FREE ENERGY PREDICTED BY IDOCK:   -5.44 KCAL/MOL
REMARK 922        TOTAL FREE ENERGY PREDICTED BY IDOCK:   -7.04 KCAL/MOL
REMARK 923 INTER-LIGAND FREE ENERGY PREDICTED BY IDOCK:   -6.55 KCAL/MOL
REMARK 924 INTRA-LIGAND FREE ENERGY PREDICTED BY IDOCK:   -0.48 KCAL/MOL
REMARK 927      BINDING AFFINITY PREDICTED BY RF-SCORE:    0.00 PKD
ROOT
HETATM    1  O   UNL     1     -12.520  15.091  68.390  1.00  0.00    -0.529 OA 
HETATM    2  C   UNL     1     -11.788  14.217  67.543  1.00  0.00    -0.401 C  
HETATM    3  H   UNL     1     -13.404  14.764  68.505  1.00  0.00     0.000 HD 
HETATM    4  C   UNL     1     -10.356  14.747  67.358  1.00  0.00    -0.242 C  
HETATM    5  C   UNL     1      -9.563  13.808  66.436  1.00  0.00    -0.285 C  
HETATM    6  C   UNL     1     -10.275  13.702  65.079  1.00  0.00    -0.356 C  
HETATM    7  C   UNL     1     -11.697  13.152  65.271  1.00  0.00    -0.375 C  
HETATM    8  C   UNL     1     -11.623  11.762  65.935  1.00  0.00    -0.200 C  
HETATM    9  C   UNL     1     -12.483  14.107  66.179  1.00  0.00    -0.426 C  
HETATM   10  C   UNL     1     -10.914  11.845  67.319  1.00  0.00    -0.268 C  
HETATM   11  C   UNL     1     -11.728  12.826  68.198  1.00  0.00    -0.392 C  
HETATM   12  C   UNL     1      -9.491  12.415  67.083  1.00  0.00    -0.198 C  
ENDROOT
BRANCH  10  13
HETATM   13  N   UNL     1     -10.878  10.481  67.886  1.00  0.00    -0.260 NA 
HETATM   14  H   UNL     1      -9.961  10.060  67.739  1.00  0.00     0.000 HD 
BRANCH  13  15
HETATM   15  C   UNL     1     -11.259  10.402  69.309  1.00  0.00    -0.248 C  
BRANCH  15  16
HETATM   16  C   UNL     1     -10.174   9.705  70.135  1.00  0.00    -0.264 C  
HETATM   17  O   UNL     1      -8.996  10.056  70.029  1.00  0.00    -0.195 OA 
HETATM   18  N   UNL     1     -10.552   8.714  71.018  1.00  0.00    -0.210 N  
HETATM   19  C   UNL     1      -9.590   8.073  71.890  1.00  0.00    -0.183 C  
HETATM   20  C   UNL     1     -10.117   6.661  72.020  1.00  0.00    -0.198 C  
HETATM   21  C   UNL     1     -11.635   6.826  71.975  1.00  0.00    -0.327 C  
HETATM   22  C   UNL     1     -11.886   8.130  71.190  1.00  0.00    -0.279 C  
HETATM   23  C   UNL     1     -12.800   9.017  71.940  1.00  0.00    -0.387 C  
HETATM   24  N   UNL     1     -13.507   9.710  72.551  1.00  0.00    -0.332 NA 
ENDBRANCH  15  16
ENDBRANCH  13  15
ENDBRANCH  10  13
TORSDOF 3
ENDMDL
MODEL       61
REMARK 921   NORMALIZED FREE ENERGY PREDICTED BY IDOCK:   -5.43 KCAL/MOL
REMARK 922        TOTAL FREE ENERGY PREDICTED BY IDOCK:   -7.03 KCAL/MOL
REMARK 923 INTER-LIGAND FREE ENERGY PREDICTED BY IDOCK:   -6.56 KCAL/MOL
REMARK 924 INTRA-LIGAND FREE ENERGY PREDICTED BY IDOCK:   -0.46 KCAL/MOL
REMARK 927      BINDING AFFINITY PREDICTED BY RF-SCORE:    0.00 PKD
ROOT
HETATM    1  O   UNL     1      -9.253  11.975  64.510  1.00  0.00    -0.408 OA 
HETATM    2  C   UNL     1      -9.735  11.906  65.844  1.00  0.00    -0.238 C  
HETATM    3  H   UNL     1      -9.627  12.729  64.070  1.00  0.00     0.000 HD 
HETATM    4  C   UNL     1      -9.128  10.685  66.557  1.00  0.00    -0.179 C  
HETATM    5  C   UNL     1      -9.653  10.603  67.998  1.00  0.00    -0.167 C  
HETATM    6  C   UNL     1     -11.186  10.505  67.980  1.00  0.00    -0.361 C  
HETATM    7  C   UNL     1     -11.785  11.739  67.285  1.00  0.00    -0.293 C  
HETATM    8  C   UNL     1     -11.348  13.012  68.039  1.00  0.00    -0.327 C  
HETATM    9  C   UNL     1     -11.266  11.799  65.842  1.00  0.00    -0.345 C  
HETATM   10  C   UNL     1      -9.797  13.140  68.062  1.00  0.00    -0.231 C  
HETATM   11  C   UNL     1      -9.314  13.184  66.591  1.00  0.00    -0.242 C  
HETATM   12  C   UNL     1      -9.233  11.873  68.757  1.00  0.00     0.025 C  
ENDROOT
BRANCH  10  13
HETATM   13  N   UNL     1      -9.461  14.373  68.800  1.00  0.00    -0.296 NA 
HETATM   14  H   UNL     1      -8.455  14.429  68.960  1.00  0.00     0.000 HD 
BRANCH  13  15
HETATM   15  C   UNL     1      -9.951  15.615  68.171  1.00  0.00    -0.217 C  
BRANCH  15  16
HETATM   16  C   UNL     1      -8.827  16.646  68.030  1.00  0.00    -0.206 C  
HETATM   17  O   UNL     1      -7.720  16.425  68.526  1.00  0.00    -0.174 OA 
HETATM   18  N   UNL     1      -9.075  17.796  67.308  1.00  0.00    -0.243 N  
HETATM   19  C   UNL     1      -8.034  18.772  67.064  1.00  0.00    -0.245 C  
HETATM   20  C   UNL     1      -8.782  20.087  67.041  1.00  0.00    -0.411 C  
HETATM   21  C   UNL     1     -10.136  19.733  66.429  1.00  0.00    -0.600 C  
HETATM   22  C   UNL     1     -10.353  18.239  66.741  1.00  0.00    -0.384 C  
HETATM   23  C   UNL     1     -10.712  17.501  65.511  1.00  0.00    -0.062 C  
HETATM   24  N   UNL     1     -10.977  16.933  64.532  1.00  0.00    -0.956 NA 
ENDBRANCH  15  16
ENDBRANCH  13  15
ENDBRANCH  10  13
TORSDOF 3
ENDMDL
MODEL       62
REMARK 921   NORMALIZED FREE ENERGY PREDICTED BY IDOCK:   -5.42 KCAL/MOL
REMARK 922        TOTAL FREE ENERGY PREDICTED BY IDOCK:   -7.01 KCAL/MOL
REMARK 923 INTER-LIGAND FREE ENERGY PREDICTED BY IDOCK:   -7.05 KCAL/MOL
REMARK 924 INTRA-LIGAND FREE ENERGY PREDICTED BY IDOCK:    0.03 KCAL/MOL
REMARK 927      BINDING AFFINITY PREDICTED BY RF-SCORE:    0.00 PKD
ROOT
HETATM    1  O   UNL     1     -10.533  10.253  65.981  1.00  0.00    -0.200 OA 
HETATM    2  C   UNL     1     -10.795  11.645  66.090  1.00  0.00    -0.294 C  
HETATM    3  H   UNL     1      -9.940  10.091  65.258  1.00  0.00     0.000 HD 
HETATM    4  C   UNL     1     -11.756  11.906  67.262  1.00  0.00    -0.319 C  
HETATM    5  C   UNL     1     -12.047  13.410  67.377  1.00  0.00    -0.338 C  
HETATM    6  C   UNL     1     -12.658  13.916  66.061  1.00  0.00    -0.467 C  
HETATM    7  C   UNL     1     -11.682  13.670  64.899  1.00  0.00    -0.379 C  
HETATM    8  C   UNL     1     -10.356  14.406  65.180  1.00  0.00    -0.447 C  
HETATM    9  C   UNL     1     -11.414  12.164  64.784  1.00  0.00    -0.377 C  
HETATM   10  C   UNL     1      -9.712  13.903  66.504  1.00  0.00    -0.294 C  
HETATM   11  C   UNL     1      -9.469  12.380  66.353  1.00  0.00    -0.240 C  
HETATM   12  C   UNL     1     -10.730  14.157  67.647  1.00  0.00    -0.260 C  
ENDROOT
BRANCH  10  13
HETATM   13  N   UNL     1      -8.456  14.653  66.705  1.00  0.00    -0.429 NA 
HETATM   14  H   UNL     1      -7.715  14.273  66.115  1.00  0.00     0.000 HD 
BRANCH  13  15
HETATM   15  C   UNL     1      -8.576  16.111  66.501  1.00  0.00    -0.306 C  
BRANCH  15  16
HETATM   16  C   UNL     1      -8.813  16.837  67.829  1.00  0.00    -0.208 C  
HETATM   17  O   UNL     1      -8.828  16.203  68.886  1.00  0.00    -0.222 OA 
HETATM   18  N   UNL     1      -8.967  18.209  67.810  1.00  0.00    -0.260 N  
HETATM   19  C   UNL     1      -9.110  18.968  69.035  1.00  0.00    -0.199 C  
HETATM   20  C   UNL     1     -10.020  20.110  68.638  1.00  0.00    -0.343 C  
HETATM   21  C   UNL     1      -9.635  20.404  67.189  1.00  0.00    -0.587 C  
HETATM   22  C   UNL     1      -9.062  19.083  66.637  1.00  0.00    -0.329 C  
HETATM   23  C   UNL     1      -7.750  19.316  65.996  1.00  0.00    -0.277 C  
HETATM   24  N   UNL     1      -6.712  19.514  65.512  1.00  0.00    -0.271 NA 
ENDBRANCH  15  16
ENDBRANCH  13  15
ENDBRANCH  10  13
TORSDOF 3
ENDMDL
MODEL       63
REMARK 921   NORMALIZED FREE ENERGY PREDICTED BY IDOCK:   -5.41 KCAL/MOL
REMARK 922        TOTAL FREE ENERGY PREDICTED BY IDOCK:   -7.00 KCAL/MOL
REMARK 923 INTER-LIGAND FREE ENERGY PREDICTED BY IDOCK:   -6.55 KCAL/MOL
REMARK 924 INTRA-LIGAND FREE ENERGY PREDICTED BY IDOCK:   -0.45 KCAL/MOL
REMARK 927      BINDING AFFINITY PREDICTED BY RF-SCORE:    0.00 PKD
ROOT
HETATM    1  O   UNL     1      -9.034   9.820  67.611  1.00  0.00    -0.128 OA 
HETATM    2  C   UNL     1      -9.686  11.057  67.363  1.00  0.00    -0.168 C  
HETATM    3  H   UNL     1      -8.105   9.903  67.430  1.00  0.00     0.000 HD 
HETATM    4  C   UNL     1     -11.190  10.922  67.657  1.00  0.00    -0.379 C  
HETATM    5  C   UNL     1     -11.901  12.256  67.382  1.00  0.00    -0.327 C  
HETATM    6  C   UNL     1     -11.676  12.663  65.918  1.00  0.00    -0.470 C  
HETATM    7  C   UNL     1     -10.173  12.816  65.638  1.00  0.00    -0.292 C  
HETATM    8  C   UNL     1      -9.584  13.888  66.579  1.00  0.00    -0.299 C  
HETATM    9  C   UNL     1      -9.478  11.473  65.900  1.00  0.00    -0.251 C  
HETATM   10  C   UNL     1      -9.790  13.492  68.070  1.00  0.00    -0.238 C  
HETATM   11  C   UNL     1      -9.087  12.129  68.289  1.00  0.00    -0.191 C  
HETATM   12  C   UNL     1     -11.315  13.336  68.307  1.00  0.00    -0.335 C  
ENDROOT
BRANCH  10  13
HETATM   13  N   UNL     1      -9.207  14.564  68.902  1.00  0.00    -0.323 NA 
HETATM   14  H   UNL     1      -8.403  14.213  69.422  1.00  0.00     0.000 HD 
BRANCH  13  15
HETATM   15  C   UNL     1      -8.845  15.786  68.158  1.00  0.00    -0.178 C  
BRANCH  15  16
HETATM   16  C   UNL     1      -9.774  16.950  68.518  1.00  0.00    -0.264 C  
HETATM   17  O   UNL     1     -10.872  16.727  69.033  1.00  0.00    -0.319 OA 
HETATM   18  N   UNL     1      -9.336  18.238  68.288  1.00  0.00    -0.298 N  
HETATM   19  C   UNL     1     -10.127  19.385  68.681  1.00  0.00    -0.428 C  
HETATM   20  C   UNL     1      -9.803  20.416  67.622  1.00  0.00    -0.538 C  
HETATM   21  C   UNL     1      -8.341  20.144  67.274  1.00  0.00    -0.394 C  
HETATM   22  C   UNL     1      -8.107  18.657  67.607  1.00  0.00    -0.247 C  
HETATM   23  C   UNL     1      -6.907  18.500  68.457  1.00  0.00    -0.264 C  
HETATM   24  N   UNL     1      -5.971  18.396  69.138  1.00  0.00    -0.219 NA 
ENDBRANCH  15  16
ENDBRANCH  13  15
ENDBRANCH  10  13
TORSDOF 3
ENDMDL
MODEL       64
REMARK 921   NORMALIZED FREE ENERGY PREDICTED BY IDOCK:   -5.40 KCAL/MOL
REMARK 922        TOTAL FREE ENERGY PREDICTED BY IDOCK:   -6.99 KCAL/MOL
REMARK 923 INTER-LIGAND FREE ENERGY PREDICTED BY IDOCK:   -6.51 KCAL/MOL
REMARK 924 INTRA-LIGAND FREE ENERGY PREDICTED BY IDOCK:   -0.48 KCAL/MOL
REMARK 927      BINDING AFFINITY PREDICTED BY RF-SCORE:    0.00 PKD
ROOT
HETATM    1  O   UNL     1      -8.922  11.514  64.839  1.00  0.00    -0.405 OA 
HETATM    2  C   UNL     1      -9.025  10.663  65.972  1.00  0.00    -0.172 C  
HETATM    3  H   UNL     1      -9.781  11.843  64.603  1.00  0.00     0.000 HD 
HETATM    4  C   UNL     1      -7.634  10.131  66.354  1.00  0.00    -0.108 C  
HETATM    5  C   UNL     1      -7.742   9.203  67.574  1.00  0.00    -0.092 C  
HETATM    6  C   UNL     1      -8.690   8.039  67.250  1.00  0.00    -0.132 C  
HETATM    7  C   UNL     1     -10.084   8.579  66.890  1.00  0.00    -0.364 C  
HETATM    8  C   UNL     1     -10.639   9.394  68.076  1.00  0.00    -0.278 C  
HETATM    9  C   UNL     1      -9.964   9.489  65.660  1.00  0.00    -0.269 C  
HETATM   10  C   UNL     1      -9.700  10.588  68.417  1.00  0.00    -0.159 C  
HETATM   11  C   UNL     1      -9.595  11.472  67.150  1.00  0.00    -0.189 C  
HETATM   12  C   UNL     1      -8.305  10.003  68.762  1.00  0.00    -0.121 C  
ENDROOT
BRANCH  10  13
HETATM   13  N   UNL     1     -10.294  11.312  69.559  1.00  0.00    -0.445 NA 
HETATM   14  H   UNL     1      -9.736  12.135  69.787  1.00  0.00     0.000 HD 
BRANCH  13  15
HETATM   15  C   UNL     1     -11.710  11.686  69.375  1.00  0.00    -0.340 C  
BRANCH  15  16
HETATM   16  C   UNL     1     -12.415  11.867  70.723  1.00  0.00    -0.291 C  
HETATM   17  O   UNL     1     -12.578  10.900  71.469  1.00  0.00    -0.384 OA 
HETATM   18  N   UNL     1     -12.820  13.134  71.089  1.00  0.00    -0.306 N  
HETATM   19  C   UNL     1     -13.416  13.391  72.383  1.00  0.00    -0.584 C  
HETATM   20  C   UNL     1     -14.396  14.510  72.105  1.00  0.00    -0.594 C  
HETATM   21  C   UNL     1     -13.717  15.335  71.014  1.00  0.00    -0.452 C  
HETATM   22  C   UNL     1     -12.778  14.357  70.280  1.00  0.00    -0.263 C  
HETATM   23  C   UNL     1     -11.416  14.923  70.180  1.00  0.00    -0.279 C  
HETATM   24  N   UNL     1     -10.346  15.376  70.126  1.00  0.00    -0.280 NA 
ENDBRANCH  15  16
ENDBRANCH  13  15
ENDBRANCH  10  13
TORSDOF 3
ENDMDL
MODEL       65
REMARK 921   NORMALIZED FREE ENERGY PREDICTED BY IDOCK:   -5.40 KCAL/MOL
REMARK 922        TOTAL FREE ENERGY PREDICTED BY IDOCK:   -6.98 KCAL/MOL
REMARK 923 INTER-LIGAND FREE ENERGY PREDICTED BY IDOCK:   -6.30 KCAL/MOL
REMARK 924 INTRA-LIGAND FREE ENERGY PREDICTED BY IDOCK:   -0.69 KCAL/MOL
REMARK 927      BINDING AFFINITY PREDICTED BY RF-SCORE:    0.00 PKD
ROOT
HETATM    1  O   UNL     1     -11.306   6.647  68.902  1.00  0.00    -0.536 OA 
HETATM    2  C   UNL     1     -10.130   7.238  68.368  1.00  0.00    -0.171 C  
HETATM    3  H   UNL     1     -11.969   7.314  69.036  1.00  0.00     0.000 HD 
HETATM    4  C   UNL     1      -9.056   6.158  68.150  1.00  0.00    -0.111 C  
HETATM    5  C   UNL     1      -7.779   6.794  67.581  1.00  0.00    -0.111 C  
HETATM    6  C   UNL     1      -7.267   7.870  68.550  1.00  0.00    -0.085 C  
HETATM    7  C   UNL     1      -8.337   8.956  68.745  1.00  0.00    -0.123 C  
HETATM    8  C   UNL     1      -8.674   9.593  67.381  1.00  0.00    -0.130 C  
HETATM    9  C   UNL     1      -9.601   8.310  69.330  1.00  0.00    -0.171 C  
HETATM   10  C   UNL     1      -9.206   8.523  66.384  1.00  0.00    -0.199 C  
HETATM   11  C   UNL     1     -10.470   7.888  67.016  1.00  0.00    -0.419 C  
HETATM   12  C   UNL     1      -8.104   7.443  66.225  1.00  0.00    -0.117 C  
ENDROOT
BRANCH  10  13
HETATM   13  N   UNL     1      -9.500   9.207  65.109  1.00  0.00    -0.453 NA 
HETATM   14  H   UNL     1     -10.440   8.975  64.789  1.00  0.00     0.000 HD 
BRANCH  13  15
HETATM   15  C   UNL     1      -9.315  10.671  65.143  1.00  0.00    -0.212 C  
BRANCH  15  16
HETATM   16  C   UNL     1     -10.375  11.383  64.298  1.00  0.00    -0.328 C  
HETATM   17  O   UNL     1     -10.512  11.095  63.107  1.00  0.00    -0.320 OA 
HETATM   18  N   UNL     1     -11.187  12.316  64.910  1.00  0.00    -0.311 N  
HETATM   19  C   UNL     1     -12.264  12.965  64.191  1.00  0.00    -0.414 C  
HETATM   20  C   UNL     1     -12.322  14.344  64.814  1.00  0.00    -0.427 C  
HETATM   21  C   UNL     1     -11.949  14.107  66.276  1.00  0.00    -0.448 C  
HETATM   22  C   UNL     1     -11.089  12.828  66.281  1.00  0.00    -0.288 C  
HETATM   23  C   UNL     1     -11.598  11.865  67.282  1.00  0.00    -0.293 C  
HETATM   24  N   UNL     1     -12.022  11.114  68.061  1.00  0.00    -0.632 NA 
ENDBRANCH  15  16
ENDBRANCH  13  15
ENDBRANCH  10  13
TORSDOF 3
ENDMDL
MODEL       66
REMARK 921   NORMALIZED FREE ENERGY PREDICTED BY IDOCK:   -5.37 KCAL/MOL
REMARK 922        TOTAL FREE ENERGY PREDICTED BY IDOCK:   -6.95 KCAL/MOL
REMARK 923 INTER-LIGAND FREE ENERGY PREDICTED BY IDOCK:   -6.48 KCAL/MOL
REMARK 924 INTRA-LIGAND FREE ENERGY PREDICTED BY IDOCK:   -0.47 KCAL/MOL
REMARK 927      BINDING AFFINITY PREDICTED BY RF-SCORE:    0.00 PKD
ROOT
HETATM    1  O   UNL     1      -9.511  15.383  64.900  1.00  0.00    -0.115 OA 
HETATM    2  C   UNL     1     -10.343  14.315  65.331  1.00  0.00    -0.370 C  
HETATM    3  H   UNL     1      -9.619  16.129  65.478  1.00  0.00     0.000 HD 
HETATM    4  C   UNL     1     -10.168  13.107  64.395  1.00  0.00    -0.319 C  
HETATM    5  C   UNL     1     -11.072  11.952  64.853  1.00  0.00    -0.363 C  
HETATM    6  C   UNL     1     -12.536  12.419  64.858  1.00  0.00    -0.439 C  
HETATM    7  C   UNL     1     -12.706  13.613  65.811  1.00  0.00    -0.470 C  
HETATM    8  C   UNL     1     -12.283  13.195  67.234  1.00  0.00    -0.234 C  
HETATM    9  C   UNL     1     -11.811  14.764  65.332  1.00  0.00    -0.249 C  
HETATM   10  C   UNL     1     -10.798  12.728  67.258  1.00  0.00    -0.251 C  
HETATM   11  C   UNL     1      -9.932  13.910  66.757  1.00  0.00    -0.269 C  
HETATM   12  C   UNL     1     -10.667  11.534  66.277  1.00  0.00    -0.321 C  
ENDROOT
BRANCH  10  13
HETATM   13  N   UNL     1     -10.472  12.343  68.646  1.00  0.00    -0.293 NA 
HETATM   14  H   UNL     1     -11.076  12.836  69.304  1.00  0.00     0.000 HD 
BRANCH  13  15
HETATM   15  C   UNL     1     -10.513  10.889  68.902  1.00  0.00    -0.203 C  
BRANCH  15  16
HETATM   16  C   UNL     1     -11.379  10.566  70.124  1.00  0.00    -0.323 C  
HETATM   17  O   UNL     1     -12.213  11.381  70.523  1.00  0.00    -0.352 OA 
HETATM   18  N   UNL     1     -11.227   9.337  70.732  1.00  0.00    -0.268 N  
HETATM   19  C   UNL     1     -12.070   8.933  71.837  1.00  0.00    -0.373 C  
HETATM   20  C   UNL     1     -11.158   8.068  72.680  1.00  0.00    -0.453 C  
HETATM   21  C   UNL     1     -10.259   7.373  71.659  1.00  0.00    -0.205 C  
HETATM   22  C   UNL     1     -10.226   8.307  70.433  1.00  0.00    -0.201 C  
HETATM   23  C   UNL     1     -10.539   7.554  69.200  1.00  0.00    -0.197 C  
HETATM   24  N   UNL     1     -10.804   6.950  68.242  1.00  0.00    -0.206 NA 
ENDBRANCH  15  16
ENDBRANCH  13  15
ENDBRANCH  10  13
TORSDOF 3
ENDMDL
MODEL       67
REMARK 921   NORMALIZED FREE ENERGY PREDICTED BY IDOCK:   -5.36 KCAL/MOL
REMARK 922        TOTAL FREE ENERGY PREDICTED BY IDOCK:   -6.94 KCAL/MOL
REMARK 923 INTER-LIGAND FREE ENERGY PREDICTED BY IDOCK:   -6.47 KCAL/MOL
REMARK 924 INTRA-LIGAND FREE ENERGY PREDICTED BY IDOCK:   -0.47 KCAL/MOL
REMARK 927      BINDING AFFINITY PREDICTED BY RF-SCORE:    0.00 PKD
ROOT
HETATM    1  O   UNL     1      -8.708  15.600  66.075  1.00  0.00    -0.373 OA 
HETATM    2  C   UNL     1      -9.743  14.639  66.224  1.00  0.00    -0.307 C  
HETATM    3  H   UNL     1      -8.397  15.876  66.929  1.00  0.00     0.000 HD 
HETATM    4  C   UNL     1     -10.245  14.193  64.840  1.00  0.00    -0.371 C  
HETATM    5  C   UNL     1     -11.371  13.159  64.997  1.00  0.00    -0.325 C  
HETATM    6  C   UNL     1     -12.519  13.773  65.811  1.00  0.00    -0.527 C  
HETATM    7  C   UNL     1     -12.014  14.197  67.200  1.00  0.00    -0.460 C  
HETATM    8  C   UNL     1     -11.448  12.965  67.936  1.00  0.00    -0.362 C  
HETATM    9  C   UNL     1     -10.903  15.242  67.029  1.00  0.00    -0.321 C  
HETATM   10  C   UNL     1     -10.274  12.331  67.136  1.00  0.00    -0.211 C  
HETATM   11  C   UNL     1      -9.183  13.418  66.973  1.00  0.00    -0.242 C  
HETATM   12  C   UNL     1     -10.821  11.929  65.740  1.00  0.00    -0.341 C  
ENDROOT
BRANCH  10  13
HETATM   13  N   UNL     1      -9.793  11.161  67.898  1.00  0.00    -0.170 NA 
HETATM   14  H   UNL     1      -9.298  11.463  68.738  1.00  0.00     0.000 HD 
BRANCH  13  15
HETATM   15  C   UNL     1     -10.842  10.183  68.244  1.00  0.00    -0.252 C  
BRANCH  15  16
HETATM   16  C   UNL     1     -10.457   8.772  67.789  1.00  0.00    -0.229 C  
HETATM   17  O   UNL     1     -10.122   8.571  66.620  1.00  0.00    -0.265 OA 
HETATM   18  N   UNL     1     -10.457   7.756  68.722  1.00  0.00    -0.202 N  
HETATM   19  C   UNL     1     -10.023   6.418  68.380  1.00  0.00    -0.141 C  
HETATM   20  C   UNL     1     -10.887   5.533  69.252  1.00  0.00    -0.202 C  
HETATM   21  C   UNL     1     -11.075   6.344  70.533  1.00  0.00    -0.388 C  
HETATM   22  C   UNL     1     -10.912   7.820  70.115  1.00  0.00    -0.241 C  
HETATM   23  C   UNL     1      -9.942   8.503  70.997  1.00  0.00    -0.203 C  
HETATM   24  N   UNL     1      -9.164   9.020  71.689  1.00  0.00    -0.340 NA 
ENDBRANCH  15  16
ENDBRANCH  13  15
ENDBRANCH  10  13
TORSDOF 3
ENDMDL
MODEL       68
REMARK 921   NORMALIZED FREE ENERGY PREDICTED BY IDOCK:   -5.31 KCAL/MOL
REMARK 922        TOTAL FREE ENERGY PREDICTED BY IDOCK:   -6.88 KCAL/MOL
REMARK 923 INTER-LIGAND FREE ENERGY PREDICTED BY IDOCK:   -6.47 KCAL/MOL
REMARK 924 INTRA-LIGAND FREE ENERGY PREDICTED BY IDOCK:   -0.41 KCAL/MOL
REMARK 927      BINDING AFFINITY PREDICTED BY RF-SCORE:    0.00 PKD
ROOT
HETATM    1  O   UNL     1      -9.971  10.197  64.314  1.00  0.00    -0.343 OA 
HETATM    2  C   UNL     1     -10.031  10.860  65.568  1.00  0.00    -0.260 C  
HETATM    3  H   UNL     1     -10.847  10.100  63.958  1.00  0.00     0.000 HD 
HETATM    4  C   UNL     1      -8.613  11.018  66.144  1.00  0.00    -0.175 C  
HETATM    5  C   UNL     1      -8.674  11.727  67.505  1.00  0.00    -0.159 C  
HETATM    6  C   UNL     1      -9.555  10.916  68.467  1.00  0.00    -0.187 C  
HETATM    7  C   UNL     1     -10.975  10.781  67.894  1.00  0.00    -0.344 C  
HETATM    8  C   UNL     1     -11.578  12.185  67.687  1.00  0.00    -0.413 C  
HETATM    9  C   UNL     1     -10.902  10.056  66.544  1.00  0.00    -0.013 C  
HETATM   10  C   UNL     1     -10.709  13.025  66.707  1.00  0.00    -0.262 C  
HETATM   11  C   UNL     1     -10.648  12.254  65.365  1.00  0.00    -0.309 C  
HETATM   12  C   UNL     1      -9.284  13.126  67.314  1.00  0.00    -0.221 C  
ENDROOT
BRANCH  10  13
HETATM   13  N   UNL     1     -11.346  14.350  66.566  1.00  0.00    -0.341 NA 
HETATM   14  H   UNL     1     -12.031  14.496  67.307  1.00  0.00     0.000 HD 
BRANCH  13  15
HETATM   15  C   UNL     1     -10.398  15.480  66.511  1.00  0.00    -0.288 C  
BRANCH  15  16
HETATM   16  C   UNL     1     -10.557  16.396  67.729  1.00  0.00    -0.321 C  
HETATM   17  O   UNL     1     -11.037  15.954  68.775  1.00  0.00    -0.286 OA 
HETATM   18  N   UNL     1     -10.116  17.700  67.634  1.00  0.00    -0.323 N  
HETATM   19  C   UNL     1     -10.158  18.594  68.772  1.00  0.00    -0.353 C  
HETATM   20  C   UNL     1     -10.413  19.949  68.146  1.00  0.00    -0.472 C  
HETATM   21  C   UNL     1      -9.673  19.886  66.812  1.00  0.00    -0.538 C  
HETATM   22  C   UNL     1      -9.612  18.390  66.443  1.00  0.00    -0.310 C  
HETATM   23  C   UNL     1      -8.227  17.997  66.105  1.00  0.00    -0.144 C  
HETATM   24  N   UNL     1      -7.130  17.701  65.858  1.00  0.00    -0.404 NA 
ENDBRANCH  15  16
ENDBRANCH  13  15
ENDBRANCH  10  13
TORSDOF 3
ENDMDL
MODEL       69
REMARK 921   NORMALIZED FREE ENERGY PREDICTED BY IDOCK:   -5.28 KCAL/MOL
REMARK 922        TOTAL FREE ENERGY PREDICTED BY IDOCK:   -6.84 KCAL/MOL
REMARK 923 INTER-LIGAND FREE ENERGY PREDICTED BY IDOCK:   -6.37 KCAL/MOL
REMARK 924 INTRA-LIGAND FREE ENERGY PREDICTED BY IDOCK:   -0.47 KCAL/MOL
REMARK 927      BINDING AFFINITY PREDICTED BY RF-SCORE:    0.00 PKD
ROOT
HETATM    1  O   UNL     1     -11.124  16.712  69.768  1.00  0.00    -0.369 OA 
HETATM    2  C   UNL     1     -10.546  16.555  68.480  1.00  0.00    -0.318 C  
HETATM    3  H   UNL     1     -12.033  16.973  69.684  1.00  0.00     0.000 HD 
HETATM    4  C   UNL     1      -9.073  16.132  68.615  1.00  0.00    -0.218 C  
HETATM    5  C   UNL     1      -8.442  15.970  67.224  1.00  0.00    -0.206 C  
HETATM    6  C   UNL     1      -8.550  17.296  66.456  1.00  0.00    -0.298 C  
HETATM    7  C   UNL     1     -10.025  17.701  66.306  1.00  0.00    -0.324 C  
HETATM    8  C   UNL     1     -10.785  16.592  65.550  1.00  0.00    -0.267 C  
HETATM    9  C   UNL     1     -10.638  17.876  67.702  1.00  0.00    -0.398 C  
HETATM   10  C   UNL     1     -10.700  15.239  66.315  1.00  0.00    -0.315 C  
HETATM   11  C   UNL     1     -11.315  15.462  67.720  1.00  0.00    -0.308 C  
HETATM   12  C   UNL     1      -9.199  14.874  66.456  1.00  0.00    -0.314 C  
ENDROOT
BRANCH  10  13
HETATM   13  N   UNL     1     -11.444  14.233  65.530  1.00  0.00    -0.322 NA 
HETATM   14  H   UNL     1     -11.816  14.652  64.677  1.00  0.00     0.000 HD 
BRANCH  13  15
HETATM   15  C   UNL     1     -10.673  13.016  65.211  1.00  0.00    -0.299 C  
BRANCH  15  16
HETATM   16  C   UNL     1     -11.053  11.860  66.142  1.00  0.00    -0.326 C  
HETATM   17  O   UNL     1     -12.031  11.961  66.885  1.00  0.00    -0.614 OA 
HETATM   18  N   UNL     1     -10.302  10.703  66.096  1.00  0.00    -0.244 N  
HETATM   19  C   UNL     1     -10.656   9.543  66.886  1.00  0.00    -0.171 C  
HETATM   20  C   UNL     1      -9.317   8.917  67.213  1.00  0.00    -0.173 C  
HETATM   21  C   UNL     1      -8.464   9.200  65.978  1.00  0.00    -0.139 C  
HETATM   22  C   UNL     1      -9.068  10.466  65.338  1.00  0.00    -0.189 C  
HETATM   23  C   UNL     1      -9.322  10.247  63.898  1.00  0.00    -0.291 C  
HETATM   24  N   UNL     1      -9.531  10.053  62.771  1.00  0.00    -0.267 NA 
ENDBRANCH  15  16
ENDBRANCH  13  15
ENDBRANCH  10  13
TORSDOF 3
ENDMDL
MODEL       70
REMARK 921   NORMALIZED FREE ENERGY PREDICTED BY IDOCK:   -5.27 KCAL/MOL
REMARK 922        TOTAL FREE ENERGY PREDICTED BY IDOCK:   -6.84 KCAL/MOL
REMARK 923 INTER-LIGAND FREE ENERGY PREDICTED BY IDOCK:   -6.39 KCAL/MOL
REMARK 924 INTRA-LIGAND FREE ENERGY PREDICTED BY IDOCK:   -0.44 KCAL/MOL
REMARK 927      BINDING AFFINITY PREDICTED BY RF-SCORE:    0.00 PKD
ROOT
HETATM    1  O   UNL     1     -11.915  16.957  73.852  1.00  0.00    -0.324 OA 
HETATM    2  C   UNL     1     -12.413  16.007  72.921  1.00  0.00    -0.497 C  
HETATM    3  H   UNL     1     -11.043  16.708  74.133  1.00  0.00     0.000 HD 
HETATM    4  C   UNL     1     -13.825  16.411  72.467  1.00  0.00     0.748 C  
HETATM    5  C   UNL     1     -14.371  15.380  71.466  1.00  0.00    -0.572 C  
HETATM    6  C   UNL     1     -14.397  13.993  72.124  1.00  0.00    -0.577 C  
HETATM    7  C   UNL     1     -12.979  13.587  72.557  1.00  0.00    -0.359 C  
HETATM    8  C   UNL     1     -12.054  13.566  71.322  1.00  0.00    -0.062 C  
HETATM    9  C   UNL     1     -12.453  14.615  73.568  1.00  0.00    -0.420 C  
HETATM   10  C   UNL     1     -12.002  14.966  70.644  1.00  0.00    -0.305 C  
HETATM   11  C   UNL     1     -11.481  15.973  71.698  1.00  0.00    -0.443 C  
HETATM   12  C   UNL     1     -13.450  15.342  70.234  1.00  0.00     0.229 C  
ENDROOT
BRANCH  10  13
HETATM   13  N   UNL     1     -11.105  14.863  69.474  1.00  0.00    -0.271 NA 
HETATM   14  H   UNL     1     -11.393  14.092  68.872  1.00  0.00     0.000 HD 
BRANCH  13  15
HETATM   15  C   UNL     1     -10.978  16.108  68.691  1.00  0.00    -0.336 C  
BRANCH  15  16
HETATM   16  C   UNL     1      -9.531  16.609  68.678  1.00  0.00    -0.249 C  
HETATM   17  O   UNL     1      -8.658  15.993  69.293  1.00  0.00    -0.251 OA 
HETATM   18  N   UNL     1      -9.230  17.732  67.935  1.00  0.00    -0.260 N  
HETATM   19  C   UNL     1      -7.869  18.211  67.810  1.00  0.00    -0.235 C  
HETATM   20  C   UNL     1      -8.031  19.712  67.707  1.00  0.00    -0.337 C  
HETATM   21  C   UNL     1      -9.344  19.892  66.948  1.00  0.00    -0.493 C  
HETATM   22  C   UNL     1     -10.164  18.617  67.230  1.00  0.00    -0.376 C  
HETATM   23  C   UNL     1     -10.656  18.028  65.966  1.00  0.00    -0.251 C  
HETATM   24  N   UNL     1     -11.021  17.568  64.963  1.00  0.00    -0.749 NA 
ENDBRANCH  15  16
ENDBRANCH  13  15
ENDBRANCH  10  13
TORSDOF 3
ENDMDL
MODEL       71
REMARK 921   NORMALIZED FREE ENERGY PREDICTED BY IDOCK:   -5.27 KCAL/MOL
REMARK 922        TOTAL FREE ENERGY PREDICTED BY IDOCK:   -6.83 KCAL/MOL
REMARK 923 INTER-LIGAND FREE ENERGY PREDICTED BY IDOCK:   -6.47 KCAL/MOL
REMARK 924 INTRA-LIGAND FREE ENERGY PREDICTED BY IDOCK:   -0.36 KCAL/MOL
REMARK 927      BINDING AFFINITY PREDICTED BY RF-SCORE:    0.00 PKD
ROOT
HETATM    1  O   UNL     1     -12.465  13.600  68.487  1.00  0.00    -0.304 OA 
HETATM    2  C   UNL     1     -11.576  13.306  67.419  1.00  0.00    -0.353 C  
HETATM    3  H   UNL     1     -12.060  13.376  69.316  1.00  0.00     0.000 HD 
HETATM    4  C   UNL     1     -12.232  13.669  66.077  1.00  0.00    -0.492 C  
HETATM    5  C   UNL     1     -11.277  13.344  64.919  1.00  0.00    -0.347 C  
HETATM    6  C   UNL     1     -10.920  11.851  64.953  1.00  0.00    -0.367 C  
HETATM    7  C   UNL     1     -10.245  11.500  66.289  1.00  0.00    -0.268 C  
HETATM    8  C   UNL     1      -8.969  12.350  66.455  1.00  0.00    -0.145 C  
HETATM    9  C   UNL     1     -11.217  11.813  67.435  1.00  0.00    -0.357 C  
HETATM   10  C   UNL     1      -9.305  13.869  66.435  1.00  0.00    -0.205 C  
HETATM   11  C   UNL     1     -10.296  14.140  67.595  1.00  0.00    -0.241 C  
HETATM   12  C   UNL     1      -9.994  14.178  65.079  1.00  0.00    -0.216 C  
ENDROOT
BRANCH  10  13
HETATM   13  N   UNL     1      -8.038  14.611  66.594  1.00  0.00    -0.313 NA 
HETATM   14  H   UNL     1      -7.682  14.906  65.685  1.00  0.00     0.000 HD 
BRANCH  13  15
HETATM   15  C   UNL     1      -8.116  15.762  67.514  1.00  0.00    -0.159 C  
BRANCH  15  16
HETATM   16  C   UNL     1      -8.508  17.041  66.770  1.00  0.00    -0.234 C  
HETATM   17  O   UNL     1      -8.192  17.190  65.587  1.00  0.00    -0.429 OA 
HETATM   18  N   UNL     1      -9.250  17.993  67.440  1.00  0.00    -0.252 N  
HETATM   19  C   UNL     1      -9.726  19.186  66.773  1.00  0.00    -0.338 C  
HETATM   20  C   UNL     1      -9.707  20.233  67.865  1.00  0.00    -0.472 C  
HETATM   21  C   UNL     1     -10.060  19.455  69.131  1.00  0.00    -0.336 C  
HETATM   22  C   UNL     1      -9.622  18.002  68.859  1.00  0.00    -0.231 C  
HETATM   23  C   UNL     1     -10.725  17.064  69.161  1.00  0.00    -0.253 C  
HETATM   24  N   UNL     1     -11.608  16.342  69.386  1.00  0.00    -0.157 NA 
ENDBRANCH  15  16
ENDBRANCH  13  15
ENDBRANCH  10  13
TORSDOF 3
ENDMDL
MODEL       72
REMARK 921   NORMALIZED FREE ENERGY PREDICTED BY IDOCK:   -5.21 KCAL/MOL
REMARK 922        TOTAL FREE ENERGY PREDICTED BY IDOCK:   -6.77 KCAL/MOL
REMARK 923 INTER-LIGAND FREE ENERGY PREDICTED BY IDOCK:   -6.36 KCAL/MOL
REMARK 924 INTRA-LIGAND FREE ENERGY PREDICTED BY IDOCK:   -0.41 KCAL/MOL
REMARK 927      BINDING AFFINITY PREDICTED BY RF-SCORE:    0.00 PKD
ROOT
HETATM    1  O   UNL     1     -11.108   6.565  68.588  1.00  0.00    -0.406 OA 
HETATM    2  C   UNL     1     -10.709   7.668  69.390  1.00  0.00    -0.184 C  
HETATM    3  H   UNL     1     -12.021   6.655  68.346  1.00  0.00     0.000 HD 
HETATM    4  C   UNL     1      -9.229   7.522  69.781  1.00  0.00    -0.147 C  
HETATM    5  C   UNL     1      -8.797   8.709  70.655  1.00  0.00    -0.192 C  
HETATM    6  C   UNL     1      -9.679   8.768  71.911  1.00  0.00    -0.386 C  
HETATM    7  C   UNL     1     -11.154   8.935  71.512  1.00  0.00    -0.397 C  
HETATM    8  C   UNL     1     -11.318  10.231  70.692  1.00  0.00    -0.431 C  
HETATM    9  C   UNL     1     -11.578   7.735  70.654  1.00  0.00    -0.233 C  
HETATM   10  C   UNL     1     -10.441  10.191  69.407  1.00  0.00    -0.233 C  
HETATM   11  C   UNL     1     -10.889   8.962  68.578  1.00  0.00    -0.038 C  
HETATM   12  C   UNL     1      -8.966  10.010  69.853  1.00  0.00    -0.178 C  
ENDROOT
BRANCH  10  13
HETATM   13  N   UNL     1     -10.649  11.462  68.684  1.00  0.00    -0.192 NA 
HETATM   14  H   UNL     1     -10.411  12.254  69.281  1.00  0.00     0.000 HD 
BRANCH  13  15
HETATM   15  C   UNL     1      -9.934  11.555  67.396  1.00  0.00    -0.190 C  
BRANCH  15  16
HETATM   16  C   UNL     1     -10.026  12.968  66.812  1.00  0.00    -0.245 C  
HETATM   17  O   UNL     1      -9.498  13.915  67.399  1.00  0.00    -0.213 OA 
HETATM   18  N   UNL     1     -10.675  13.142  65.607  1.00  0.00    -0.277 N  
HETATM   19  C   UNL     1     -10.726  14.435  64.957  1.00  0.00    -0.423 C  
HETATM   20  C   UNL     1     -12.067  14.424  64.255  1.00  0.00    -0.461 C  
HETATM   21  C   UNL     1     -12.257  12.966  63.841  1.00  0.00    -0.525 C  
HETATM   22  C   UNL     1     -11.424  12.140  64.840  1.00  0.00    -0.325 C  
HETATM   23  C   UNL     1     -10.538  11.199  64.122  1.00  0.00    -0.368 C  
HETATM   24  N   UNL     1      -9.836  10.478  63.541  1.00  0.00    -0.315 NA 
ENDBRANCH  15  16
ENDBRANCH  13  15
ENDBRANCH  10  13
TORSDOF 3
ENDMDL
MODEL       73
REMARK 921   NORMALIZED FREE ENERGY PREDICTED BY IDOCK:   -5.19 KCAL/MOL
REMARK 922        TOTAL FREE ENERGY PREDICTED BY IDOCK:   -6.74 KCAL/MOL
REMARK 923 INTER-LIGAND FREE ENERGY PREDICTED BY IDOCK:   -6.32 KCAL/MOL
REMARK 924 INTRA-LIGAND FREE ENERGY PREDICTED BY IDOCK:   -0.42 KCAL/MOL
REMARK 927      BINDING AFFINITY PREDICTED BY RF-SCORE:    0.00 PKD
ROOT
HETATM    1  O   UNL     1     -12.576  14.071  63.362  1.00  0.00    -1.056 OA 
HETATM    2  C   UNL     1     -11.856  14.077  64.586  1.00  0.00    -0.417 C  
HETATM    3  H   UNL     1     -11.991  14.276  62.642  1.00  0.00     0.000 HD 
HETATM    4  C   UNL     1     -12.803  13.745  65.751  1.00  0.00    -0.430 C  
HETATM    5  C   UNL     1     -12.030  13.758  67.078  1.00  0.00    -0.452 C  
HETATM    6  C   UNL     1     -11.391  15.140  67.285  1.00  0.00    -0.305 C  
HETATM    7  C   UNL     1     -10.430  15.455  66.127  1.00  0.00    -0.325 C  
HETATM    8  C   UNL     1      -9.333  14.373  66.065  1.00  0.00    -0.167 C  
HETATM    9  C   UNL     1     -11.219  15.455  64.811  1.00  0.00    -0.404 C  
HETATM   10  C   UNL     1      -9.955  12.963  65.845  1.00  0.00    -0.268 C  
HETATM   11  C   UNL     1     -10.751  13.009  64.517  1.00  0.00    -0.404 C  
HETATM   12  C   UNL     1     -10.925  12.690  67.025  1.00  0.00    -0.300 C  
ENDROOT
BRANCH  10  13
HETATM   13  N   UNL     1      -8.847  11.987  65.802  1.00  0.00    -0.412 NA 
HETATM   14  H   UNL     1      -8.073  12.351  65.246  1.00  0.00     0.000 HD 
BRANCH  13  15
HETATM   15  C   UNL     1      -8.367  11.549  67.127  1.00  0.00    -0.160 C  
BRANCH  15  16
HETATM   16  C   UNL     1      -8.482  10.030  67.284  1.00  0.00    -0.122 C  
HETATM   17  O   UNL     1      -8.756   9.327  66.309  1.00  0.00    -0.134 OA 
HETATM   18  N   UNL     1      -8.235   9.475  68.523  1.00  0.00    -0.111 N  
HETATM   19  C   UNL     1      -8.244   8.041  68.723  1.00  0.00    -0.126 C  
HETATM   20  C   UNL     1      -8.756   7.884  70.138  1.00  0.00    -0.136 C  
HETATM   21  C   UNL     1      -8.198   9.103  70.871  1.00  0.00    -0.220 C  
HETATM   22  C   UNL     1      -7.989  10.178  69.787  1.00  0.00    -0.161 C  
HETATM   23  C   UNL     1      -6.622  10.736  69.867  1.00  0.00    -0.149 C  
HETATM   24  N   UNL     1      -5.538  11.151  69.934  1.00  0.00    -0.064 NA 
ENDBRANCH  15  16
ENDBRANCH  13  15
ENDBRANCH  10  13
TORSDOF 3
ENDMDL
MODEL       74
REMARK 921   NORMALIZED FREE ENERGY PREDICTED BY IDOCK:   -5.17 KCAL/MOL
REMARK 922        TOTAL FREE ENERGY PREDICTED BY IDOCK:   -6.72 KCAL/MOL
REMARK 923 INTER-LIGAND FREE ENERGY PREDICTED BY IDOCK:   -6.05 KCAL/MOL
REMARK 924 INTRA-LIGAND FREE ENERGY PREDICTED BY IDOCK:   -0.67 KCAL/MOL
REMARK 927      BINDING AFFINITY PREDICTED BY RF-SCORE:    0.00 PKD
ROOT
HETATM    1  O   UNL     1     -10.386   5.167  69.951  1.00  0.00    -0.279 OA 
HETATM    2  C   UNL     1     -10.447   6.384  70.682  1.00  0.00    -0.219 C  
HETATM    3  H   UNL     1     -11.264   4.879  69.732  1.00  0.00     0.000 HD 
HETATM    4  C   UNL     1      -9.025   6.851  71.037  1.00  0.00    -0.151 C  
HETATM    5  C   UNL     1      -9.087   8.163  71.835  1.00  0.00    -0.230 C  
HETATM    6  C   UNL     1      -9.914   7.948  73.111  1.00  0.00    -0.358 C  
HETATM    7  C   UNL     1     -11.339   7.502  72.746  1.00  0.00    -0.388 C  
HETATM    8  C   UNL     1     -12.002   8.580  71.865  1.00  0.00    -0.409 C  
HETATM    9  C   UNL     1     -11.264   6.182  71.966  1.00  0.00    -0.335 C  
HETATM   10  C   UNL     1     -11.188   8.808  70.559  1.00  0.00    -0.247 C  
HETATM   11  C   UNL     1     -11.124   7.454  69.809  1.00  0.00    -0.169 C  
HETATM   12  C   UNL     1      -9.756   9.244  70.970  1.00  0.00    -0.341 C  
ENDROOT
BRANCH  10  13
HETATM   13  N   UNL     1     -11.880   9.851  69.776  1.00  0.00    -0.463 NA 
HETATM   14  H   UNL     1     -12.729  10.152  70.255  1.00  0.00     0.000 HD 
BRANCH  13  15
HETATM   15  C   UNL     1     -11.042  11.018  69.435  1.00  0.00    -0.262 C  
BRANCH  15  16
HETATM   16  C   UNL     1     -11.234  11.431  67.973  1.00  0.00    -0.281 C  
HETATM   17  O   UNL     1     -12.134  12.216  67.667  1.00  0.00    -0.522 OA 
HETATM   18  N   UNL     1     -10.359  10.937  67.028  1.00  0.00    -0.221 N  
HETATM   19  C   UNL     1     -10.431  11.352  65.643  1.00  0.00    -0.262 C  
HETATM   20  C   UNL     1      -9.991  10.120  64.882  1.00  0.00    -0.358 C  
HETATM   21  C   UNL     1      -8.949   9.474  65.793  1.00  0.00    -0.219 C  
HETATM   22  C   UNL     1      -9.306   9.934  67.221  1.00  0.00    -0.145 C  
HETATM   23  C   UNL     1      -8.114  10.488  67.898  1.00  0.00    -0.107 C  
HETATM   24  N   UNL     1      -7.171  10.937  68.410  1.00  0.00    -0.082 NA 
ENDBRANCH  15  16
ENDBRANCH  13  15
ENDBRANCH  10  13
TORSDOF 3
ENDMDL
MODEL       75
REMARK 921   NORMALIZED FREE ENERGY PREDICTED BY IDOCK:   -5.17 KCAL/MOL
REMARK 922        TOTAL FREE ENERGY PREDICTED BY IDOCK:   -6.72 KCAL/MOL
REMARK 923 INTER-LIGAND FREE ENERGY PREDICTED BY IDOCK:   -6.16 KCAL/MOL
REMARK 924 INTRA-LIGAND FREE ENERGY PREDICTED BY IDOCK:   -0.55 KCAL/MOL
REMARK 927      BINDING AFFINITY PREDICTED BY RF-SCORE:    0.00 PKD
ROOT
HETATM    1  O   UNL     1      -9.035  19.258  68.101  1.00  0.00    -0.303 OA 
HETATM    2  C   UNL     1      -9.279  17.868  67.937  1.00  0.00    -0.263 C  
HETATM    3  H   UNL     1      -9.860  19.726  68.158  1.00  0.00     0.000 HD 
HETATM    4  C   UNL     1      -7.944  17.111  67.845  1.00  0.00    -0.193 C  
HETATM    5  C   UNL     1      -8.203  15.608  67.658  1.00  0.00    -0.165 C  
HETATM    6  C   UNL     1      -9.034  15.386  66.386  1.00  0.00    -0.351 C  
HETATM    7  C   UNL     1     -10.375  16.128  66.495  1.00  0.00    -0.311 C  
HETATM    8  C   UNL     1     -11.148  15.610  67.725  1.00  0.00    -0.311 C  
HETATM    9  C   UNL     1     -10.102  17.629  66.663  1.00  0.00    -0.335 C  
HETATM   10  C   UNL     1     -10.331  15.834  69.030  1.00  0.00    -0.223 C  
HETATM   11  C   UNL     1     -10.065  17.355  69.155  1.00  0.00    -0.242 C  
HETATM   12  C   UNL     1      -8.984  15.080  68.874  1.00  0.00    -0.202 C  
ENDROOT
BRANCH  10  13
HETATM   13  N   UNL     1     -11.132  15.310  70.155  1.00  0.00    -0.273 NA 
HETATM   14  H   UNL     1     -11.197  16.004  70.899  1.00  0.00     0.000 HD 
BRANCH  13  15
HETATM   15  C   UNL     1     -12.477  14.833  69.778  1.00  0.00    -0.191 C  
BRANCH  15  16
HETATM   16  C   UNL     1     -12.884  13.610  70.605  1.00  0.00    -0.154 C  
HETATM   17  O   UNL     1     -13.698  13.729  71.522  1.00  0.00    -0.307 OA 
HETATM   18  N   UNL     1     -12.349  12.382  70.272  1.00  0.00    -0.239 N  
HETATM   19  C   UNL     1     -12.755  11.173  70.957  1.00  0.00    -0.378 C  
HETATM   20  C   UNL     1     -11.501  10.325  70.948  1.00  0.00    -0.425 C  
HETATM   21  C   UNL     1     -10.825  10.677  69.623  1.00  0.00    -0.318 C  
HETATM   22  C   UNL     1     -11.311  12.098  69.276  1.00  0.00    -0.266 C  
HETATM   23  C   UNL     1     -11.828  12.144  67.891  1.00  0.00    -0.269 C  
HETATM   24  N   UNL     1     -12.246  12.158  66.806  1.00  0.00    -0.443 NA 
ENDBRANCH  15  16
ENDBRANCH  13  15
ENDBRANCH  10  13
TORSDOF 3
ENDMDL
MODEL       76
REMARK 921   NORMALIZED FREE ENERGY PREDICTED BY IDOCK:   -5.17 KCAL/MOL
REMARK 922        TOTAL FREE ENERGY PREDICTED BY IDOCK:   -6.71 KCAL/MOL
REMARK 923 INTER-LIGAND FREE ENERGY PREDICTED BY IDOCK:   -6.31 KCAL/MOL
REMARK 924 INTRA-LIGAND FREE ENERGY PREDICTED BY IDOCK:   -0.41 KCAL/MOL
REMARK 927      BINDING AFFINITY PREDICTED BY RF-SCORE:    0.00 PKD
ROOT
HETATM    1  O   UNL     1      -9.598   6.455  67.603  1.00  0.00    -0.122 OA 
HETATM    2  C   UNL     1      -9.761   7.582  68.453  1.00  0.00    -0.156 C  
HETATM    3  H   UNL     1     -10.436   6.033  67.461  1.00  0.00     0.000 HD 
HETATM    4  C   UNL     1      -8.402   8.265  68.681  1.00  0.00    -0.125 C  
HETATM    5  C   UNL     1      -8.573   9.479  69.606  1.00  0.00    -0.189 C  
HETATM    6  C   UNL     1      -9.173   9.022  70.944  1.00  0.00    -0.320 C  
HETATM    7  C   UNL     1     -10.540   8.360  70.710  1.00  0.00    -0.240 C  
HETATM    8  C   UNL     1     -11.487   9.367  70.026  1.00  0.00    -0.111 C  
HETATM    9  C   UNL     1     -10.353   7.139  69.798  1.00  0.00    -0.224 C  
HETATM   10  C   UNL     1     -10.905   9.837  68.661  1.00  0.00    -0.188 C  
HETATM   11  C   UNL     1     -10.718   8.579  67.778  1.00  0.00    -0.170 C  
HETATM   12  C   UNL     1      -9.524  10.488  68.940  1.00  0.00    -0.199 C  
ENDROOT
BRANCH  10  13
HETATM   13  N   UNL     1     -11.861  10.798  68.074  1.00  0.00    -0.773 NA 
HETATM   14  H   UNL     1     -12.692  10.876  68.660  1.00  0.00     0.000 HD 
BRANCH  13  15
HETATM   15  C   UNL     1     -11.296  12.134  67.803  1.00  0.00    -0.307 C  
BRANCH  15  16
HETATM   16  C   UNL     1     -11.798  12.689  66.467  1.00  0.00    -0.396 C  
HETATM   17  O   UNL     1     -12.443  11.967  65.703  1.00  0.00    -0.390 OA 
HETATM   18  N   UNL     1     -11.545  14.011  66.166  1.00  0.00    -0.353 N  
HETATM   19  C   UNL     1     -12.064  14.622  64.959  1.00  0.00    -0.349 C  
HETATM   20  C   UNL     1     -10.997  15.629  64.588  1.00  0.00    -0.344 C  
HETATM   21  C   UNL     1     -10.459  16.113  65.933  1.00  0.00    -0.366 C  
HETATM   22  C   UNL     1     -10.724  14.961  66.923  1.00  0.00    -0.308 C  
HETATM   23  C   UNL     1     -11.410  15.465  68.132  1.00  0.00    -0.348 C  
HETATM   24  N   UNL     1     -11.965  15.875  69.068  1.00  0.00    -0.328 NA 
ENDBRANCH  15  16
ENDBRANCH  13  15
ENDBRANCH  10  13
TORSDOF 3
ENDMDL
MODEL       77
REMARK 921   NORMALIZED FREE ENERGY PREDICTED BY IDOCK:   -5.17 KCAL/MOL
REMARK 922        TOTAL FREE ENERGY PREDICTED BY IDOCK:   -6.71 KCAL/MOL
REMARK 923 INTER-LIGAND FREE ENERGY PREDICTED BY IDOCK:   -6.28 KCAL/MOL
REMARK 924 INTRA-LIGAND FREE ENERGY PREDICTED BY IDOCK:   -0.43 KCAL/MOL
REMARK 927      BINDING AFFINITY PREDICTED BY RF-SCORE:    0.00 PKD
ROOT
HETATM    1  O   UNL     1     -12.519  12.202  64.988  1.00  0.00    -0.490 OA 
HETATM    2  C   UNL     1     -11.680  12.917  65.884  1.00  0.00    -0.399 C  
HETATM    3  H   UNL     1     -12.011  11.548  64.523  1.00  0.00     0.000 HD 
HETATM    4  C   UNL     1     -12.503  13.976  66.637  1.00  0.00    -0.296 C  
HETATM    5  C   UNL     1     -11.597  14.757  67.601  1.00  0.00    -0.374 C  
HETATM    6  C   UNL     1     -10.462  15.424  66.811  1.00  0.00    -0.299 C  
HETATM    7  C   UNL     1      -9.632  14.358  66.078  1.00  0.00    -0.292 C  
HETATM    8  C   UNL     1      -9.046  13.370  67.108  1.00  0.00    -0.235 C  
HETATM    9  C   UNL     1     -10.544  13.597  65.106  1.00  0.00    -0.371 C  
HETATM   10  C   UNL     1     -10.178  12.672  67.915  1.00  0.00    -0.220 C  
HETATM   11  C   UNL     1     -11.082  11.929  66.900  1.00  0.00    -0.356 C  
HETATM   12  C   UNL     1     -10.997  13.781  68.627  1.00  0.00    -0.287 C  
ENDROOT
BRANCH  10  13
HETATM   13  N   UNL     1      -9.540  11.751  68.877  1.00  0.00    -0.412 NA 
HETATM   14  H   UNL     1      -9.372  12.225  69.765  1.00  0.00     0.000 HD 
BRANCH  13  15
HETATM   15  C   UNL     1     -10.277  10.492  69.098  1.00  0.00    -0.224 C  
BRANCH  15  16
HETATM   16  C   UNL     1      -9.339   9.282  69.036  1.00  0.00    -0.151 C  
HETATM   17  O   UNL     1      -8.175   9.423  68.657  1.00  0.00    -0.109 OA 
HETATM   18  N   UNL     1      -9.818   8.055  69.447  1.00  0.00    -0.178 N  
HETATM   19  C   UNL     1      -8.962   6.889  69.493  1.00  0.00    -0.143 C  
HETATM   20  C   UNL     1      -9.901   5.748  69.165  1.00  0.00    -0.211 C  
HETATM   21  C   UNL     1     -11.231   6.173  69.785  1.00  0.00    -0.494 C  
HETATM   22  C   UNL     1     -11.191   7.714  69.834  1.00  0.00    -0.085 C  
HETATM   23  C   UNL     1     -11.534   8.197  71.189  1.00  0.00    -0.276 C  
HETATM   24  N   UNL     1     -11.789   8.560  72.264  1.00  0.00    -0.379 NA 
ENDBRANCH  15  16
ENDBRANCH  13  15
ENDBRANCH  10  13
TORSDOF 3
ENDMDL
MODEL       78
REMARK 921   NORMALIZED FREE ENERGY PREDICTED BY IDOCK:   -5.16 KCAL/MOL
REMARK 922        TOTAL FREE ENERGY PREDICTED BY IDOCK:   -6.70 KCAL/MOL
REMARK 923 INTER-LIGAND FREE ENERGY PREDICTED BY IDOCK:   -6.23 KCAL/MOL
REMARK 924 INTRA-LIGAND FREE ENERGY PREDICTED BY IDOCK:   -0.48 KCAL/MOL
REMARK 927      BINDING AFFINITY PREDICTED BY RF-SCORE:    0.00 PKD
ROOT
HETATM    1  O   UNL     1     -12.622  15.359  69.435  1.00  0.00    -0.596 OA 
HETATM    2  C   UNL     1     -11.567  14.881  68.612  1.00  0.00    -0.318 C  
HETATM    3  H   UNL     1     -13.348  14.747  69.417  1.00  0.00     0.000 HD 
HETATM    4  C   UNL     1     -10.392  15.873  68.640  1.00  0.00    -0.229 C  
HETATM    5  C   UNL     1      -9.252  15.364  67.744  1.00  0.00    -0.183 C  
HETATM    6  C   UNL     1      -9.769  15.188  66.309  1.00  0.00    -0.315 C  
HETATM    7  C   UNL     1     -10.930  14.180  66.286  1.00  0.00    -0.303 C  
HETATM    8  C   UNL     1     -10.441  12.825  66.838  1.00  0.00    -0.250 C  
HETATM    9  C   UNL     1     -12.067  14.709  67.170  1.00  0.00    -0.218 C  
HETATM   10  C   UNL     1      -9.922  12.975  68.298  1.00  0.00    -0.235 C  
HETATM   11  C   UNL     1     -11.092  13.522  69.152  1.00  0.00    -0.271 C  
HETATM   12  C   UNL     1      -8.763  14.007  68.279  1.00  0.00    -0.182 C  
ENDROOT
BRANCH  10  13
HETATM   13  N   UNL     1      -9.470  11.644  68.751  1.00  0.00    -0.378 NA 
HETATM   14  H   UNL     1      -8.658  11.733  69.361  1.00  0.00     0.000 HD 
BRANCH  13  15
HETATM   15  C   UNL     1     -10.517  10.833  69.403  1.00  0.00    -0.200 C  
BRANCH  15  16
HETATM   16  C   UNL     1     -10.611   9.440  68.775  1.00  0.00    -0.208 C  
HETATM   17  O   UNL     1     -10.597   9.313  67.548  1.00  0.00    -0.268 OA 
HETATM   18  N   UNL     1     -10.670   8.343  69.610  1.00  0.00    -0.225 N  
HETATM   19  C   UNL     1     -10.675   6.994  69.084  1.00  0.00    -0.218 C  
HETATM   20  C   UNL     1     -11.529   6.232  70.075  1.00  0.00    -0.460 C  
HETATM   21  C   UNL     1     -11.225   6.899  71.415  1.00  0.00    -0.296 C  
HETATM   22  C   UNL     1     -10.785   8.336  71.072  1.00  0.00    -0.218 C  
HETATM   23  C   UNL     1      -9.507   8.659  71.741  1.00  0.00    -0.284 C  
HETATM   24  N   UNL     1      -8.493   8.891  72.261  1.00  0.00    -0.371 NA 
ENDBRANCH  15  16
ENDBRANCH  13  15
ENDBRANCH  10  13
TORSDOF 3
ENDMDL
MODEL       79
REMARK 921   NORMALIZED FREE ENERGY PREDICTED BY IDOCK:   -5.14 KCAL/MOL
REMARK 922        TOTAL FREE ENERGY PREDICTED BY IDOCK:   -6.68 KCAL/MOL
REMARK 923 INTER-LIGAND FREE ENERGY PREDICTED BY IDOCK:   -6.13 KCAL/MOL
REMARK 924 INTRA-LIGAND FREE ENERGY PREDICTED BY IDOCK:   -0.55 KCAL/MOL
REMARK 927      BINDING AFFINITY PREDICTED BY RF-SCORE:    0.00 PKD
ROOT
HETATM    1  O   UNL     1     -11.126  16.828  69.694  1.00  0.00    -0.362 OA 
HETATM    2  C   UNL     1     -10.372  16.792  68.490  1.00  0.00    -0.316 C  
HETATM    3  H   UNL     1     -12.053  16.777  69.495  1.00  0.00     0.000 HD 
HETATM    4  C   UNL     1      -8.870  16.876  68.813  1.00  0.00    -0.255 C  
HETATM    5  C   UNL     1      -8.051  16.845  67.513  1.00  0.00    -0.188 C  
HETATM    6  C   UNL     1      -8.472  18.018  66.615  1.00  0.00    -0.283 C  
HETATM    7  C   UNL     1      -9.969  17.916  66.281  1.00  0.00    -0.333 C  
HETATM    8  C   UNL     1     -10.242  16.579  65.562  1.00  0.00    -0.261 C  
HETATM    9  C   UNL     1     -10.776  17.965  67.585  1.00  0.00    -0.343 C  
HETATM   10  C   UNL     1      -9.833  15.373  66.457  1.00  0.00    -0.272 C  
HETATM   11  C   UNL     1     -10.657  15.466  67.765  1.00  0.00    -0.274 C  
HETATM   12  C   UNL     1      -8.323  15.520  66.781  1.00  0.00    -0.301 C  
ENDROOT
BRANCH  10  13
HETATM   13  N   UNL     1     -10.119  14.137  65.701  1.00  0.00    -0.343 NA 
HETATM   14  H   UNL     1      -9.257  13.742  65.325  1.00  0.00     0.000 HD 
BRANCH  13  15
HETATM   15  C   UNL     1     -10.864  13.114  66.461  1.00  0.00    -0.280 C  
BRANCH  15  16
HETATM   16  C   UNL     1      -9.912  12.119  67.131  1.00  0.00    -0.200 C  
HETATM   17  O   UNL     1      -8.790  11.924  66.659  1.00  0.00    -0.189 OA 
HETATM   18  N   UNL     1     -10.326  11.486  68.285  1.00  0.00    -0.190 N  
HETATM   19  C   UNL     1      -9.446  10.599  69.016  1.00  0.00    -0.191 C  
HETATM   20  C   UNL     1     -10.389   9.566  69.597  1.00  0.00    -0.236 C  
HETATM   21  C   UNL     1     -11.665  10.353  69.891  1.00  0.00    -0.341 C  
HETATM   22  C   UNL     1     -11.651  11.545  68.912  1.00  0.00    -0.320 C  
HETATM   23  C   UNL     1     -11.878  12.813  69.638  1.00  0.00    -0.317 C  
HETATM   24  N   UNL     1     -12.040  13.802  70.226  1.00  0.00    -0.339 NA 
ENDBRANCH  15  16
ENDBRANCH  13  15
ENDBRANCH  10  13
TORSDOF 3
ENDMDL
MODEL       80
REMARK 921   NORMALIZED FREE ENERGY PREDICTED BY IDOCK:   -5.13 KCAL/MOL
REMARK 922        TOTAL FREE ENERGY PREDICTED BY IDOCK:   -6.67 KCAL/MOL
REMARK 923 INTER-LIGAND FREE ENERGY PREDICTED BY IDOCK:   -6.25 KCAL/MOL
REMARK 924 INTRA-LIGAND FREE ENERGY PREDICTED BY IDOCK:   -0.43 KCAL/MOL
REMARK 927      BINDING AFFINITY PREDICTED BY RF-SCORE:    0.00 PKD
ROOT
HETATM    1  O   UNL     1      -7.575  10.059  70.686  1.00  0.00    -0.379 OA 
HETATM    2  C   UNL     1      -8.831   9.496  70.336  1.00  0.00    -0.234 C  
HETATM    3  H   UNL     1      -7.088  10.275  69.900  1.00  0.00     0.000 HD 
HETATM    4  C   UNL     1      -9.620   9.147  71.609  1.00  0.00    -0.226 C  
HETATM    5  C   UNL     1     -10.977   8.530  71.235  1.00  0.00    -0.316 C  
HETATM    6  C   UNL     1     -10.749   7.271  70.385  1.00  0.00    -0.253 C  
HETATM    7  C   UNL     1      -9.979   7.632  69.105  1.00  0.00    -0.181 C  
HETATM    8  C   UNL     1     -10.784   8.672  68.299  1.00  0.00    -0.107 C  
HETATM    9  C   UNL     1      -8.620   8.231  69.492  1.00  0.00    -0.134 C  
HETATM   10  C   UNL     1     -11.019   9.963  69.137  1.00  0.00    -0.200 C  
HETATM   11  C   UNL     1      -9.627  10.527  69.518  1.00  0.00    -0.125 C  
HETATM   12  C   UNL     1     -11.786   9.555  70.422  1.00  0.00    -0.227 C  
ENDROOT
BRANCH  10  13
HETATM   13  N   UNL     1     -11.796  10.902  68.303  1.00  0.00    -0.730 NA 
HETATM   14  H   UNL     1     -12.771  10.921  68.603  1.00  0.00     0.000 HD 
BRANCH  13  15
HETATM   15  C   UNL     1     -11.247  12.272  68.252  1.00  0.00    -0.267 C  
BRANCH  15  16
HETATM   16  C   UNL     1     -11.625  12.972  66.944  1.00  0.00    -0.366 C  
HETATM   17  O   UNL     1     -12.335  13.979  66.965  1.00  0.00    -0.397 OA 
HETATM   18  N   UNL     1     -11.121  12.472  65.760  1.00  0.00    -0.297 N  
HETATM   19  C   UNL     1     -11.369  13.134  64.496  1.00  0.00    -0.349 C  
HETATM   20  C   UNL     1     -11.427  11.991  63.505  1.00  0.00    -0.536 C  
HETATM   21  C   UNL     1     -10.421  10.978  64.048  1.00  0.00    -0.433 C  
HETATM   22  C   UNL     1     -10.345  11.243  65.565  1.00  0.00    -0.266 C  
HETATM   23  C   UNL     1      -8.937  11.389  65.994  1.00  0.00    -0.197 C  
HETATM   24  N   UNL     1      -7.826  11.518  66.312  1.00  0.00    -0.028 NA 
ENDBRANCH  15  16
ENDBRANCH  13  15
ENDBRANCH  10  13
TORSDOF 3
ENDMDL
MODEL       81
REMARK 921   NORMALIZED FREE ENERGY PREDICTED BY IDOCK:   -5.11 KCAL/MOL
REMARK 922        TOTAL FREE ENERGY PREDICTED BY IDOCK:   -6.64 KCAL/MOL
REMARK 923 INTER-LIGAND FREE ENERGY PREDICTED BY IDOCK:   -6.01 KCAL/MOL
REMARK 924 INTRA-LIGAND FREE ENERGY PREDICTED BY IDOCK:   -0.64 KCAL/MOL
REMARK 927      BINDING AFFINITY PREDICTED BY RF-SCORE:    0.00 PKD
ROOT
HETATM    1  O   UNL     1      -6.024  15.189  69.196  1.00  0.00    -0.096 OA 
HETATM    2  C   UNL     1      -6.488  16.370  68.558  1.00  0.00    -0.134 C  
HETATM    3  H   UNL     1      -6.515  15.040  69.995  1.00  0.00     0.000 HD 
HETATM    4  C   UNL     1      -5.692  16.612  67.264  1.00  0.00    -0.188 C  
HETATM    5  C   UNL     1      -6.184  17.893  66.575  1.00  0.00    -0.216 C  
HETATM    6  C   UNL     1      -6.024  19.084  67.533  1.00  0.00    -0.186 C  
HETATM    7  C   UNL     1      -6.839  18.844  68.813  1.00  0.00    -0.311 C  
HETATM    8  C   UNL     1      -8.326  18.661  68.447  1.00  0.00    -0.362 C  
HETATM    9  C   UNL     1      -6.325  17.571  69.500  1.00  0.00    -0.230 C  
HETATM   10  C   UNL     1      -8.517  17.453  67.485  1.00  0.00    -0.214 C  
HETATM   11  C   UNL     1      -7.975  16.195  68.208  1.00  0.00    -0.152 C  
HETATM   12  C   UNL     1      -7.670  17.728  66.214  1.00  0.00    -0.308 C  
ENDROOT
BRANCH  10  13
HETATM   13  N   UNL     1      -9.957  17.348  67.178  1.00  0.00    -0.281 NA 
HETATM   14  H   UNL     1     -10.172  17.832  66.307  1.00  0.00     0.000 HD 
BRANCH  13  15
HETATM   15  C   UNL     1     -10.474  15.965  67.139  1.00  0.00    -0.313 C  
BRANCH  15  16
HETATM   16  C   UNL     1     -10.642  15.477  65.698  1.00  0.00    -0.373 C  
HETATM   17  O   UNL     1     -10.750  16.292  64.778  1.00  0.00    -0.680 OA 
HETATM   18  N   UNL     1     -10.630  14.118  65.457  1.00  0.00    -0.309 N  
HETATM   19  C   UNL     1     -10.699  13.591  64.110  1.00  0.00    -0.199 C  
HETATM   20  C   UNL     1     -11.459  12.293  64.278  1.00  0.00    -0.429 C  
HETATM   21  C   UNL     1     -11.019  11.781  65.649  1.00  0.00    -0.348 C  
HETATM   22  C   UNL     1     -10.601  13.034  66.444  1.00  0.00    -0.284 C  
HETATM   23  C   UNL     1      -9.261  12.846  67.039  1.00  0.00    -0.226 C  
HETATM   24  N   UNL     1      -8.199  12.688  67.485  1.00  0.00    -0.166 NA 
ENDBRANCH  15  16
ENDBRANCH  13  15
ENDBRANCH  10  13
TORSDOF 3
ENDMDL
MODEL       82
REMARK 921   NORMALIZED FREE ENERGY PREDICTED BY IDOCK:   -5.09 KCAL/MOL
REMARK 922        TOTAL FREE ENERGY PREDICTED BY IDOCK:   -6.62 KCAL/MOL
REMARK 923 INTER-LIGAND FREE ENERGY PREDICTED BY IDOCK:   -6.19 KCAL/MOL
REMARK 924 INTRA-LIGAND FREE ENERGY PREDICTED BY IDOCK:   -0.44 KCAL/MOL
REMARK 927      BINDING AFFINITY PREDICTED BY RF-SCORE:    0.00 PKD
ROOT
HETATM    1  O   UNL     1      -5.716  14.883  68.669  1.00  0.00    -0.085 OA 
HETATM    2  C   UNL     1      -6.931  15.508  68.278  1.00  0.00    -0.115 C  
HETATM    3  H   UNL     1      -5.896  14.018  69.018  1.00  0.00     0.000 HD 
HETATM    4  C   UNL     1      -6.638  16.908  67.712  1.00  0.00    -0.158 C  
HETATM    5  C   UNL     1      -7.950  17.591  67.296  1.00  0.00    -0.222 C  
HETATM    6  C   UNL     1      -8.885  17.689  68.510  1.00  0.00    -0.285 C  
HETATM    7  C   UNL     1      -9.189  16.284  69.056  1.00  0.00    -0.253 C  
HETATM    8  C   UNL     1      -9.851  15.438  67.950  1.00  0.00    -0.219 C  
HETATM    9  C   UNL     1      -7.873  15.621  69.485  1.00  0.00    -0.180 C  
HETATM   10  C   UNL     1      -8.917  15.315  66.711  1.00  0.00    -0.262 C  
HETATM   11  C   UNL     1      -7.599  14.655  67.187  1.00  0.00    -0.078 C  
HETATM   12  C   UNL     1      -8.626  16.750  66.199  1.00  0.00    -0.299 C  
ENDROOT
BRANCH  10  13
HETATM   13  N   UNL     1      -9.620  14.499  65.700  1.00  0.00    -0.530 NA 
HETATM   14  H   UNL     1      -8.952  13.954  65.155  1.00  0.00     0.000 HD 
BRANCH  13  15
HETATM   15  C   UNL     1     -10.674  13.622  66.248  1.00  0.00    -0.285 C  
BRANCH  15  16
HETATM   16  C   UNL     1     -10.185  12.175  66.365  1.00  0.00    -0.220 C  
HETATM   17  O   UNL     1      -9.852  11.723  67.462  1.00  0.00    -0.183 OA 
HETATM   18  N   UNL     1     -10.167  11.392  65.228  1.00  0.00    -0.257 N  
HETATM   19  C   UNL     1      -9.797   9.994  65.283  1.00  0.00    -0.318 C  
HETATM   20  C   UNL     1      -9.122   9.755  63.949  1.00  0.00    -0.275 C  
HETATM   21  C   UNL     1      -9.877  10.666  62.983  1.00  0.00    -0.318 C  
HETATM   22  C   UNL     1     -10.444  11.809  63.850  1.00  0.00    -0.390 C  
HETATM   23  C   UNL     1     -11.890  11.985  63.592  1.00  0.00    -0.506 C  
HETATM   24  N   UNL     1     -13.029  12.098  63.390  1.00  0.00    -0.747 NA 
ENDBRANCH  15  16
ENDBRANCH  13  15
ENDBRANCH  10  13
TORSDOF 3
ENDMDL
MODEL       83
REMARK 921   NORMALIZED FREE ENERGY PREDICTED BY IDOCK:   -5.08 KCAL/MOL
REMARK 922        TOTAL FREE ENERGY PREDICTED BY IDOCK:   -6.61 KCAL/MOL
REMARK 923 INTER-LIGAND FREE ENERGY PREDICTED BY IDOCK:   -6.04 KCAL/MOL
REMARK 924 INTRA-LIGAND FREE ENERGY PREDICTED BY IDOCK:   -0.57 KCAL/MOL
REMARK 927      BINDING AFFINITY PREDICTED BY RF-SCORE:    0.00 PKD
ROOT
HETATM    1  O   UNL     1     -13.725  14.024  65.535  1.00  0.00    -0.538 OA 
HETATM    2  C   UNL     1     -12.508  13.367  65.213  1.00  0.00    -0.483 C  
HETATM    3  H   UNL     1     -14.374  13.386  65.806  1.00  0.00     0.000 HD 
HETATM    4  C   UNL     1     -11.457  14.401  64.773  1.00  0.00    -0.402 C  
HETATM    5  C   UNL     1     -10.141  13.694  64.416  1.00  0.00     0.044 C  
HETATM    6  C   UNL     1     -10.394  12.677  63.293  1.00  0.00     0.201 C  
HETATM    7  C   UNL     1     -11.429  11.636  63.748  1.00  0.00    -0.457 C  
HETATM    8  C   UNL     1     -10.907  10.911  65.005  1.00  0.00    -0.142 C  
HETATM    9  C   UNL     1     -12.744  12.353  64.085  1.00  0.00    -0.446 C  
HETATM   10  C   UNL     1     -10.652  11.919  66.163  1.00  0.00    -0.258 C  
HETATM   11  C   UNL     1     -11.995  12.630  66.462  1.00  0.00    -0.401 C  
HETATM   12  C   UNL     1      -9.614  12.957  65.660  1.00  0.00    -0.036 C  
ENDROOT
BRANCH  10  13
HETATM   13  N   UNL     1     -10.152  11.154  67.322  1.00  0.00    -0.184 NA 
HETATM   14  H   UNL     1     -10.003  11.772  68.119  1.00  0.00     0.000 HD 
BRANCH  13  15
HETATM   15  C   UNL     1     -10.999  10.009  67.710  1.00  0.00    -0.249 C  
BRANCH  15  16
HETATM   16  C   UNL     1     -10.506   9.370  69.011  1.00  0.00    -0.217 C  
HETATM   17  O   UNL     1      -9.487   8.676  69.011  1.00  0.00    -0.152 OA 
HETATM   18  N   UNL     1     -11.204   9.622  70.175  1.00  0.00    -0.253 N  
HETATM   19  C   UNL     1     -10.746   9.120  71.453  1.00  0.00    -0.343 C  
HETATM   20  C   UNL     1     -12.030   8.863  72.212  1.00  0.00    -0.380 C  
HETATM   21  C   UNL     1     -12.974   9.961  71.725  1.00  0.00    -0.549 C  
HETATM   22  C   UNL     1     -12.472  10.345  70.319  1.00  0.00    -0.223 C  
HETATM   23  C   UNL     1     -12.303  11.811  70.213  1.00  0.00    -0.240 C  
HETATM   24  N   UNL     1     -12.160  12.963  70.152  1.00  0.00    -0.337 NA 
ENDBRANCH  15  16
ENDBRANCH  13  15
ENDBRANCH  10  13
TORSDOF 3
ENDMDL
MODEL       84
REMARK 921   NORMALIZED FREE ENERGY PREDICTED BY IDOCK:   -5.08 KCAL/MOL
REMARK 922        TOTAL FREE ENERGY PREDICTED BY IDOCK:   -6.61 KCAL/MOL
REMARK 923 INTER-LIGAND FREE ENERGY PREDICTED BY IDOCK:   -6.04 KCAL/MOL
REMARK 924 INTRA-LIGAND FREE ENERGY PREDICTED BY IDOCK:   -0.56 KCAL/MOL
REMARK 927      BINDING AFFINITY PREDICTED BY RF-SCORE:    0.00 PKD
ROOT
HETATM    1  O   UNL     1     -11.431   9.154  70.009  1.00  0.00    -0.421 OA 
HETATM    2  C   UNL     1     -10.610   9.510  68.906  1.00  0.00    -0.216 C  
HETATM    3  H   UNL     1     -11.672   9.932  70.497  1.00  0.00     0.000 HD 
HETATM    4  C   UNL     1     -10.221   8.250  68.116  1.00  0.00    -0.255 C  
HETATM    5  C   UNL     1      -9.326   8.630  66.927  1.00  0.00    -0.216 C  
HETATM    6  C   UNL     1      -8.070   9.350  67.441  1.00  0.00    -0.110 C  
HETATM    7  C   UNL     1      -8.467  10.619  68.211  1.00  0.00    -0.127 C  
HETATM    8  C   UNL     1      -9.264  11.554  67.279  1.00  0.00    -0.168 C  
HETATM    9  C   UNL     1      -9.346  10.223  69.405  1.00  0.00    -0.217 C  
HETATM   10  C   UNL     1     -10.549  10.851  66.752  1.00  0.00    -0.259 C  
HETATM   11  C   UNL     1     -11.399  10.457  67.985  1.00  0.00    -0.277 C  
HETATM   12  C   UNL     1     -10.106   9.572  65.994  1.00  0.00    -0.319 C  
ENDROOT
BRANCH  10  13
HETATM   13  N   UNL     1     -11.250  11.804  65.868  1.00  0.00    -0.316 NA 
HETATM   14  H   UNL     1     -11.979  11.326  65.337  1.00  0.00     0.000 HD 
BRANCH  13  15
HETATM   15  C   UNL     1     -11.808  12.982  66.560  1.00  0.00    -0.403 C  
BRANCH  15  16
HETATM   16  C   UNL     1     -11.466  14.276  65.815  1.00  0.00    -0.335 C  
HETATM   17  O   UNL     1     -11.825  14.428  64.645  1.00  0.00    -0.405 OA 
HETATM   18  N   UNL     1     -10.790  15.268  66.494  1.00  0.00    -0.313 N  
HETATM   19  C   UNL     1     -10.509  16.548  65.877  1.00  0.00    -0.323 C  
HETATM   20  C   UNL     1      -9.186  16.953  66.490  1.00  0.00    -0.295 C  
HETATM   21  C   UNL     1      -9.251  16.398  67.912  1.00  0.00    -0.202 C  
HETATM   22  C   UNL     1     -10.223  15.202  67.845  1.00  0.00    -0.232 C  
HETATM   23  C   UNL     1     -11.255  15.315  68.898  1.00  0.00    -0.285 C  
HETATM   24  N   UNL     1     -12.069  15.429  69.720  1.00  0.00    -0.350 NA 
ENDBRANCH  15  16
ENDBRANCH  13  15
ENDBRANCH  10  13
TORSDOF 3
ENDMDL
MODEL       85
REMARK 921   NORMALIZED FREE ENERGY PREDICTED BY IDOCK:   -5.07 KCAL/MOL
REMARK 922        TOTAL FREE ENERGY PREDICTED BY IDOCK:   -6.60 KCAL/MOL
REMARK 923 INTER-LIGAND FREE ENERGY PREDICTED BY IDOCK:   -6.00 KCAL/MOL
REMARK 924 INTRA-LIGAND FREE ENERGY PREDICTED BY IDOCK:   -0.60 KCAL/MOL
REMARK 927      BINDING AFFINITY PREDICTED BY RF-SCORE:    0.00 PKD
ROOT
HETATM    1  O   UNL     1      -8.592  13.939  68.757  1.00  0.00    -0.314 OA 
HETATM    2  C   UNL     1      -9.535  13.172  68.023  1.00  0.00    -0.220 C  
HETATM    3  H   UNL     1      -8.620  13.693  69.674  1.00  0.00     0.000 HD 
HETATM    4  C   UNL     1      -9.490  13.570  66.538  1.00  0.00    -0.265 C  
HETATM    5  C   UNL     1     -10.515  12.749  65.741  1.00  0.00    -0.294 C  
HETATM    6  C   UNL     1     -11.919  12.985  66.316  1.00  0.00    -0.477 C  
HETATM    7  C   UNL     1     -11.962  12.565  67.794  1.00  0.00    -0.286 C  
HETATM    8  C   UNL     1     -11.590  11.073  67.912  1.00  0.00    -0.306 C  
HETATM    9  C   UNL     1     -10.946  13.405  68.581  1.00  0.00    -0.288 C  
HETATM   10  C   UNL     1     -10.165  10.808  67.345  1.00  0.00    -0.204 C  
HETATM   11  C   UNL     1      -9.175  11.682  68.155  1.00  0.00    -0.184 C  
HETATM   12  C   UNL     1     -10.161  11.256  65.860  1.00  0.00    -0.298 C  
ENDROOT
BRANCH  10  13
HETATM   13  N   UNL     1      -9.886   9.365  67.489  1.00  0.00    -0.164 NA 
HETATM   14  H   UNL     1      -8.881   9.199  67.532  1.00  0.00     0.000 HD 
BRANCH  13  15
HETATM   15  C   UNL     1     -10.562   8.724  68.634  1.00  0.00    -0.139 C  
BRANCH  15  16
HETATM   16  C   UNL     1      -9.606   8.551  69.817  1.00  0.00    -0.170 C  
HETATM   17  O   UNL     1      -8.387   8.549  69.630  1.00  0.00    -0.116 OA 
HETATM   18  N   UNL     1     -10.139   8.438  71.084  1.00  0.00    -0.188 N  
HETATM   19  C   UNL     1      -9.291   8.357  72.255  1.00  0.00    -0.286 C  
HETATM   20  C   UNL     1     -10.075   7.470  73.198  1.00  0.00    -0.362 C  
HETATM   21  C   UNL     1     -11.534   7.818  72.907  1.00  0.00    -0.359 C  
HETATM   22  C   UNL     1     -11.554   8.333  71.454  1.00  0.00    -0.280 C  
HETATM   23  C   UNL     1     -12.258   9.631  71.375  1.00  0.00    -0.385 C  
HETATM   24  N   UNL     1     -12.799  10.659  71.333  1.00  0.00    -0.416 NA 
ENDBRANCH  15  16
ENDBRANCH  13  15
ENDBRANCH  10  13
TORSDOF 3
ENDMDL
MODEL       86
REMARK 921   NORMALIZED FREE ENERGY PREDICTED BY IDOCK:   -5.07 KCAL/MOL
REMARK 922        TOTAL FREE ENERGY PREDICTED BY IDOCK:   -6.60 KCAL/MOL
REMARK 923 INTER-LIGAND FREE ENERGY PREDICTED BY IDOCK:   -6.14 KCAL/MOL
REMARK 924 INTRA-LIGAND FREE ENERGY PREDICTED BY IDOCK:   -0.46 KCAL/MOL
REMARK 927      BINDING AFFINITY PREDICTED BY RF-SCORE:    0.00 PKD
ROOT
HETATM    1  O   UNL     1     -11.936  15.717  69.158  1.00  0.00    -0.447 OA 
HETATM    2  C   UNL     1     -11.140  15.646  67.984  1.00  0.00    -0.335 C  
HETATM    3  H   UNL     1     -12.799  16.049  68.944  1.00  0.00     0.000 HD 
HETATM    4  C   UNL     1      -9.741  15.109  68.332  1.00  0.00    -0.212 C  
HETATM    5  C   UNL     1      -8.875  15.039  67.065  1.00  0.00    -0.257 C  
HETATM    6  C   UNL     1      -8.770  16.437  66.438  1.00  0.00    -0.355 C  
HETATM    7  C   UNL     1     -10.170  16.957  66.074  1.00  0.00    -0.350 C  
HETATM    8  C   UNL     1     -10.835  15.984  65.080  1.00  0.00    -0.421 C  
HETATM    9  C   UNL     1     -11.019  17.039  67.350  1.00  0.00    -0.065 C  
HETATM   10  C   UNL     1     -10.963  14.561  65.697  1.00  0.00    -0.323 C  
HETATM   11  C   UNL     1     -11.812  14.689  66.985  1.00  0.00    -0.358 C  
HETATM   12  C   UNL     1      -9.534  14.078  66.060  1.00  0.00    -0.164 C  
ENDROOT
BRANCH  10  13
HETATM   13  N   UNL     1     -11.600  13.691  64.688  1.00  0.00    -0.356 NA 
HETATM   14  H   UNL     1     -11.058  13.690  63.824  1.00  0.00     0.000 HD 
BRANCH  13  15
HETATM   15  C   UNL     1     -11.846  12.308  65.141  1.00  0.00    -0.350 C  
BRANCH  15  16
HETATM   16  C   UNL     1     -10.708  11.375  64.718  1.00  0.00    -0.298 C  
HETATM   17  O   UNL     1     -10.163  11.523  63.622  1.00  0.00    -0.323 OA 
HETATM   18  N   UNL     1     -10.289  10.403  65.603  1.00  0.00    -0.230 N  
HETATM   19  C   UNL     1      -9.164   9.543  65.302  1.00  0.00    -0.247 C  
HETATM   20  C   UNL     1      -9.528   8.237  65.976  1.00  0.00    -0.189 C  
HETATM   21  C   UNL     1     -10.292   8.666  67.227  1.00  0.00    -0.366 C  
HETATM   22  C   UNL     1     -10.891  10.047  66.893  1.00  0.00    -0.082 C  
HETATM   23  C   UNL     1     -10.567  11.023  67.956  1.00  0.00    -0.204 C  
HETATM   24  N   UNL     1     -10.289  11.781  68.793  1.00  0.00    -0.205 NA 
ENDBRANCH  15  16
ENDBRANCH  13  15
ENDBRANCH  10  13
TORSDOF 3
ENDMDL
MODEL       87
REMARK 921   NORMALIZED FREE ENERGY PREDICTED BY IDOCK:   -5.05 KCAL/MOL
REMARK 922        TOTAL FREE ENERGY PREDICTED BY IDOCK:   -6.58 KCAL/MOL
REMARK 923 INTER-LIGAND FREE ENERGY PREDICTED BY IDOCK:   -6.19 KCAL/MOL
REMARK 924 INTRA-LIGAND FREE ENERGY PREDICTED BY IDOCK:   -0.39 KCAL/MOL
REMARK 927      BINDING AFFINITY PREDICTED BY RF-SCORE:    0.00 PKD
ROOT
HETATM    1  O   UNL     1     -10.817   5.400  69.498  1.00  0.00    -0.269 OA 
HETATM    2  C   UNL     1     -10.778   6.581  70.287  1.00  0.00    -0.255 C  
HETATM    3  H   UNL     1     -11.594   5.402  68.952  1.00  0.00     0.000 HD 
HETATM    4  C   UNL     1      -9.520   6.577  71.171  1.00  0.00    -0.173 C  
HETATM    5  C   UNL     1      -9.479   7.849  72.032  1.00  0.00    -0.230 C  
HETATM    6  C   UNL     1     -10.744   7.921  72.901  1.00  0.00    -0.440 C  
HETATM    7  C   UNL     1     -11.995   7.945  72.009  1.00  0.00    -0.364 C  
HETATM    8  C   UNL     1     -11.932   9.168  71.072  1.00  0.00    -0.344 C  
HETATM    9  C   UNL     1     -12.033   6.662  71.168  1.00  0.00    -0.412 C  
HETATM   10  C   UNL     1     -10.663   9.113  70.172  1.00  0.00    -0.233 C  
HETATM   11  C   UNL     1     -10.733   7.801  69.352  1.00  0.00    -0.177 C  
HETATM   12  C   UNL     1      -9.426   9.078  71.108  1.00  0.00    -0.348 C  
ENDROOT
BRANCH  10  13
HETATM   13  N   UNL     1     -10.672  10.314  69.312  1.00  0.00    -0.219 NA 
HETATM   14  H   UNL     1     -10.704  11.160  69.882  1.00  0.00     0.000 HD 
BRANCH  13  15
HETATM   15  C   UNL     1      -9.555  10.384  68.349  1.00  0.00    -0.148 C  
BRANCH  15  16
HETATM   16  C   UNL     1     -10.069  10.538  66.915  1.00  0.00    -0.216 C  
HETATM   17  O   UNL     1     -10.178   9.548  66.188  1.00  0.00    -0.273 OA 
HETATM   18  N   UNL     1     -10.438  11.794  66.478  1.00  0.00    -0.223 N  
HETATM   19  C   UNL     1     -11.011  11.998  65.164  1.00  0.00    -0.310 C  
HETATM   20  C   UNL     1     -10.513  13.372  64.772  1.00  0.00    -0.419 C  
HETATM   21  C   UNL     1     -10.465  14.140  66.092  1.00  0.00    -0.297 C  
HETATM   22  C   UNL     1     -10.284  13.069  67.187  1.00  0.00    -0.243 C  
HETATM   23  C   UNL     1     -11.289  13.247  68.257  1.00  0.00    -0.300 C  
HETATM   24  N   UNL     1     -12.096  13.391  69.080  1.00  0.00    -0.301 NA 
ENDBRANCH  15  16
ENDBRANCH  13  15
ENDBRANCH  10  13
TORSDOF 3
ENDMDL
MODEL       88
REMARK 921   NORMALIZED FREE ENERGY PREDICTED BY IDOCK:   -5.04 KCAL/MOL
REMARK 922        TOTAL FREE ENERGY PREDICTED BY IDOCK:   -6.56 KCAL/MOL
REMARK 923 INTER-LIGAND FREE ENERGY PREDICTED BY IDOCK:   -6.03 KCAL/MOL
REMARK 924 INTRA-LIGAND FREE ENERGY PREDICTED BY IDOCK:   -0.53 KCAL/MOL
REMARK 927      BINDING AFFINITY PREDICTED BY RF-SCORE:    0.00 PKD
ROOT
HETATM    1  O   UNL     1      -8.140   5.284  70.618  1.00  0.00    -0.103 OA 
HETATM    2  C   UNL     1      -9.120   6.198  71.088  1.00  0.00    -0.146 C  
HETATM    3  H   UNL     1      -8.516   4.720  69.954  1.00  0.00     0.000 HD 
HETATM    4  C   UNL     1      -8.510   7.113  72.163  1.00  0.00    -0.118 C  
HETATM    5  C   UNL     1      -9.570   8.097  72.680  1.00  0.00    -0.352 C  
HETATM    6  C   UNL     1     -10.759   7.314  73.256  1.00  0.00    -0.428 C  
HETATM    7  C   UNL     1     -11.376   6.419  72.169  1.00  0.00    -0.332 C  
HETATM    8  C   UNL     1     -11.846   7.295  70.990  1.00  0.00    -0.352 C  
HETATM    9  C   UNL     1     -10.312   5.429  71.675  1.00  0.00    -0.280 C  
HETATM   10  C   UNL     1     -10.656   8.092  70.382  1.00  0.00    -0.224 C  
HETATM   11  C   UNL     1      -9.601   7.061  69.908  1.00  0.00    -0.159 C  
HETATM   12  C   UNL     1     -10.054   8.971  71.510  1.00  0.00    -0.409 C  
ENDROOT
BRANCH  10  13
HETATM   13  N   UNL     1     -11.184   8.906  69.269  1.00  0.00    -0.422 NA 
HETATM   14  H   UNL     1     -12.021   9.410  69.562  1.00  0.00     0.000 HD 
BRANCH  13  15
HETATM   15  C   UNL     1     -10.205   9.837  68.674  1.00  0.00    -0.190 C  
BRANCH  15  16
HETATM   16  C   UNL     1     -10.877  10.786  67.678  1.00  0.00    -0.279 C  
HETATM   17  O   UNL     1     -10.949  10.480  66.486  1.00  0.00    -0.125 OA 
HETATM   18  N   UNL     1     -11.426  11.960  68.153  1.00  0.00    -0.295 N  
HETATM   19  C   UNL     1     -12.150  12.861  67.281  1.00  0.00    -0.212 C  
HETATM   20  C   UNL     1     -11.851  14.227  67.860  1.00  0.00    -0.393 C  
HETATM   21  C   UNL     1     -11.754  13.979  69.364  1.00  0.00    -0.365 C  
HETATM   22  C   UNL     1     -11.343  12.501  69.514  1.00  0.00    -0.171 C  
HETATM   23  C   UNL     1     -12.247  11.805  70.456  1.00  0.00    -0.347 C  
HETATM   24  N   UNL     1     -12.976  11.270  71.185  1.00  0.00    -0.329 NA 
ENDBRANCH  15  16
ENDBRANCH  13  15
ENDBRANCH  10  13
TORSDOF 3
ENDMDL
MODEL       89
REMARK 921   NORMALIZED FREE ENERGY PREDICTED BY IDOCK:   -5.02 KCAL/MOL
REMARK 922        TOTAL FREE ENERGY PREDICTED BY IDOCK:   -6.55 KCAL/MOL
REMARK 923 INTER-LIGAND FREE ENERGY PREDICTED BY IDOCK:   -6.16 KCAL/MOL
REMARK 924 INTRA-LIGAND FREE ENERGY PREDICTED BY IDOCK:   -0.39 KCAL/MOL
REMARK 927      BINDING AFFINITY PREDICTED BY RF-SCORE:    0.00 PKD
ROOT
HETATM    1  O   UNL     1     -12.250  12.339  66.058  1.00  0.00    -0.646 OA 
HETATM    2  C   UNL     1     -11.052  11.678  66.440  1.00  0.00    -0.291 C  
HETATM    3  H   UNL     1     -12.904  11.701  65.800  1.00  0.00     0.000 HD 
HETATM    4  C   UNL     1      -9.994  12.713  66.858  1.00  0.00    -0.232 C  
HETATM    5  C   UNL     1      -8.694  12.001  67.263  1.00  0.00    -0.175 C  
HETATM    6  C   UNL     1      -8.183  11.159  66.085  1.00  0.00    -0.128 C  
HETATM    7  C   UNL     1      -9.237  10.113  65.687  1.00  0.00    -0.232 C  
HETATM    8  C   UNL     1      -9.535   9.202  66.895  1.00  0.00    -0.222 C  
HETATM    9  C   UNL     1     -10.524  10.838  65.268  1.00  0.00    -0.282 C  
HETATM   10  C   UNL     1     -10.065  10.032  68.100  1.00  0.00    -0.159 C  
HETATM   11  C   UNL     1     -11.353  10.756  67.633  1.00  0.00    -0.328 C  
HETATM   12  C   UNL     1      -8.980  11.080  68.461  1.00  0.00    -0.163 C  
ENDROOT
BRANCH  10  13
HETATM   13  N   UNL     1     -10.320   9.094  69.212  1.00  0.00    -0.211 NA 
HETATM   14  H   UNL     1      -9.601   8.371  69.240  1.00  0.00     0.000 HD 
BRANCH  13  15
HETATM   15  C   UNL     1     -10.455   9.736  70.534  1.00  0.00    -0.301 C  
BRANCH  15  16
HETATM   16  C   UNL     1      -9.936   8.823  71.649  1.00  0.00    -0.311 C  
HETATM   17  O   UNL     1      -8.804   8.991  72.107  1.00  0.00    -0.376 OA 
HETATM   18  N   UNL     1     -10.776   7.848  72.146  1.00  0.00    -0.238 N  
HETATM   19  C   UNL     1     -10.380   7.006  73.256  1.00  0.00    -0.309 C  
HETATM   20  C   UNL     1     -11.065   5.689  72.962  1.00  0.00    -0.327 C  
HETATM   21  C   UNL     1     -12.375   6.094  72.289  1.00  0.00    -0.106 C  
HETATM   22  C   UNL     1     -12.103   7.471  71.649  1.00  0.00    -0.311 C  
HETATM   23  C   UNL     1     -13.150   8.439  72.040  1.00  0.00    -0.352 C  
HETATM   24  N   UNL     1     -13.972   9.192  72.371  1.00  0.00    -0.464 NA 
ENDBRANCH  15  16
ENDBRANCH  13  15
ENDBRANCH  10  13
TORSDOF 3
ENDMDL
MODEL       90
REMARK 921   NORMALIZED FREE ENERGY PREDICTED BY IDOCK:   -5.02 KCAL/MOL
REMARK 922        TOTAL FREE ENERGY PREDICTED BY IDOCK:   -6.54 KCAL/MOL
REMARK 923 INTER-LIGAND FREE ENERGY PREDICTED BY IDOCK:   -6.06 KCAL/MOL
REMARK 924 INTRA-LIGAND FREE ENERGY PREDICTED BY IDOCK:   -0.49 KCAL/MOL
REMARK 927      BINDING AFFINITY PREDICTED BY RF-SCORE:    0.00 PKD
ROOT
HETATM    1  O   UNL     1      -9.455   8.938  64.894  1.00  0.00    -0.414 OA 
HETATM    2  C   UNL     1      -9.665  10.002  65.811  1.00  0.00    -0.257 C  
HETATM    3  H   UNL     1      -8.890   8.282  65.284  1.00  0.00     0.000 HD 
HETATM    4  C   UNL     1     -10.581  11.064  65.179  1.00  0.00    -0.295 C  
HETATM    5  C   UNL     1     -10.803  12.221  66.165  1.00  0.00    -0.314 C  
HETATM    6  C   UNL     1      -9.449  12.838  66.544  1.00  0.00    -0.253 C  
HETATM    7  C   UNL     1      -8.549  11.775  67.195  1.00  0.00    -0.168 C  
HETATM    8  C   UNL     1      -9.243  11.218  68.454  1.00  0.00    -0.178 C  
HETATM    9  C   UNL     1      -8.320  10.635  66.193  1.00  0.00    -0.158 C  
HETATM   10  C   UNL     1     -10.614  10.576  68.094  1.00  0.00    -0.204 C  
HETATM   11  C   UNL     1     -10.342   9.442  67.074  1.00  0.00    -0.322 C  
HETATM   12  C   UNL     1     -11.486  11.675  67.431  1.00  0.00    -0.357 C  
ENDROOT
BRANCH  10  13
HETATM   13  N   UNL     1     -11.215  10.072  69.345  1.00  0.00    -0.347 NA 
HETATM   14  H   UNL     1     -12.223  10.231  69.345  1.00  0.00     0.000 HD 
BRANCH  13  15
HETATM   15  C   UNL     1     -10.918   8.657  69.639  1.00  0.00    -0.091 C  
BRANCH  15  16
HETATM   16  C   UNL     1     -10.318   8.495  71.039  1.00  0.00    -0.209 C  
HETATM   17  O   UNL     1      -9.374   9.205  71.391  1.00  0.00    -0.254 OA 
HETATM   18  N   UNL     1     -10.882   7.573  71.896  1.00  0.00    -0.223 N  
HETATM   19  C   UNL     1     -10.419   7.428  73.260  1.00  0.00    -0.374 C  
HETATM   20  C   UNL     1     -10.614   5.954  73.545  1.00  0.00    -0.289 C  
HETATM   21  C   UNL     1     -11.869   5.587  72.755  1.00  0.00    -0.169 C  
HETATM   22  C   UNL     1     -11.940   6.602  71.595  1.00  0.00    -0.347 C  
HETATM   23  C   UNL     1     -13.279   7.225  71.534  1.00  0.00    -0.379 C  
HETATM   24  N   UNL     1     -14.332   7.717  71.510  1.00  0.00    -0.453 NA 
ENDBRANCH  15  16
ENDBRANCH  13  15
ENDBRANCH  10  13
TORSDOF 3
ENDMDL
MODEL       91
REMARK 921   NORMALIZED FREE ENERGY PREDICTED BY IDOCK:   -4.98 KCAL/MOL
REMARK 922        TOTAL FREE ENERGY PREDICTED BY IDOCK:   -6.50 KCAL/MOL
REMARK 923 INTER-LIGAND FREE ENERGY PREDICTED BY IDOCK:   -6.09 KCAL/MOL
REMARK 924 INTRA-LIGAND FREE ENERGY PREDICTED BY IDOCK:   -0.40 KCAL/MOL
REMARK 927      BINDING AFFINITY PREDICTED BY RF-SCORE:    0.00 PKD
ROOT
HETATM    1  O   UNL     1      -8.615  12.148  67.360  1.00  0.00    -0.159 OA 
HETATM    2  C   UNL     1      -9.728  12.830  66.798  1.00  0.00    -0.243 C  
HETATM    3  H   UNL     1      -7.835  12.326  66.847  1.00  0.00     0.000 HD 
HETATM    4  C   UNL     1     -10.990  12.542  67.629  1.00  0.00    -0.279 C  
HETATM    5  C   UNL     1     -12.198  13.270  67.020  1.00  0.00    -0.310 C  
HETATM    6  C   UNL     1     -12.396  12.808  65.569  1.00  0.00    -0.495 C  
HETATM    7  C   UNL     1     -11.138  13.118  64.741  1.00  0.00    -0.351 C  
HETATM    8  C   UNL     1     -10.864  14.636  64.777  1.00  0.00    -0.402 C  
HETATM    9  C   UNL     1      -9.944  12.371  65.349  1.00  0.00    -0.253 C  
HETATM   10  C   UNL     1     -10.648  15.127  66.237  1.00  0.00    -0.310 C  
HETATM   11  C   UNL     1      -9.446  14.341  66.818  1.00  0.00    -0.287 C  
HETATM   12  C   UNL     1     -11.931  14.785  67.040  1.00  0.00    -0.225 C  
ENDROOT
BRANCH  10  13
HETATM   13  N   UNL     1     -10.397  16.582  66.188  1.00  0.00    -0.331 NA 
HETATM   14  H   UNL     1     -11.075  17.079  66.765  1.00  0.00     0.000 HD 
BRANCH  13  15
HETATM   15  C   UNL     1      -9.023  16.977  66.553  1.00  0.00    -0.269 C  
BRANCH  15  16
HETATM   16  C   UNL     1      -8.886  18.500  66.631  1.00  0.00    -0.294 C  
HETATM   17  O   UNL     1      -9.833  19.222  66.311  1.00  0.00    -0.355 OA 
HETATM   18  N   UNL     1      -7.703  19.033  67.100  1.00  0.00    -0.233 N  
HETATM   19  C   UNL     1      -7.537  20.460  67.279  1.00  0.00    -0.331 C  
HETATM   20  C   UNL     1      -6.070  20.684  66.979  1.00  0.00    -0.267 C  
HETATM   21  C   UNL     1      -5.389  19.416  67.489  1.00  0.00    -0.170 C  
HETATM   22  C   UNL     1      -6.467  18.315  67.430  1.00  0.00    -0.185 C  
HETATM   23  C   UNL     1      -6.553  17.606  68.725  1.00  0.00    -0.218 C  
HETATM   24  N   UNL     1      -6.619  17.071  69.755  1.00  0.00    -0.128 NA 
ENDBRANCH  15  16
ENDBRANCH  13  15
ENDBRANCH  10  13
TORSDOF 3
ENDMDL
MODEL       92
REMARK 921   NORMALIZED FREE ENERGY PREDICTED BY IDOCK:   -4.98 KCAL/MOL
REMARK 922        TOTAL FREE ENERGY PREDICTED BY IDOCK:   -6.49 KCAL/MOL
REMARK 923 INTER-LIGAND FREE ENERGY PREDICTED BY IDOCK:   -6.07 KCAL/MOL
REMARK 924 INTRA-LIGAND FREE ENERGY PREDICTED BY IDOCK:   -0.42 KCAL/MOL
REMARK 927      BINDING AFFINITY PREDICTED BY RF-SCORE:    0.00 PKD
ROOT
HETATM    1  O   UNL     1      -8.608   6.581  72.852  1.00  0.00    -0.123 OA 
HETATM    2  C   UNL     1      -9.636   7.070  72.003  1.00  0.00    -0.138 C  
HETATM    3  H   UNL     1      -7.997   6.054  72.350  1.00  0.00     0.000 HD 
HETATM    4  C   UNL     1     -10.624   7.923  72.817  1.00  0.00    -0.418 C  
HETATM    5  C   UNL     1     -11.742   8.447  71.904  1.00  0.00    -0.398 C  
HETATM    6  C   UNL     1     -12.469   7.261  71.252  1.00  0.00    -0.402 C  
HETATM    7  C   UNL     1     -11.480   6.426  70.424  1.00  0.00    -0.458 C  
HETATM    8  C   UNL     1     -10.846   7.316  69.336  1.00  0.00    -0.206 C  
HETATM    9  C   UNL     1     -10.378   5.895  71.351  1.00  0.00    -0.271 C  
HETATM   10  C   UNL     1     -10.093   8.521  69.972  1.00  0.00    -0.192 C  
HETATM   11  C   UNL     1      -9.002   7.943  70.908  1.00  0.00    -0.147 C  
HETATM   12  C   UNL     1     -11.121   9.328  70.807  1.00  0.00    -0.349 C  
ENDROOT
BRANCH  10  13
HETATM   13  N   UNL     1      -9.521   9.323  68.871  1.00  0.00    -0.152 NA 
HETATM   14  H   UNL     1      -9.359   8.738  68.051  1.00  0.00     0.000 HD 
BRANCH  13  15
HETATM   15  C   UNL     1     -10.315  10.512  68.506  1.00  0.00    -0.179 C  
BRANCH  15  16
HETATM   16  C   UNL     1      -9.455  11.780  68.522  1.00  0.00    -0.163 C  
HETATM   17  O   UNL     1      -8.261  11.711  68.819  1.00  0.00    -0.134 OA 
HETATM   18  N   UNL     1     -10.039  12.976  68.160  1.00  0.00    -0.232 N  
HETATM   19  C   UNL     1      -9.265  14.197  68.071  1.00  0.00    -0.195 C  
HETATM   20  C   UNL     1     -10.251  15.271  68.478  1.00  0.00    -0.224 C  
HETATM   21  C   UNL     1     -11.590  14.765  67.944  1.00  0.00    -0.373 C  
HETATM   22  C   UNL     1     -11.454  13.231  67.872  1.00  0.00    -0.306 C  
HETATM   23  C   UNL     1     -11.858  12.739  66.537  1.00  0.00    -0.405 C  
HETATM   24  N   UNL     1     -12.162  12.370  65.477  1.00  0.00    -0.604 NA 
ENDBRANCH  15  16
ENDBRANCH  13  15
ENDBRANCH  10  13
TORSDOF 3
ENDMDL
MODEL       93
REMARK 921   NORMALIZED FREE ENERGY PREDICTED BY IDOCK:   -4.95 KCAL/MOL
REMARK 922        TOTAL FREE ENERGY PREDICTED BY IDOCK:   -6.46 KCAL/MOL
REMARK 923 INTER-LIGAND FREE ENERGY PREDICTED BY IDOCK:   -6.06 KCAL/MOL
REMARK 924 INTRA-LIGAND FREE ENERGY PREDICTED BY IDOCK:   -0.40 KCAL/MOL
REMARK 927      BINDING AFFINITY PREDICTED BY RF-SCORE:    0.00 PKD
ROOT
HETATM    1  O   UNL     1     -11.202   7.174  67.010  1.00  0.00    -0.554 OA 
HETATM    2  C   UNL     1     -10.191   7.944  67.645  1.00  0.00    -0.226 C  
HETATM    3  H   UNL     1     -11.834   6.878  67.654  1.00  0.00     0.000 HD 
HETATM    4  C   UNL     1      -9.167   8.424  66.602  1.00  0.00    -0.226 C  
HETATM    5  C   UNL     1      -8.068   9.250  67.286  1.00  0.00    -0.113 C  
HETATM    6  C   UNL     1      -7.378   8.395  68.359  1.00  0.00    -0.094 C  
HETATM    7  C   UNL     1      -8.403   7.938  69.409  1.00  0.00    -0.132 C  
HETATM    8  C   UNL     1      -9.055   9.175  70.060  1.00  0.00    -0.207 C  
HETATM    9  C   UNL     1      -9.486   7.099  68.715  1.00  0.00    -0.141 C  
HETATM   10  C   UNL     1      -9.771  10.052  68.993  1.00  0.00    -0.199 C  
HETATM   11  C   UNL     1     -10.843   9.168  68.309  1.00  0.00    -0.104 C  
HETATM   12  C   UNL     1      -8.706  10.482  67.949  1.00  0.00    -0.126 C  
ENDROOT
BRANCH  10  13
HETATM   13  N   UNL     1     -10.361  11.212  69.691  1.00  0.00    -0.440 NA 
HETATM   14  H   UNL     1      -9.767  12.034  69.581  1.00  0.00     0.000 HD 
BRANCH  13  15
HETATM   15  C   UNL     1     -11.748  11.524  69.293  1.00  0.00    -0.330 C  
BRANCH  15  16
HETATM   16  C   UNL     1     -11.782  12.553  68.160  1.00  0.00    -0.348 C  
HETATM   17  O   UNL     1     -11.916  12.182  66.992  1.00  0.00    -0.593 OA 
HETATM   18  N   UNL     1     -11.697  13.892  68.484  1.00  0.00    -0.334 N  
HETATM   19  C   UNL     1     -11.807  14.921  67.471  1.00  0.00    -0.232 C  
HETATM   20  C   UNL     1     -10.902  16.020  67.985  1.00  0.00    -0.335 C  
HETATM   21  C   UNL     1     -11.046  15.939  69.504  1.00  0.00    -0.315 C  
HETATM   22  C   UNL     1     -11.446  14.480  69.804  1.00  0.00    -0.279 C  
HETATM   23  C   UNL     1     -12.639  14.440  70.677  1.00  0.00    -0.357 C  
HETATM   24  N   UNL     1     -13.587  14.426  71.350  1.00  0.00    -0.370 NA 
ENDBRANCH  15  16
ENDBRANCH  13  15
ENDBRANCH  10  13
TORSDOF 3
ENDMDL
MODEL       94
REMARK 921   NORMALIZED FREE ENERGY PREDICTED BY IDOCK:   -4.95 KCAL/MOL
REMARK 922        TOTAL FREE ENERGY PREDICTED BY IDOCK:   -6.46 KCAL/MOL
REMARK 923 INTER-LIGAND FREE ENERGY PREDICTED BY IDOCK:   -5.90 KCAL/MOL
REMARK 924 INTRA-LIGAND FREE ENERGY PREDICTED BY IDOCK:   -0.55 KCAL/MOL
REMARK 927      BINDING AFFINITY PREDICTED BY RF-SCORE:    0.00 PKD
ROOT
HETATM    1  O   UNL     1     -13.271   8.248  72.751  1.00  0.00    -0.592 OA 
HETATM    2  C   UNL     1     -12.009   8.025  72.140  1.00  0.00    -0.348 C  
HETATM    3  H   UNL     1     -13.867   8.644  72.127  1.00  0.00     0.000 HD 
HETATM    4  C   UNL     1     -11.044   7.384  73.151  1.00  0.00    -0.357 C  
HETATM    5  C   UNL     1      -9.674   7.150  72.495  1.00  0.00    -0.180 C  
HETATM    6  C   UNL     1      -9.112   8.488  71.993  1.00  0.00    -0.317 C  
HETATM    7  C   UNL     1     -10.071   9.112  70.968  1.00  0.00    -0.373 C  
HETATM    8  C   UNL     1     -10.256   8.141  69.783  1.00  0.00    -0.203 C  
HETATM    9  C   UNL     1     -11.429   9.356  71.640  1.00  0.00    -0.463 C  
HETATM   10  C   UNL     1     -10.836   6.780  70.265  1.00  0.00    -0.270 C  
HETATM   11  C   UNL     1     -12.195   7.071  70.948  1.00  0.00    -0.388 C  
HETATM   12  C   UNL     1      -9.846   6.191  71.305  1.00  0.00    -0.204 C  
ENDROOT
BRANCH  10  13
HETATM   13  N   UNL     1     -10.978   5.909  69.081  1.00  0.00    -0.341 NA 
HETATM   14  H   UNL     1     -11.810   5.326  69.166  1.00  0.00     0.000 HD 
BRANCH  13  15
HETATM   15  C   UNL     1     -10.983   6.628  67.791  1.00  0.00    -0.281 C  
BRANCH  15  16
HETATM   16  C   UNL     1     -10.233   5.839  66.714  1.00  0.00    -0.221 C  
HETATM   17  O   UNL     1     -10.625   4.717  66.384  1.00  0.00    -0.284 OA 
HETATM   18  N   UNL     1      -9.145   6.428  66.104  1.00  0.00    -0.153 N  
HETATM   19  C   UNL     1      -8.442   5.773  65.020  1.00  0.00    -0.124 C  
HETATM   20  C   UNL     1      -7.010   6.227  65.204  1.00  0.00    -0.056 C  
HETATM   21  C   UNL     1      -7.137   7.650  65.744  1.00  0.00    -0.061 C  
HETATM   22  C   UNL     1      -8.509   7.705  66.446  1.00  0.00    -0.137 C  
HETATM   23  C   UNL     1      -9.287   8.869  65.972  1.00  0.00    -0.242 C  
HETATM   24  N   UNL     1      -9.892   9.780  65.575  1.00  0.00    -0.310 NA 
ENDBRANCH  15  16
ENDBRANCH  13  15
ENDBRANCH  10  13
TORSDOF 3
ENDMDL
MODEL       95
REMARK 921   NORMALIZED FREE ENERGY PREDICTED BY IDOCK:   -4.94 KCAL/MOL
REMARK 922        TOTAL FREE ENERGY PREDICTED BY IDOCK:   -6.45 KCAL/MOL
REMARK 923 INTER-LIGAND FREE ENERGY PREDICTED BY IDOCK:   -5.96 KCAL/MOL
REMARK 924 INTRA-LIGAND FREE ENERGY PREDICTED BY IDOCK:   -0.49 KCAL/MOL
REMARK 927      BINDING AFFINITY PREDICTED BY RF-SCORE:    0.00 PKD
ROOT
HETATM    1  O   UNL     1     -12.624  14.297  68.598  1.00  0.00    -0.506 OA 
HETATM    2  C   UNL     1     -11.686  14.148  67.542  1.00  0.00    -0.386 C  
HETATM    3  H   UNL     1     -13.297  13.631  68.528  1.00  0.00     0.000 HD 
HETATM    4  C   UNL     1     -10.595  15.227  67.655  1.00  0.00    -0.270 C  
HETATM    5  C   UNL     1      -9.584  15.075  66.509  1.00  0.00    -0.299 C  
HETATM    6  C   UNL     1     -10.314  15.192  65.163  1.00  0.00    -0.416 C  
HETATM    7  C   UNL     1     -11.387  14.097  65.049  1.00  0.00    -0.350 C  
HETATM    8  C   UNL     1     -10.720  12.712  65.166  1.00  0.00    -0.321 C  
HETATM    9  C   UNL     1     -12.400  14.272  66.188  1.00  0.00    -0.411 C  
HETATM   10  C   UNL     1      -9.982  12.564  66.528  1.00  0.00    -0.244 C  
HETATM   11  C   UNL     1     -11.033  12.760  67.649  1.00  0.00    -0.274 C  
HETATM   12  C   UNL     1      -8.918  13.691  66.609  1.00  0.00    -0.138 C  
ENDROOT
BRANCH  10  13
HETATM   13  N   UNL     1      -9.368  11.221  66.562  1.00  0.00    -0.180 NA 
HETATM   14  H   UNL     1      -9.164  10.948  67.523  1.00  0.00     0.000 HD 
BRANCH  13  15
HETATM   15  C   UNL     1     -10.157  10.173  65.885  1.00  0.00    -0.254 C  
BRANCH  15  16
HETATM   16  C   UNL     1      -9.298   8.941  65.586  1.00  0.00    -0.191 C  
HETATM   17  O   UNL     1      -8.415   8.997  64.727  1.00  0.00    -0.164 OA 
HETATM   18  N   UNL     1      -9.512   7.793  66.322  1.00  0.00    -0.169 N  
HETATM   19  C   UNL     1      -8.681   6.620  66.149  1.00  0.00    -0.148 C  
HETATM   20  C   UNL     1      -9.632   5.473  66.412  1.00  0.00    -0.174 C  
HETATM   21  C   UNL     1     -10.578   6.013  67.482  1.00  0.00    -0.345 C  
HETATM   22  C   UNL     1     -10.572   7.545  67.305  1.00  0.00    -0.324 C  
HETATM   23  C   UNL     1     -10.314   8.215  68.597  1.00  0.00    -0.200 C  
HETATM   24  N   UNL     1     -10.093   8.725  69.618  1.00  0.00    -0.198 NA 
ENDBRANCH  15  16
ENDBRANCH  13  15
ENDBRANCH  10  13
TORSDOF 3
ENDMDL
MODEL       96
REMARK 921   NORMALIZED FREE ENERGY PREDICTED BY IDOCK:   -4.87 KCAL/MOL
REMARK 922        TOTAL FREE ENERGY PREDICTED BY IDOCK:   -6.37 KCAL/MOL
REMARK 923 INTER-LIGAND FREE ENERGY PREDICTED BY IDOCK:   -5.95 KCAL/MOL
REMARK 924 INTRA-LIGAND FREE ENERGY PREDICTED BY IDOCK:   -0.42 KCAL/MOL
REMARK 927      BINDING AFFINITY PREDICTED BY RF-SCORE:    0.00 PKD
ROOT
HETATM    1  O   UNL     1      -9.535  15.278  68.189  1.00  0.00    -0.199 OA 
HETATM    2  C   UNL     1     -10.261  14.574  67.191  1.00  0.00    -0.260 C  
HETATM    3  H   UNL     1      -9.377  14.711  68.934  1.00  0.00     0.000 HD 
HETATM    4  C   UNL     1     -10.516  15.493  65.984  1.00  0.00    -0.335 C  
HETATM    5  C   UNL     1     -11.308  14.738  64.906  1.00  0.00    -0.411 C  
HETATM    6  C   UNL     1     -12.638  14.249  65.497  1.00  0.00    -0.429 C  
HETATM    7  C   UNL     1     -12.374  13.314  66.688  1.00  0.00    -0.274 C  
HETATM    8  C   UNL     1     -11.533  12.110  66.217  1.00  0.00    -0.433 C  
HETATM    9  C   UNL     1     -11.598  14.086  67.765  1.00  0.00    -0.378 C  
HETATM   10  C   UNL     1     -10.174  12.580  65.624  1.00  0.00    -0.267 C  
HETATM   11  C   UNL     1      -9.430  13.363  66.734  1.00  0.00    -0.263 C  
HETATM   12  C   UNL     1     -10.484  13.528  64.435  1.00  0.00    -0.366 C  
ENDROOT
BRANCH  10  13
HETATM   13  N   UNL     1      -9.433  11.376  65.194  1.00  0.00    -0.289 NA 
HETATM   14  H   UNL     1      -8.459  11.433  65.490  1.00  0.00     0.000 HD 
BRANCH  13  15
HETATM   15  C   UNL     1     -10.031  10.101  65.635  1.00  0.00    -0.279 C  
BRANCH  15  16
HETATM   16  C   UNL     1      -9.032   8.947  65.508  1.00  0.00    -0.197 C  
HETATM   17  O   UNL     1      -8.033   9.071  64.797  1.00  0.00    -0.115 OA 
HETATM   18  N   UNL     1      -9.260   7.796  66.233  1.00  0.00    -0.180 N  
HETATM   19  C   UNL     1      -8.314   6.700  66.226  1.00  0.00    -0.125 C  
HETATM   20  C   UNL     1      -9.191   5.475  66.369  1.00  0.00    -0.155 C  
HETATM   21  C   UNL     1     -10.339   5.943  67.261  1.00  0.00    -0.279 C  
HETATM   22  C   UNL     1     -10.438   7.466  67.044  1.00  0.00    -0.333 C  
HETATM   23  C   UNL     1     -10.447   8.175  68.342  1.00  0.00    -0.161 C  
HETATM   24  N   UNL     1     -10.436   8.717  69.370  1.00  0.00    -0.219 NA 
ENDBRANCH  15  16
ENDBRANCH  13  15
ENDBRANCH  10  13
TORSDOF 3
ENDMDL
MODEL       97
REMARK 921   NORMALIZED FREE ENERGY PREDICTED BY IDOCK:   -4.86 KCAL/MOL
REMARK 922        TOTAL FREE ENERGY PREDICTED BY IDOCK:   -6.35 KCAL/MOL
REMARK 923 INTER-LIGAND FREE ENERGY PREDICTED BY IDOCK:   -5.74 KCAL/MOL
REMARK 924 INTRA-LIGAND FREE ENERGY PREDICTED BY IDOCK:   -0.61 KCAL/MOL
REMARK 927      BINDING AFFINITY PREDICTED BY RF-SCORE:    0.00 PKD
ROOT
HETATM    1  O   UNL     1     -10.759  19.193  67.710  1.00  0.00    -0.424 OA 
HETATM    2  C   UNL     1      -9.353  19.106  67.526  1.00  0.00    -0.303 C  
HETATM    3  H   UNL     1     -11.201  18.608  67.106  1.00  0.00     0.000 HD 
HETATM    4  C   UNL     1      -8.639  20.054  68.504  1.00  0.00    -0.069 C  
HETATM    5  C   UNL     1      -7.118  19.968  68.303  1.00  0.00    -0.323 C  
HETATM    6  C   UNL     1      -6.773  20.336  66.852  1.00  0.00    -0.274 C  
HETATM    7  C   UNL     1      -7.474  19.372  65.882  1.00  0.00    -0.297 C  
HETATM    8  C   UNL     1      -7.021  17.928  66.180  1.00  0.00    -0.336 C  
HETATM    9  C   UNL     1      -8.992  19.480  66.082  1.00  0.00    -0.342 C  
HETATM   10  C   UNL     1      -7.370  17.527  67.642  1.00  0.00    -0.181 C  
HETATM   11  C   UNL     1      -8.904  17.662  67.806  1.00  0.00    -0.240 C  
HETATM   12  C   UNL     1      -6.655  18.529  68.587  1.00  0.00    -0.258 C  
ENDROOT
BRANCH  10  13
HETATM   13  N   UNL     1      -6.903  16.141  67.850  1.00  0.00    -0.128 NA 
HETATM   14  H   UNL     1      -7.079  15.847  68.811  1.00  0.00     0.000 HD 
BRANCH  13  15
HETATM   15  C   UNL     1      -7.463  15.159  66.901  1.00  0.00     0.120 C  
BRANCH  15  16
HETATM   16  C   UNL     1      -8.427  14.198  67.602  1.00  0.00    -0.185 C  
HETATM   17  O   UNL     1      -8.241  13.886  68.780  1.00  0.00    -0.122 OA 
HETATM   18  N   UNL     1      -9.518  13.729  66.899  1.00  0.00    -0.253 N  
HETATM   19  C   UNL     1     -10.514  12.885  67.525  1.00  0.00    -0.223 C  
HETATM   20  C   UNL     1     -10.971  11.983  66.399  1.00  0.00    -0.337 C  
HETATM   21  C   UNL     1     -10.890  12.869  65.158  1.00  0.00    -0.320 C  
HETATM   22  C   UNL     1      -9.823  13.935  65.479  1.00  0.00    -0.185 C  
HETATM   23  C   UNL     1     -10.346  15.290  65.204  1.00  0.00    -0.381 C  
HETATM   24  N   UNL     1     -10.779  16.349  64.998  1.00  0.00    -0.681 NA 
ENDBRANCH  15  16
ENDBRANCH  13  15
ENDBRANCH  10  13
TORSDOF 3
ENDMDL
MODEL       98
REMARK 921   NORMALIZED FREE ENERGY PREDICTED BY IDOCK:   -4.83 KCAL/MOL
REMARK 922        TOTAL FREE ENERGY PREDICTED BY IDOCK:   -6.32 KCAL/MOL
REMARK 923 INTER-LIGAND FREE ENERGY PREDICTED BY IDOCK:   -5.91 KCAL/MOL
REMARK 924 INTRA-LIGAND FREE ENERGY PREDICTED BY IDOCK:   -0.41 KCAL/MOL
REMARK 927      BINDING AFFINITY PREDICTED BY RF-SCORE:    0.00 PKD
ROOT
HETATM    1  O   UNL     1     -10.650  20.191  69.607  1.00  0.00    -0.544 OA 
HETATM    2  C   UNL     1     -10.117  19.385  68.567  1.00  0.00    -0.437 C  
HETATM    3  H   UNL     1     -11.599  20.143  69.600  1.00  0.00     0.000 HD 
HETATM    4  C   UNL     1      -8.581  19.464  68.580  1.00  0.00    -0.401 C  
HETATM    5  C   UNL     1      -8.000  18.599  67.450  1.00  0.00    -0.247 C  
HETATM    6  C   UNL     1      -8.550  19.084  66.100  1.00  0.00    -0.208 C  
HETATM    7  C   UNL     1     -10.084  18.981  66.088  1.00  0.00    -0.462 C  
HETATM    8  C   UNL     1     -10.501  17.516  66.331  1.00  0.00    -0.277 C  
HETATM    9  C   UNL     1     -10.651  19.863  67.209  1.00  0.00    -0.519 C  
HETATM   10  C   UNL     1      -9.964  17.005  67.699  1.00  0.00    -0.280 C  
HETATM   11  C   UNL     1     -10.547  17.926  68.799  1.00  0.00    -0.090 C  
HETATM   12  C   UNL     1      -8.418  17.136  67.675  1.00  0.00    -0.204 C  
ENDROOT
BRANCH  10  13
HETATM   13  N   UNL     1     -10.398  15.602  67.854  1.00  0.00    -0.254 NA 
HETATM   14  H   UNL     1      -9.801  14.982  67.306  1.00  0.00     0.000 HD 
BRANCH  13  15
HETATM   15  C   UNL     1     -10.475  15.137  69.253  1.00  0.00    -0.260 C  
BRANCH  15  16
HETATM   16  C   UNL     1     -11.600  14.114  69.436  1.00  0.00    -0.304 C  
HETATM   17  O   UNL     1     -12.733  14.491  69.743  1.00  0.00    -0.216 OA 
HETATM   18  N   UNL     1     -11.321  12.781  69.214  1.00  0.00    -0.263 N  
HETATM   19  C   UNL     1     -12.357  11.772  69.287  1.00  0.00     0.014 C  
HETATM   20  C   UNL     1     -11.625  10.553  69.804  1.00  0.00    -0.368 C  
HETATM   21  C   UNL     1     -10.231  10.669  69.191  1.00  0.00    -0.238 C  
HETATM   22  C   UNL     1     -10.016  12.174  68.935  1.00  0.00     0.043 C  
HETATM   23  C   UNL     1      -9.570  12.404  67.544  1.00  0.00    -0.185 C  
HETATM   24  N   UNL     1      -9.237  12.568  66.442  1.00  0.00    -0.212 NA 
ENDBRANCH  15  16
ENDBRANCH  13  15
ENDBRANCH  10  13
TORSDOF 3
ENDMDL
MODEL       99
REMARK 921   NORMALIZED FREE ENERGY PREDICTED BY IDOCK:   -4.83 KCAL/MOL
REMARK 922        TOTAL FREE ENERGY PREDICTED BY IDOCK:   -6.32 KCAL/MOL
REMARK 923 INTER-LIGAND FREE ENERGY PREDICTED BY IDOCK:   -5.74 KCAL/MOL
REMARK 924 INTRA-LIGAND FREE ENERGY PREDICTED BY IDOCK:   -0.57 KCAL/MOL
REMARK 927      BINDING AFFINITY PREDICTED BY RF-SCORE:    0.00 PKD
ROOT
HETATM    1  O   UNL     1     -11.981   8.390  73.133  1.00  0.00    -0.429 OA 
HETATM    2  C   UNL     1     -11.188   7.836  72.092  1.00  0.00    -0.297 C  
HETATM    3  H   UNL     1     -11.857   9.331  73.167  1.00  0.00     0.000 HD 
HETATM    4  C   UNL     1     -11.390   6.312  72.037  1.00  0.00    -0.348 C  
HETATM    5  C   UNL     1     -10.527   5.708  70.918  1.00  0.00    -0.323 C  
HETATM    6  C   UNL     1      -9.050   6.044  71.172  1.00  0.00    -0.153 C  
HETATM    7  C   UNL     1      -8.854   7.568  71.204  1.00  0.00    -0.142 C  
HETATM    8  C   UNL     1      -9.307   8.170  69.859  1.00  0.00    -0.159 C  
HETATM    9  C   UNL     1      -9.707   8.156  72.337  1.00  0.00    -0.338 C  
HETATM   10  C   UNL     1     -10.805   7.853  69.583  1.00  0.00    -0.176 C  
HETATM   11  C   UNL     1     -11.628   8.450  70.752  1.00  0.00    -0.252 C  
HETATM   12  C   UNL     1     -10.962   6.309  69.571  1.00  0.00    -0.445 C  
ENDROOT
BRANCH  10  13
HETATM   13  N   UNL     1     -11.159   8.456  68.283  1.00  0.00    -0.340 NA 
HETATM   14  H   UNL     1     -12.127   8.779  68.292  1.00  0.00     0.000 HD 
BRANCH  13  15
HETATM   15  C   UNL     1     -10.259   9.541  67.847  1.00  0.00    -0.205 C  
BRANCH  15  16
HETATM   16  C   UNL     1     -10.905  10.914  68.054  1.00  0.00    -0.245 C  
HETATM   17  O   UNL     1     -12.104  10.997  68.331  1.00  0.00    -0.594 OA 
HETATM   18  N   UNL     1     -10.109  12.038  67.962  1.00  0.00    -0.192 N  
HETATM   19  C   UNL     1     -10.637  13.359  68.229  1.00  0.00    -0.254 C  
HETATM   20  C   UNL     1      -9.848  14.250  67.292  1.00  0.00    -0.244 C  
HETATM   21  C   UNL     1      -8.468  13.597  67.235  1.00  0.00    -0.203 C  
HETATM   22  C   UNL     1      -8.702  12.107  67.556  1.00  0.00    -0.173 C  
HETATM   23  C   UNL     1      -7.782  11.658  68.623  1.00  0.00    -0.134 C  
HETATM   24  N   UNL     1      -7.064  11.325  69.474  1.00  0.00    -0.098 NA 
ENDBRANCH  15  16
ENDBRANCH  13  15
ENDBRANCH  10  13
TORSDOF 3
ENDMDL
MODEL      100
REMARK 921   NORMALIZED FREE ENERGY PREDICTED BY IDOCK:   -4.82 KCAL/MOL
REMARK 922        TOTAL FREE ENERGY PREDICTED BY IDOCK:   -6.30 KCAL/MOL
REMARK 923 INTER-LIGAND FREE ENERGY PREDICTED BY IDOCK:   -5.80 KCAL/MOL
REMARK 924 INTRA-LIGAND FREE ENERGY PREDICTED BY IDOCK:   -0.50 KCAL/MOL
REMARK 927      BINDING AFFINITY PREDICTED BY RF-SCORE:    0.00 PKD
ROOT
HETATM    1  O   UNL     1     -10.235  13.082  64.175  1.00  0.00    -0.543 OA 
HETATM    2  C   UNL     1     -10.418  13.468  65.530  1.00  0.00    -0.299 C  
HETATM    3  H   UNL     1      -9.308  13.004  63.984  1.00  0.00     0.000 HD 
HETATM    4  C   UNL     1     -11.919  13.594  65.839  1.00  0.00    -0.438 C  
HETATM    5  C   UNL     1     -12.121  14.020  67.301  1.00  0.00    -0.405 C  
HETATM    6  C   UNL     1     -11.410  15.358  67.548  1.00  0.00    -0.269 C  
HETATM    7  C   UNL     1      -9.907  15.218  67.257  1.00  0.00    -0.220 C  
HETATM    8  C   UNL     1      -9.309  14.129  68.171  1.00  0.00    -0.206 C  
HETATM    9  C   UNL     1      -9.719  14.810  65.790  1.00  0.00    -0.347 C  
HETATM   10  C   UNL     1     -10.007  12.758  67.932  1.00  0.00    -0.229 C  
HETATM   11  C   UNL     1      -9.806  12.390  66.441  1.00  0.00    -0.249 C  
HETATM   12  C   UNL     1     -11.519  12.946  68.223  1.00  0.00    -0.348 C  
ENDROOT
BRANCH  10  13
HETATM   13  N   UNL     1      -9.385  11.775  68.842  1.00  0.00    -0.406 NA 
HETATM   14  H   UNL     1     -10.035  11.517  69.584  1.00  0.00     0.000 HD 
BRANCH  13  15
HETATM   15  C   UNL     1      -8.864  10.567  68.172  1.00  0.00    -0.134 C  
BRANCH  15  16
HETATM   16  C   UNL     1      -9.923   9.462  68.120  1.00  0.00    -0.175 C  
HETATM   17  O   UNL     1     -10.906   9.513  68.863  1.00  0.00    -0.215 OA 
HETATM   18  N   UNL     1      -9.766   8.441  67.204  1.00  0.00    -0.173 N  
HETATM   19  C   UNL     1     -10.771   7.411  67.045  1.00  0.00    -0.319 C  
HETATM   20  C   UNL     1      -9.963   6.185  66.677  1.00  0.00    -0.207 C  
HETATM   21  C   UNL     1      -8.802   6.740  65.853  1.00  0.00    -0.127 C  
HETATM   22  C   UNL     1      -8.619   8.196  66.325  1.00  0.00    -0.144 C  
HETATM   23  C   UNL     1      -8.586   9.115  65.167  1.00  0.00    -0.176 C  
HETATM   24  N   UNL     1      -8.580   9.825  64.247  1.00  0.00    -0.172 NA 
ENDBRANCH  15  16
ENDBRANCH  13  15
ENDBRANCH  10  13
TORSDOF 3
ENDMDL
MODEL      101
REMARK 921   NORMALIZED FREE ENERGY PREDICTED BY IDOCK:   -4.82 KCAL/MOL
REMARK 922        TOTAL FREE ENERGY PREDICTED BY IDOCK:   -6.30 KCAL/MOL
REMARK 923 INTER-LIGAND FREE ENERGY PREDICTED BY IDOCK:   -5.89 KCAL/MOL
REMARK 924 INTRA-LIGAND FREE ENERGY PREDICTED BY IDOCK:   -0.41 KCAL/MOL
REMARK 927      BINDING AFFINITY PREDICTED BY RF-SCORE:    0.00 PKD
ROOT
HETATM    1  O   UNL     1     -11.085  19.900  65.312  1.00  0.00    -0.360 OA 
HETATM    2  C   UNL     1     -10.108  19.297  66.149  1.00  0.00    -0.442 C  
HETATM    3  H   UNL     1     -10.865  19.751  64.400  1.00  0.00     0.000 HD 
HETATM    4  C   UNL     1     -10.464  19.538  67.626  1.00  0.00    -0.593 C  
HETATM    5  C   UNL     1      -9.405  18.895  68.534  1.00  0.00    -0.412 C  
HETATM    6  C   UNL     1      -8.026  19.489  68.213  1.00  0.00    -0.368 C  
HETATM    7  C   UNL     1      -7.668  19.225  66.741  1.00  0.00    -0.267 C  
HETATM    8  C   UNL     1      -7.659  17.705  66.481  1.00  0.00    -0.299 C  
HETATM    9  C   UNL     1      -8.724  19.888  65.845  1.00  0.00    -0.165 C  
HETATM   10  C   UNL     1      -9.051  17.080  66.790  1.00  0.00    -0.246 C  
HETATM   11  C   UNL     1     -10.087  17.783  65.878  1.00  0.00    -0.183 C  
HETATM   12  C   UNL     1      -9.379  17.378  68.277  1.00  0.00    -0.278 C  
ENDROOT
BRANCH  10  13
HETATM   13  N   UNL     1      -8.960  15.631  66.523  1.00  0.00    -0.281 NA 
HETATM   14  H   UNL     1      -8.140  15.425  65.951  1.00  0.00     0.000 HD 
BRANCH  13  15
HETATM   15  C   UNL     1      -8.969  14.785  67.733  1.00  0.00    -0.182 C  
BRANCH  15  16
HETATM   16  C   UNL     1     -10.267  13.978  67.835  1.00  0.00    -0.240 C  
HETATM   17  O   UNL     1     -11.343  14.499  67.534  1.00  0.00    -0.309 OA 
HETATM   18  N   UNL     1     -10.192  12.658  68.231  1.00  0.00    -0.235 N  
HETATM   19  C   UNL     1     -11.368  11.815  68.268  1.00  0.00    -0.282 C  
HETATM   20  C   UNL     1     -11.094  10.878  69.425  1.00  0.00    -0.317 C  
HETATM   21  C   UNL     1      -9.581  10.671  69.384  1.00  0.00    -0.120 C  
HETATM   22  C   UNL     1      -9.009  11.931  68.703  1.00  0.00    -0.041 C  
HETATM   23  C   UNL     1      -8.099  11.554  67.601  1.00  0.00    -0.130 C  
HETATM   24  N   UNL     1      -7.399  11.241  66.727  1.00  0.00    -0.144 NA 
ENDBRANCH  15  16
ENDBRANCH  13  15
ENDBRANCH  10  13
TORSDOF 3
ENDMDL
MODEL      102
REMARK 921   NORMALIZED FREE ENERGY PREDICTED BY IDOCK:   -4.77 KCAL/MOL
REMARK 922        TOTAL FREE ENERGY PREDICTED BY IDOCK:   -6.25 KCAL/MOL
REMARK 923 INTER-LIGAND FREE ENERGY PREDICTED BY IDOCK:   -5.69 KCAL/MOL
REMARK 924 INTRA-LIGAND FREE ENERGY PREDICTED BY IDOCK:   -0.56 KCAL/MOL
REMARK 927      BINDING AFFINITY PREDICTED BY RF-SCORE:    0.00 PKD
ROOT
HETATM    1  O   UNL     1     -13.106   8.691  70.873  1.00  0.00    -0.501 OA 
HETATM    2  C   UNL     1     -11.811   8.181  71.156  1.00  0.00    -0.279 C  
HETATM    3  H   UNL     1     -13.259   9.482  71.376  1.00  0.00     0.000 HD 
HETATM    4  C   UNL     1     -11.565   6.900  70.341  1.00  0.00    -0.385 C  
HETATM    5  C   UNL     1     -10.168   6.340  70.651  1.00  0.00    -0.240 C  
HETATM    6  C   UNL     1     -10.056   6.047  72.155  1.00  0.00    -0.208 C  
HETATM    7  C   UNL     1     -10.283   7.336  72.961  1.00  0.00    -0.313 C  
HETATM    8  C   UNL     1      -9.232   8.387  72.551  1.00  0.00    -0.338 C  
HETATM    9  C   UNL     1     -11.687   7.875  72.656  1.00  0.00    -0.398 C  
HETATM   10  C   UNL     1      -9.332   8.710  71.032  1.00  0.00    -0.202 C  
HETATM   11  C   UNL     1     -10.764   9.236  70.763  1.00  0.00    -0.350 C  
HETATM   12  C   UNL     1      -9.111   7.385  70.256  1.00  0.00    -0.151 C  
ENDROOT
BRANCH  10  13
HETATM   13  N   UNL     1      -8.297   9.715  70.718  1.00  0.00    -0.371 NA 
HETATM   14  H   UNL     1      -7.469   9.565  71.295  1.00  0.00     0.000 HD 
BRANCH  13  15
HETATM   15  C   UNL     1      -7.924   9.783  69.291  1.00  0.00    -0.112 C  
BRANCH  15  16
HETATM   16  C   UNL     1      -7.817  11.234  68.815  1.00  0.00    -0.139 C  
HETATM   17  O   UNL     1      -6.783  11.875  69.014  1.00  0.00    -0.086 OA 
HETATM   18  N   UNL     1      -8.882  11.783  68.131  1.00  0.00    -0.164 N  
HETATM   19  C   UNL     1      -8.816  13.120  67.579  1.00  0.00    -0.199 C  
HETATM   20  C   UNL     1     -10.240  13.620  67.693  1.00  0.00    -0.239 C  
HETATM   21  C   UNL     1     -11.090  12.370  67.472  1.00  0.00    -0.313 C  
HETATM   22  C   UNL     1     -10.201  11.184  67.897  1.00  0.00    -0.180 C  
HETATM   23  C   UNL     1     -10.174  10.152  66.839  1.00  0.00    -0.236 C  
HETATM   24  N   UNL     1     -10.150   9.358  65.990  1.00  0.00    -0.283 NA 
ENDBRANCH  15  16
ENDBRANCH  13  15
ENDBRANCH  10  13
TORSDOF 3
ENDMDL
MODEL      103
REMARK 921   NORMALIZED FREE ENERGY PREDICTED BY IDOCK:   -4.77 KCAL/MOL
REMARK 922        TOTAL FREE ENERGY PREDICTED BY IDOCK:   -6.24 KCAL/MOL
REMARK 923 INTER-LIGAND FREE ENERGY PREDICTED BY IDOCK:   -5.47 KCAL/MOL
REMARK 924 INTRA-LIGAND FREE ENERGY PREDICTED BY IDOCK:   -0.78 KCAL/MOL
REMARK 927      BINDING AFFINITY PREDICTED BY RF-SCORE:    0.00 PKD
ROOT
HETATM    1  O   UNL     1     -11.162  15.464  65.524  1.00  0.00    -0.310 OA 
HETATM    2  C   UNL     1     -10.998  15.019  66.863  1.00  0.00    -0.324 C  
HETATM    3  H   UNL     1     -10.711  16.291  65.401  1.00  0.00     0.000 HD 
HETATM    4  C   UNL     1     -11.729  13.681  67.062  1.00  0.00    -0.419 C  
HETATM    5  C   UNL     1     -11.561  13.200  68.512  1.00  0.00    -0.361 C  
HETATM    6  C   UNL     1     -12.118  14.262  69.471  1.00  0.00    -0.376 C  
HETATM    7  C   UNL     1     -11.368  15.590  69.281  1.00  0.00    -0.330 C  
HETATM    8  C   UNL     1      -9.866  15.373  69.553  1.00  0.00    -0.262 C  
HETATM    9  C   UNL     1     -11.559  16.068  67.834  1.00  0.00    -0.054 C  
HETATM   10  C   UNL     1      -9.274  14.307  68.585  1.00  0.00    -0.167 C  
HETATM   11  C   UNL     1      -9.498  14.819  67.140  1.00  0.00    -0.233 C  
HETATM   12  C   UNL     1     -10.064  12.990  68.799  1.00  0.00    -0.066 C  
ENDROOT
BRANCH  10  13
HETATM   13  N   UNL     1      -7.842  14.153  68.910  1.00  0.00    -0.258 NA 
HETATM   14  H   UNL     1      -7.565  13.173  68.842  1.00  0.00     0.000 HD 
BRANCH  13  15
HETATM   15  C   UNL     1      -6.938  14.999  68.106  1.00  0.00    -0.124 C  
BRANCH  15  16
HETATM   16  C   UNL     1      -6.241  16.048  68.977  1.00  0.00    -0.136 C  
HETATM   17  O   UNL     1      -5.345  15.709  69.754  1.00  0.00    -0.103 OA 
HETATM   18  N   UNL     1      -6.611  17.370  68.840  1.00  0.00    -0.207 N  
HETATM   19  C   UNL     1      -5.935  18.422  69.570  1.00  0.00    -0.253 C  
HETATM   20  C   UNL     1      -7.029  19.438  69.819  1.00  0.00    -0.117 C  
HETATM   21  C   UNL     1      -7.915  19.341  68.578  1.00  0.00    -0.396 C  
HETATM   22  C   UNL     1      -7.709  17.914  68.033  1.00  0.00    -0.245 C  
HETATM   23  C   UNL     1      -7.386  17.952  66.590  1.00  0.00    -0.225 C  
HETATM   24  N   UNL     1      -7.117  18.001  65.461  1.00  0.00    -0.502 NA 
ENDBRANCH  15  16
ENDBRANCH  13  15
ENDBRANCH  10  13
TORSDOF 3
ENDMDL
MODEL      104
REMARK 921   NORMALIZED FREE ENERGY PREDICTED BY IDOCK:   -4.77 KCAL/MOL
REMARK 922        TOTAL FREE ENERGY PREDICTED BY IDOCK:   -6.24 KCAL/MOL
REMARK 923 INTER-LIGAND FREE ENERGY PREDICTED BY IDOCK:   -5.79 KCAL/MOL
REMARK 924 INTRA-LIGAND FREE ENERGY PREDICTED BY IDOCK:   -0.45 KCAL/MOL
REMARK 927      BINDING AFFINITY PREDICTED BY RF-SCORE:    0.00 PKD
ROOT
HETATM    1  O   UNL     1     -11.417   7.440  70.122  1.00  0.00    -0.430 OA 
HETATM    2  C   UNL     1     -10.452   7.639  69.098  1.00  0.00    -0.214 C  
HETATM    3  H   UNL     1     -11.244   8.028  70.847  1.00  0.00     0.000 HD 
HETATM    4  C   UNL     1     -10.732   6.686  67.924  1.00  0.00    -0.341 C  
HETATM    5  C   UNL     1      -9.686   6.893  66.818  1.00  0.00    -0.232 C  
HETATM    6  C   UNL     1      -8.282   6.642  67.389  1.00  0.00    -0.121 C  
HETATM    7  C   UNL     1      -8.002   7.612  68.547  1.00  0.00    -0.123 C  
HETATM    8  C   UNL     1      -8.111   9.064  68.037  1.00  0.00    -0.105 C  
HETATM    9  C   UNL     1      -9.043   7.383  69.652  1.00  0.00    -0.140 C  
HETATM   10  C   UNL     1      -9.529   9.346  67.463  1.00  0.00    -0.127 C  
HETATM   11  C   UNL     1     -10.549   9.091  68.601  1.00  0.00    -0.194 C  
HETATM   12  C   UNL     1      -9.777   8.341  66.308  1.00  0.00    -0.253 C  
ENDROOT
BRANCH  10  13
HETATM   13  N   UNL     1      -9.552  10.746  66.993  1.00  0.00    -0.168 NA 
HETATM   14  H   UNL     1      -9.477  10.781  65.976  1.00  0.00     0.000 HD 
BRANCH  13  15
HETATM   15  C   UNL     1     -10.719  11.526  67.450  1.00  0.00    -0.232 C  
BRANCH  15  16
HETATM   16  C   UNL     1     -10.644  12.975  66.960  1.00  0.00    -0.257 C  
HETATM   17  O   UNL     1     -10.180  13.851  67.693  1.00  0.00    -0.237 OA 
HETATM   18  N   UNL     1     -11.069  13.259  65.678  1.00  0.00    -0.281 N  
HETATM   19  C   UNL     1     -10.947  14.591  65.122  1.00  0.00    -0.379 C  
HETATM   20  C   UNL     1     -12.148  14.701  64.207  1.00  0.00    -0.437 C  
HETATM   21  C   UNL     1     -12.332  13.285  63.665  1.00  0.00    -0.456 C  
HETATM   22  C   UNL     1     -11.721  12.352  64.729  1.00  0.00    -0.368 C  
HETATM   23  C   UNL     1     -10.770  11.407  64.104  1.00  0.00    -0.371 C  
HETATM   24  N   UNL     1     -10.014  10.684  63.599  1.00  0.00    -0.328 NA 
ENDBRANCH  15  16
ENDBRANCH  13  15
ENDBRANCH  10  13
TORSDOF 3
ENDMDL
MODEL      105
REMARK 921   NORMALIZED FREE ENERGY PREDICTED BY IDOCK:   -4.76 KCAL/MOL
REMARK 922        TOTAL FREE ENERGY PREDICTED BY IDOCK:   -6.23 KCAL/MOL
REMARK 923 INTER-LIGAND FREE ENERGY PREDICTED BY IDOCK:   -5.84 KCAL/MOL
REMARK 924 INTRA-LIGAND FREE ENERGY PREDICTED BY IDOCK:   -0.40 KCAL/MOL
REMARK 927      BINDING AFFINITY PREDICTED BY RF-SCORE:    0.00 PKD
ROOT
HETATM    1  O   UNL     1     -12.350  14.360  69.066  1.00  0.00    -0.541 OA 
HETATM    2  C   UNL     1     -11.519  13.362  68.491  1.00  0.00    -0.310 C  
HETATM    3  H   UNL     1     -13.211  14.000  69.243  1.00  0.00     0.000 HD 
HETATM    4  C   UNL     1     -10.125  13.945  68.204  1.00  0.00    -0.250 C  
HETATM    5  C   UNL     1      -9.224  12.871  67.575  1.00  0.00    -0.192 C  
HETATM    6  C   UNL     1      -9.868  12.360  66.277  1.00  0.00    -0.257 C  
HETATM    7  C   UNL     1     -11.251  11.760  66.575  1.00  0.00    -0.380 C  
HETATM    8  C   UNL     1     -11.100  10.599  67.579  1.00  0.00    -0.367 C  
HETATM    9  C   UNL     1     -12.145  12.847  67.187  1.00  0.00    -0.283 C  
HETATM   10  C   UNL     1     -10.459  11.094  68.909  1.00  0.00    -0.207 C  
HETATM   11  C   UNL     1     -11.381  12.196  69.485  1.00  0.00    -0.277 C  
HETATM   12  C   UNL     1      -9.074  11.701  68.563  1.00  0.00    -0.157 C  
ENDROOT
BRANCH  10  13
HETATM   13  N   UNL     1     -10.343   9.930  69.810  1.00  0.00    -0.229 NA 
HETATM   14  H   UNL     1      -9.363   9.734  70.014  1.00  0.00     0.000 HD 
BRANCH  13  15
HETATM   15  C   UNL     1     -11.115  10.049  71.063  1.00  0.00    -0.271 C  
BRANCH  15  16
HETATM   16  C   UNL     1     -11.637   8.685  71.524  1.00  0.00    -0.302 C  
HETATM   17  O   UNL     1     -12.766   8.313  71.198  1.00  0.00    -0.237 OA 
HETATM   18  N   UNL     1     -10.803   7.879  72.272  1.00  0.00    -0.269 N  
HETATM   19  C   UNL     1     -11.200   6.544  72.669  1.00  0.00    -0.249 C  
HETATM   20  C   UNL     1     -10.526   6.361  74.012  1.00  0.00    -0.286 C  
HETATM   21  C   UNL     1      -9.216   7.134  73.878  1.00  0.00    -0.270 C  
HETATM   22  C   UNL     1      -9.480   8.214  72.810  1.00  0.00    -0.279 C  
HETATM   23  C   UNL     1      -8.424   8.187  71.774  1.00  0.00    -0.144 C  
HETATM   24  N   UNL     1      -7.596   8.141  70.960  1.00  0.00    -0.077 NA 
ENDBRANCH  15  16
ENDBRANCH  13  15
ENDBRANCH  10  13
TORSDOF 3
ENDMDL
MODEL      106
REMARK 921   NORMALIZED FREE ENERGY PREDICTED BY IDOCK:   -4.74 KCAL/MOL
REMARK 922        TOTAL FREE ENERGY PREDICTED BY IDOCK:   -6.21 KCAL/MOL
REMARK 923 INTER-LIGAND FREE ENERGY PREDICTED BY IDOCK:   -5.76 KCAL/MOL
REMARK 924 INTRA-LIGAND FREE ENERGY PREDICTED BY IDOCK:   -0.45 KCAL/MOL
REMARK 927      BINDING AFFINITY PREDICTED BY RF-SCORE:    0.00 PKD
ROOT
HETATM    1  O   UNL     1     -10.939  18.746  67.477  1.00  0.00    -0.407 OA 
HETATM    2  C   UNL     1      -9.623  18.211  67.507  1.00  0.00    -0.280 C  
HETATM    3  H   UNL     1     -11.449  18.312  66.804  1.00  0.00     0.000 HD 
HETATM    4  C   UNL     1      -8.798  18.913  68.599  1.00  0.00    -0.374 C  
HETATM    5  C   UNL     1      -7.372  18.343  68.628  1.00  0.00    -0.311 C  
HETATM    6  C   UNL     1      -6.715  18.535  67.253  1.00  0.00    -0.208 C  
HETATM    7  C   UNL     1      -7.534  17.813  66.172  1.00  0.00    -0.322 C  
HETATM    8  C   UNL     1      -7.615  16.310  66.510  1.00  0.00    -0.218 C  
HETATM    9  C   UNL     1      -8.950  18.404  66.141  1.00  0.00    -0.116 C  
HETATM   10  C   UNL     1      -8.288  16.088  67.896  1.00  0.00    -0.153 C  
HETATM   11  C   UNL     1      -9.705  16.709  67.828  1.00  0.00    -0.240 C  
HETATM   12  C   UNL     1      -7.440  16.841  68.954  1.00  0.00    -0.240 C  
ENDROOT
BRANCH  10  13
HETATM   13  N   UNL     1      -8.323  14.633  68.148  1.00  0.00    -0.137 NA 
HETATM   14  H   UNL     1      -8.731  14.441  69.063  1.00  0.00     0.000 HD 
BRANCH  13  15
HETATM   15  C   UNL     1      -9.011  13.849  67.104  1.00  0.00    -0.235 C  
BRANCH  15  16
HETATM   16  C   UNL     1     -10.019  12.873  67.718  1.00  0.00    -0.230 C  
HETATM   17  O   UNL     1     -10.643  13.187  68.734  1.00  0.00    -0.248 OA 
HETATM   18  N   UNL     1     -10.233  11.664  67.088  1.00  0.00    -0.210 N  
HETATM   19  C   UNL     1     -11.232  10.731  67.566  1.00  0.00    -0.274 C  
HETATM   20  C   UNL     1     -10.637   9.379  67.237  1.00  0.00    -0.314 C  
HETATM   21  C   UNL     1      -9.874   9.616  65.935  1.00  0.00    -0.358 C  
HETATM   22  C   UNL     1      -9.511  11.114  65.936  1.00  0.00    -0.215 C  
HETATM   23  C   UNL     1      -9.915  11.745  64.661  1.00  0.00    -0.243 C  
HETATM   24  N   UNL     1     -10.254  12.228  63.659  1.00  0.00    -0.428 NA 
ENDBRANCH  15  16
ENDBRANCH  13  15
ENDBRANCH  10  13
TORSDOF 3
ENDMDL
MODEL      107
REMARK 921   NORMALIZED FREE ENERGY PREDICTED BY IDOCK:   -4.73 KCAL/MOL
REMARK 922        TOTAL FREE ENERGY PREDICTED BY IDOCK:   -6.21 KCAL/MOL
REMARK 923 INTER-LIGAND FREE ENERGY PREDICTED BY IDOCK:   -5.79 KCAL/MOL
REMARK 924 INTRA-LIGAND FREE ENERGY PREDICTED BY IDOCK:   -0.41 KCAL/MOL
REMARK 927      BINDING AFFINITY PREDICTED BY RF-SCORE:    0.00 PKD
ROOT
HETATM    1  O   UNL     1     -10.677  17.735  69.517  1.00  0.00    -0.309 OA 
HETATM    2  C   UNL     1     -10.433  16.698  68.576  1.00  0.00    -0.319 C  
HETATM    3  H   UNL     1     -11.567  18.053  69.424  1.00  0.00     0.000 HD 
HETATM    4  C   UNL     1      -8.992  16.184  68.727  1.00  0.00    -0.236 C  
HETATM    5  C   UNL     1      -8.722  15.068  67.706  1.00  0.00    -0.167 C  
HETATM    6  C   UNL     1      -8.952  15.607  66.286  1.00  0.00    -0.377 C  
HETATM    7  C   UNL     1     -10.401  16.100  66.137  1.00  0.00    -0.350 C  
HETATM    8  C   UNL     1     -11.369  14.933  66.420  1.00  0.00    -0.308 C  
HETATM    9  C   UNL     1     -10.651  17.225  67.151  1.00  0.00    -0.256 C  
HETATM   10  C   UNL     1     -11.163  14.376  67.858  1.00  0.00    -0.286 C  
HETATM   11  C   UNL     1     -11.411  15.542  68.847  1.00  0.00    -0.329 C  
HETATM   12  C   UNL     1      -9.690  13.902  67.970  1.00  0.00    -0.226 C  
ENDROOT
BRANCH  10  13
HETATM   13  N   UNL     1     -12.118  13.265  68.049  1.00  0.00    -0.295 NA 
HETATM   14  H   UNL     1     -12.925  13.381  67.437  1.00  0.00     0.000 HD 
BRANCH  13  15
HETATM   15  C   UNL     1     -11.532  11.921  67.880  1.00  0.00    -0.316 C  
BRANCH  15  16
HETATM   16  C   UNL     1     -11.433  11.187  69.220  1.00  0.00    -0.294 C  
HETATM   17  O   UNL     1     -12.208  11.467  70.137  1.00  0.00    -0.317 OA 
HETATM   18  N   UNL     1     -10.488  10.190  69.356  1.00  0.00    -0.217 N  
HETATM   19  C   UNL     1     -10.396   9.399  70.566  1.00  0.00    -0.281 C  
HETATM   20  C   UNL     1      -8.917   9.095  70.676  1.00  0.00    -0.292 C  
HETATM   21  C   UNL     1      -8.457   8.961  69.226  1.00  0.00    -0.121 C  
HETATM   22  C   UNL     1      -9.446   9.807  68.398  1.00  0.00    -0.140 C  
HETATM   23  C   UNL     1      -9.980   9.018  67.267  1.00  0.00    -0.216 C  
HETATM   24  N   UNL     1     -10.402   8.379  66.393  1.00  0.00    -0.139 NA 
ENDBRANCH  15  16
ENDBRANCH  13  15
ENDBRANCH  10  13
TORSDOF 3
ENDMDL
MODEL      108
REMARK 921   NORMALIZED FREE ENERGY PREDICTED BY IDOCK:   -4.71 KCAL/MOL
REMARK 922        TOTAL FREE ENERGY PREDICTED BY IDOCK:   -6.18 KCAL/MOL
REMARK 923 INTER-LIGAND FREE ENERGY PREDICTED BY IDOCK:   -5.50 KCAL/MOL
REMARK 924 INTRA-LIGAND FREE ENERGY PREDICTED BY IDOCK:   -0.68 KCAL/MOL
REMARK 927      BINDING AFFINITY PREDICTED BY RF-SCORE:    0.00 PKD
ROOT
HETATM    1  O   UNL     1      -9.067  15.403  66.504  1.00  0.00    -0.254 OA 
HETATM    2  C   UNL     1     -10.116  14.526  66.119  1.00  0.00    -0.305 C  
HETATM    3  H   UNL     1      -8.597  15.039  67.244  1.00  0.00     0.000 HD 
HETATM    4  C   UNL     1     -10.877  15.116  64.919  1.00  0.00    -0.437 C  
HETATM    5  C   UNL     1     -12.018  14.175  64.505  1.00  0.00    -0.476 C  
HETATM    6  C   UNL     1     -12.969  13.970  65.693  1.00  0.00    -0.337 C  
HETATM    7  C   UNL     1     -12.206  13.360  66.881  1.00  0.00    -0.343 C  
HETATM    8  C   UNL     1     -11.596  12.009  66.457  1.00  0.00    -0.384 C  
HETATM    9  C   UNL     1     -11.081  14.319  67.295  1.00  0.00    -0.315 C  
HETATM   10  C   UNL     1     -10.618  12.192  65.260  1.00  0.00    -0.281 C  
HETATM   11  C   UNL     1      -9.509  13.173  65.713  1.00  0.00     0.028 C  
HETATM   12  C   UNL     1     -11.422  12.819  64.090  1.00  0.00    -0.450 C  
ENDROOT
BRANCH  10  13
HETATM   13  N   UNL     1     -10.082  10.860  64.912  1.00  0.00    -0.290 NA 
HETATM   14  H   UNL     1      -9.907  10.798  63.909  1.00  0.00     0.000 HD 
BRANCH  13  15
HETATM   15  C   UNL     1      -8.877  10.470  65.670  1.00  0.00    -0.182 C  
BRANCH  15  16
HETATM   16  C   UNL     1      -9.125   9.199  66.488  1.00  0.00    -0.156 C  
HETATM   17  O   UNL     1      -9.176   8.103  65.927  1.00  0.00    -0.171 OA 
HETATM   18  N   UNL     1      -9.249   9.312  67.858  1.00  0.00    -0.130 N  
HETATM   19  C   UNL     1      -9.399   8.144  68.700  1.00  0.00    -0.143 C  
HETATM   20  C   UNL     1     -10.276   8.636  69.832  1.00  0.00    -0.206 C  
HETATM   21  C   UNL     1      -9.855  10.092  70.020  1.00  0.00    -0.247 C  
HETATM   22  C   UNL     1      -9.301  10.543  68.654  1.00  0.00    -0.172 C  
HETATM   23  C   UNL     1      -7.971  11.168  68.817  1.00  0.00    -0.144 C  
HETATM   24  N   UNL     1      -6.919  11.642  68.960  1.00  0.00    -0.106 NA 
ENDBRANCH  15  16
ENDBRANCH  13  15
ENDBRANCH  10  13
TORSDOF 3
ENDMDL
MODEL      109
REMARK 921   NORMALIZED FREE ENERGY PREDICTED BY IDOCK:   -4.70 KCAL/MOL
REMARK 922        TOTAL FREE ENERGY PREDICTED BY IDOCK:   -6.16 KCAL/MOL
REMARK 923 INTER-LIGAND FREE ENERGY PREDICTED BY IDOCK:   -5.61 KCAL/MOL
REMARK 924 INTRA-LIGAND FREE ENERGY PREDICTED BY IDOCK:   -0.55 KCAL/MOL
REMARK 927      BINDING AFFINITY PREDICTED BY RF-SCORE:    0.00 PKD
ROOT
HETATM    1  O   UNL     1     -13.539   8.605  70.942  1.00  0.00    -0.524 OA 
HETATM    2  C   UNL     1     -12.277   8.038  71.265  1.00  0.00    -0.287 C  
HETATM    3  H   UNL     1     -13.423   9.495  70.633  1.00  0.00     0.000 HD 
HETATM    4  C   UNL     1     -12.466   6.596  71.766  1.00  0.00    -0.360 C  
HETATM    5  C   UNL     1     -11.104   5.981  72.125  1.00  0.00    -0.328 C  
HETATM    6  C   UNL     1     -10.424   6.838  73.203  1.00  0.00    -0.296 C  
HETATM    7  C   UNL     1     -10.220   8.271  72.687  1.00  0.00    -0.368 C  
HETATM    8  C   UNL     1      -9.349   8.238  71.415  1.00  0.00    -0.223 C  
HETATM    9  C   UNL     1     -11.589   8.879  72.349  1.00  0.00    -0.237 C  
HETATM   10  C   UNL     1     -10.022   7.384  70.302  1.00  0.00    -0.188 C  
HETATM   11  C   UNL     1     -11.402   8.020  70.001  1.00  0.00    -0.014 C  
HETATM   12  C   UNL     1     -10.221   5.952  70.866  1.00  0.00    -0.269 C  
ENDROOT
BRANCH  10  13
HETATM   13  N   UNL     1      -9.129   7.397  69.126  1.00  0.00    -0.135 NA 
HETATM   14  H   UNL     1      -9.466   6.747  68.416  1.00  0.00     0.000 HD 
BRANCH  13  15
HETATM   15  C   UNL     1      -8.913   8.733  68.538  1.00  0.00    -0.138 C  
BRANCH  15  16
HETATM   16  C   UNL     1      -9.102   8.707  67.018  1.00  0.00    -0.138 C  
HETATM   17  O   UNL     1      -8.824   7.691  66.378  1.00  0.00    -0.141 OA 
HETATM   18  N   UNL     1      -9.623   9.826  66.400  1.00  0.00    -0.185 N  
HETATM   19  C   UNL     1      -9.906   9.839  64.980  1.00  0.00    -0.173 C  
HETATM   20  C   UNL     1      -9.640  11.275  64.581  1.00  0.00    -0.265 C  
HETATM   21  C   UNL     1     -10.065  12.084  65.804  1.00  0.00    -0.267 C  
HETATM   22  C   UNL     1      -9.915  11.129  67.005  1.00  0.00    -0.192 C  
HETATM   23  C   UNL     1     -11.154  11.113  67.812  1.00  0.00    -0.285 C  
HETATM   24  N   UNL     1     -12.142  11.100  68.425  1.00  0.00    -0.603 NA 
ENDBRANCH  15  16
ENDBRANCH  13  15
ENDBRANCH  10  13
TORSDOF 3
ENDMDL
MODEL      110
REMARK 921   NORMALIZED FREE ENERGY PREDICTED BY IDOCK:   -4.68 KCAL/MOL
REMARK 922        TOTAL FREE ENERGY PREDICTED BY IDOCK:   -6.14 KCAL/MOL
REMARK 923 INTER-LIGAND FREE ENERGY PREDICTED BY IDOCK:   -5.71 KCAL/MOL
REMARK 924 INTRA-LIGAND FREE ENERGY PREDICTED BY IDOCK:   -0.44 KCAL/MOL
REMARK 927      BINDING AFFINITY PREDICTED BY RF-SCORE:    0.00 PKD
ROOT
HETATM    1  O   UNL     1      -7.109  10.722  65.198  1.00  0.00    -0.349 OA 
HETATM    2  C   UNL     1      -8.013  10.280  66.201  1.00  0.00    -0.131 C  
HETATM    3  H   UNL     1      -7.545  11.332  64.616  1.00  0.00     0.000 HD 
HETATM    4  C   UNL     1      -7.306   9.292  67.143  1.00  0.00    -0.091 C  
HETATM    5  C   UNL     1      -8.283   8.805  68.224  1.00  0.00    -0.118 C  
HETATM    6  C   UNL     1      -9.492   8.135  67.556  1.00  0.00    -0.184 C  
HETATM    7  C   UNL     1     -10.206   9.135  66.632  1.00  0.00    -0.328 C  
HETATM    8  C   UNL     1     -10.669  10.353  67.458  1.00  0.00    -0.339 C  
HETATM    9  C   UNL     1      -9.224   9.600  65.548  1.00  0.00    -0.291 C  
HETATM   10  C   UNL     1      -9.459  11.057  68.136  1.00  0.00    -0.172 C  
HETATM   11  C   UNL     1      -8.488  11.497  67.012  1.00  0.00    -0.164 C  
HETATM   12  C   UNL     1      -8.761  10.013  69.048  1.00  0.00    -0.158 C  
ENDROOT
BRANCH  10  13
HETATM   13  N   UNL     1      -9.982  12.203  68.907  1.00  0.00    -0.422 NA 
HETATM   14  H   UNL     1      -9.300  12.961  68.924  1.00  0.00     0.000 HD 
BRANCH  13  15
HETATM   15  C   UNL     1     -11.293  12.701  68.447  1.00  0.00    -0.290 C  
BRANCH  15  16
HETATM   16  C   UNL     1     -11.132  13.901  67.508  1.00  0.00    -0.286 C  
HETATM   17  O   UNL     1     -11.172  13.739  66.287  1.00  0.00    -0.300 OA 
HETATM   18  N   UNL     1     -10.981  15.155  68.063  1.00  0.00    -0.284 N  
HETATM   19  C   UNL     1     -10.908  16.342  67.236  1.00  0.00    -0.216 C  
HETATM   20  C   UNL     1      -9.982  17.255  68.009  1.00  0.00    -0.304 C  
HETATM   21  C   UNL     1     -10.288  16.940  69.473  1.00  0.00    -0.189 C  
HETATM   22  C   UNL     1     -10.825  15.495  69.481  1.00  0.00    -0.267 C  
HETATM   23  C   UNL     1     -12.102  15.422  70.224  1.00  0.00    -0.369 C  
HETATM   24  N   UNL     1     -13.113  15.385  70.797  1.00  0.00    -0.455 NA 
ENDBRANCH  15  16
ENDBRANCH  13  15
ENDBRANCH  10  13
TORSDOF 3
ENDMDL
MODEL      111
REMARK 921   NORMALIZED FREE ENERGY PREDICTED BY IDOCK:   -4.67 KCAL/MOL
REMARK 922        TOTAL FREE ENERGY PREDICTED BY IDOCK:   -6.13 KCAL/MOL
REMARK 923 INTER-LIGAND FREE ENERGY PREDICTED BY IDOCK:   -5.44 KCAL/MOL
REMARK 924 INTRA-LIGAND FREE ENERGY PREDICTED BY IDOCK:   -0.70 KCAL/MOL
REMARK 927      BINDING AFFINITY PREDICTED BY RF-SCORE:    0.00 PKD
ROOT
HETATM    1  O   UNL     1     -10.930  13.879  70.212  1.00  0.00    -0.415 OA 
HETATM    2  C   UNL     1     -10.872  13.870  68.793  1.00  0.00    -0.263 C  
HETATM    3  H   UNL     1     -10.871  12.991  70.543  1.00  0.00     0.000 HD 
HETATM    4  C   UNL     1     -10.966  15.308  68.257  1.00  0.00    -0.276 C  
HETATM    5  C   UNL     1     -10.912  15.302  66.721  1.00  0.00    -0.306 C  
HETATM    6  C   UNL     1     -12.066  14.449  66.172  1.00  0.00    -0.373 C  
HETATM    7  C   UNL     1     -11.952  13.008  66.695  1.00  0.00    -0.453 C  
HETATM    8  C   UNL     1     -10.600  12.410  66.256  1.00  0.00    -0.277 C  
HETATM    9  C   UNL     1     -12.025  13.027  68.228  1.00  0.00    -0.306 C  
HETATM   10  C   UNL     1      -9.413  13.251  66.810  1.00  0.00    -0.257 C  
HETATM   11  C   UNL     1      -9.531  13.257  68.354  1.00  0.00    -0.172 C  
HETATM   12  C   UNL     1      -9.572  14.697  66.270  1.00  0.00    -0.333 C  
ENDROOT
BRANCH  10  13
HETATM   13  N   UNL     1      -8.162  12.621  66.345  1.00  0.00    -0.315 NA 
HETATM   14  H   UNL     1      -7.463  13.332  66.131  1.00  0.00     0.000 HD 
BRANCH  13  15
HETATM   15  C   UNL     1      -7.604  11.614  67.269  1.00  0.00    -0.147 C  
BRANCH  15  16
HETATM   16  C   UNL     1      -7.728  10.201  66.691  1.00  0.00    -0.106 C  
HETATM   17  O   UNL     1      -7.160   9.914  65.635  1.00  0.00    -0.100 OA 
HETATM   18  N   UNL     1      -8.453   9.262  67.396  1.00  0.00    -0.121 N  
HETATM   19  C   UNL     1      -8.541   7.887  66.950  1.00  0.00    -0.129 C  
HETATM   20  C   UNL     1      -9.924   7.461  67.392  1.00  0.00    -0.239 C  
HETATM   21  C   UNL     1     -10.146   8.219  68.699  1.00  0.00    -0.212 C  
HETATM   22  C   UNL     1      -9.253   9.473  68.607  1.00  0.00    -0.135 C  
HETATM   23  C   UNL     1      -8.419   9.604  69.821  1.00  0.00    -0.190 C  
HETATM   24  N   UNL     1      -7.759   9.683  70.774  1.00  0.00    -0.311 NA 
ENDBRANCH  15  16
ENDBRANCH  13  15
ENDBRANCH  10  13
TORSDOF 3
ENDMDL
MODEL      112
REMARK 921   NORMALIZED FREE ENERGY PREDICTED BY IDOCK:   -4.66 KCAL/MOL
REMARK 922        TOTAL FREE ENERGY PREDICTED BY IDOCK:   -6.12 KCAL/MOL
REMARK 923 INTER-LIGAND FREE ENERGY PREDICTED BY IDOCK:   -5.84 KCAL/MOL
REMARK 924 INTRA-LIGAND FREE ENERGY PREDICTED BY IDOCK:   -0.29 KCAL/MOL
REMARK 927      BINDING AFFINITY PREDICTED BY RF-SCORE:    0.00 PKD
ROOT
HETATM    1  O   UNL     1     -11.336  13.140  63.094  1.00  0.00    -0.620 OA 
HETATM    2  C   UNL     1     -11.057  13.172  64.486  1.00  0.00    -0.356 C  
HETATM    3  H   UNL     1     -11.873  13.886  62.855  1.00  0.00     0.000 HD 
HETATM    4  C   UNL     1     -10.187  11.964  64.873  1.00  0.00    -0.310 C  
HETATM    5  C   UNL     1      -9.891  11.990  66.380  1.00  0.00    -0.238 C  
HETATM    6  C   UNL     1     -11.213  11.970  67.162  1.00  0.00    -0.374 C  
HETATM    7  C   UNL     1     -12.067  13.191  66.786  1.00  0.00    -0.389 C  
HETATM    8  C   UNL     1     -11.285  14.481  67.108  1.00  0.00    -0.341 C  
HETATM    9  C   UNL     1     -12.370  13.143  65.282  1.00  0.00    -0.532 C  
HETATM   10  C   UNL     1      -9.945  14.530  66.319  1.00  0.00    -0.305 C  
HETATM   11  C   UNL     1     -10.292  14.466  64.811  1.00  0.00    -0.352 C  
HETATM   12  C   UNL     1      -9.120  13.278  66.717  1.00  0.00    -0.216 C  
ENDROOT
BRANCH  10  13
HETATM   13  N   UNL     1      -9.256  15.785  66.683  1.00  0.00    -0.233 NA 
HETATM   14  H   UNL     1      -9.902  16.424  67.147  1.00  0.00     0.000 HD 
BRANCH  13  15
HETATM   15  C   UNL     1      -8.040  15.600  67.500  1.00  0.00    -0.160 C  
BRANCH  15  16
HETATM   16  C   UNL     1      -7.934  16.673  68.587  1.00  0.00    -0.236 C  
HETATM   17  O   UNL     1      -8.111  16.373  69.770  1.00  0.00     0.207 OA 
HETATM   18  N   UNL     1      -7.602  17.959  68.213  1.00  0.00    -0.256 N  
HETATM   19  C   UNL     1      -7.402  19.002  69.197  1.00  0.00    -0.257 C  
HETATM   20  C   UNL     1      -7.877  20.252  68.487  1.00  0.00     0.049 C  
HETATM   21  C   UNL     1      -7.496  20.016  67.027  1.00  0.00    -0.301 C  
HETATM   22  C   UNL     1      -7.451  18.485  66.853  1.00  0.00    -0.218 C  
HETATM   23  C   UNL     1      -6.178  18.073  66.224  1.00  0.00    -0.210 C  
HETATM   24  N   UNL     1      -5.165  17.764  65.744  1.00  0.00    -0.187 NA 
ENDBRANCH  15  16
ENDBRANCH  13  15
ENDBRANCH  10  13
TORSDOF 3
ENDMDL
MODEL      113
REMARK 921   NORMALIZED FREE ENERGY PREDICTED BY IDOCK:   -4.65 KCAL/MOL
REMARK 922        TOTAL FREE ENERGY PREDICTED BY IDOCK:   -6.11 KCAL/MOL
REMARK 923 INTER-LIGAND FREE ENERGY PREDICTED BY IDOCK:   -5.54 KCAL/MOL
REMARK 924 INTRA-LIGAND FREE ENERGY PREDICTED BY IDOCK:   -0.57 KCAL/MOL
REMARK 927      BINDING AFFINITY PREDICTED BY RF-SCORE:    0.00 PKD
ROOT
HETATM    1  O   UNL     1      -8.700   7.070  73.040  1.00  0.00    -0.120 OA 
HETATM    2  C   UNL     1      -9.748   7.557  72.214  1.00  0.00    -0.160 C  
HETATM    3  H   UNL     1      -8.936   6.221  73.394  1.00  0.00     0.000 HD 
HETATM    4  C   UNL     1      -9.366   8.932  71.641  1.00  0.00    -0.328 C  
HETATM    5  C   UNL     1     -10.500   9.466  70.753  1.00  0.00    -0.372 C  
HETATM    6  C   UNL     1     -11.791   9.570  71.578  1.00  0.00    -0.478 C  
HETATM    7  C   UNL     1     -12.178   8.188  72.129  1.00  0.00    -0.398 C  
HETATM    8  C   UNL     1     -12.382   7.208  70.955  1.00  0.00    -0.376 C  
HETATM    9  C   UNL     1     -11.044   7.675  73.028  1.00  0.00    -0.437 C  
HETATM   10  C   UNL     1     -11.082   7.077  70.109  1.00  0.00    -0.285 C  
HETATM   11  C   UNL     1      -9.963   6.571  71.053  1.00  0.00    -0.203 C  
HETATM   12  C   UNL     1     -10.721   8.491  69.583  1.00  0.00    -0.200 C  
ENDROOT
BRANCH  10  13
HETATM   13  N   UNL     1     -11.359   6.131  69.009  1.00  0.00    -0.443 NA 
HETATM   14  H   UNL     1     -12.277   5.704  69.128  1.00  0.00     0.000 HD 
BRANCH  13  15
HETATM   15  C   UNL     1     -11.234   6.713  67.658  1.00  0.00    -0.170 C  
BRANCH  15  16
HETATM   16  C   UNL     1     -10.207   5.948  66.817  1.00  0.00    -0.219 C  
HETATM   17  O   UNL     1     -10.423   4.779  66.492  1.00  0.00    -0.268 OA 
HETATM   18  N   UNL     1      -9.068   6.610  66.407  1.00  0.00    -0.151 N  
HETATM   19  C   UNL     1      -8.097   5.974  65.541  1.00  0.00    -0.133 C  
HETATM   20  C   UNL     1      -6.781   6.574  65.986  1.00  0.00    -0.049 C  
HETATM   21  C   UNL     1      -7.142   8.003  66.387  1.00  0.00    -0.074 C  
HETATM   22  C   UNL     1      -8.631   7.958  66.784  1.00  0.00    -0.131 C  
HETATM   23  C   UNL     1      -9.386   9.016  66.078  1.00  0.00    -0.242 C  
HETATM   24  N   UNL     1      -9.968   9.841  65.502  1.00  0.00    -0.305 NA 
ENDBRANCH  15  16
ENDBRANCH  13  15
ENDBRANCH  10  13
TORSDOF 3
ENDMDL
MODEL      114
REMARK 921   NORMALIZED FREE ENERGY PREDICTED BY IDOCK:   -4.65 KCAL/MOL
REMARK 922        TOTAL FREE ENERGY PREDICTED BY IDOCK:   -6.10 KCAL/MOL
REMARK 923 INTER-LIGAND FREE ENERGY PREDICTED BY IDOCK:   -5.59 KCAL/MOL
REMARK 924 INTRA-LIGAND FREE ENERGY PREDICTED BY IDOCK:   -0.51 KCAL/MOL
REMARK 927      BINDING AFFINITY PREDICTED BY RF-SCORE:    0.00 PKD
ROOT
HETATM    1  O   UNL     1      -8.458  10.627  64.323  1.00  0.00    -0.282 OA 
HETATM    2  C   UNL     1      -8.959  10.631  65.652  1.00  0.00    -0.185 C  
HETATM    3  H   UNL     1      -9.179  10.653  63.706  1.00  0.00     0.000 HD 
HETATM    4  C   UNL     1      -7.791  10.589  66.652  1.00  0.00    -0.125 C  
HETATM    5  C   UNL     1      -8.330  10.584  68.091  1.00  0.00    -0.119 C  
HETATM    6  C   UNL     1      -9.249   9.370  68.290  1.00  0.00    -0.133 C  
HETATM    7  C   UNL     1     -10.425   9.430  67.301  1.00  0.00    -0.332 C  
HETATM    8  C   UNL     1     -11.218  10.733  67.530  1.00  0.00    -0.346 C  
HETATM    9  C   UNL     1      -9.873   9.416  65.869  1.00  0.00    -0.362 C  
HETATM   10  C   UNL     1     -10.311  11.980  67.323  1.00  0.00    -0.212 C  
HETATM   11  C   UNL     1      -9.765  11.922  65.875  1.00  0.00    -0.258 C  
HETATM   12  C   UNL     1      -9.133  11.875  68.328  1.00  0.00    -0.183 C  
ENDROOT
BRANCH  10  13
HETATM   13  N   UNL     1     -11.138  13.180  67.564  1.00  0.00    -0.262 NA 
HETATM   14  H   UNL     1     -12.128  12.936  67.564  1.00  0.00     0.000 HD 
BRANCH  13  15
HETATM   15  C   UNL     1     -10.791  13.925  68.790  1.00  0.00    -0.263 C  
BRANCH  15  16
HETATM   16  C   UNL     1     -11.952  14.815  69.245  1.00  0.00    -0.294 C  
HETATM   17  O   UNL     1     -12.281  15.792  68.570  1.00  0.00    -0.108 OA 
HETATM   18  N   UNL     1     -12.633  14.473  70.395  1.00  0.00    -0.350 N  
HETATM   19  C   UNL     1     -13.792  15.221  70.836  1.00  0.00    -0.234 C  
HETATM   20  C   UNL     1     -13.715  15.132  72.345  1.00  0.00    -0.600 C  
HETATM   21  C   UNL     1     -13.123  13.748  72.606  1.00  0.00    -0.489 C  
HETATM   22  C   UNL     1     -12.307  13.403  71.344  1.00  0.00    -0.118 C  
HETATM   23  C   UNL     1     -12.678  12.065  70.838  1.00  0.00    -0.199 C  
HETATM   24  N   UNL     1     -12.993  11.018  70.443  1.00  0.00    -0.138 NA 
ENDBRANCH  15  16
ENDBRANCH  13  15
ENDBRANCH  10  13
TORSDOF 3
ENDMDL
MODEL      115
REMARK 921   NORMALIZED FREE ENERGY PREDICTED BY IDOCK:   -4.63 KCAL/MOL
REMARK 922        TOTAL FREE ENERGY PREDICTED BY IDOCK:   -6.08 KCAL/MOL
REMARK 923 INTER-LIGAND FREE ENERGY PREDICTED BY IDOCK:   -5.67 KCAL/MOL
REMARK 924 INTRA-LIGAND FREE ENERGY PREDICTED BY IDOCK:   -0.41 KCAL/MOL
REMARK 927      BINDING AFFINITY PREDICTED BY RF-SCORE:    0.00 PKD
ROOT
HETATM    1  O   UNL     1      -7.185   9.252  67.899  1.00  0.00    -0.078 OA 
HETATM    2  C   UNL     1      -8.324  10.093  67.789  1.00  0.00    -0.114 C  
HETATM    3  H   UNL     1      -6.850   9.047  67.035  1.00  0.00     0.000 HD 
HETATM    4  C   UNL     1      -8.866  10.425  69.189  1.00  0.00    -0.180 C  
HETATM    5  C   UNL     1     -10.104  11.327  69.074  1.00  0.00    -0.147 C  
HETATM    6  C   UNL     1     -11.180  10.617  68.238  1.00  0.00    -0.362 C  
HETATM    7  C   UNL     1     -10.637  10.308  66.834  1.00  0.00    -0.282 C  
HETATM    8  C   UNL     1     -10.220  11.624  66.145  1.00  0.00    -0.263 C  
HETATM    9  C   UNL     1      -9.412   9.392  66.963  1.00  0.00    -0.200 C  
HETATM   10  C   UNL     1      -9.122  12.358  66.968  1.00  0.00    -0.207 C  
HETATM   11  C   UNL     1      -7.913  11.398  67.087  1.00  0.00    -0.156 C  
HETATM   12  C   UNL     1      -9.704  12.640  68.379  1.00  0.00    -0.187 C  
ENDROOT
BRANCH  10  13
HETATM   13  N   UNL     1      -8.783  13.603  66.251  1.00  0.00    -0.344 NA 
HETATM   14  H   UNL     1      -9.028  13.524  65.264  1.00  0.00     0.000 HD 
BRANCH  13  15
HETATM   15  C   UNL     1      -9.376  14.824  66.831  1.00  0.00    -0.240 C  
BRANCH  15  16
HETATM   16  C   UNL     1      -8.340  15.946  66.941  1.00  0.00    -0.246 C  
HETATM   17  O   UNL     1      -7.143  15.672  67.050  1.00  0.00    -0.196 OA 
HETATM   18  N   UNL     1      -8.775  17.254  66.877  1.00  0.00    -0.230 N  
HETATM   19  C   UNL     1      -7.842  18.361  66.890  1.00  0.00    -0.234 C  
HETATM   20  C   UNL     1      -8.601  19.454  67.610  1.00  0.00    -0.343 C  
HETATM   21  C   UNL     1     -10.054  19.233  67.193  1.00  0.00    -0.473 C  
HETATM   22  C   UNL     1     -10.160  17.736  66.840  1.00  0.00    -0.342 C  
HETATM   23  C   UNL     1     -10.785  17.560  65.511  1.00  0.00    -0.062 C  
HETATM   24  N   UNL     1     -11.262  17.441  64.458  1.00  0.00    -0.789 NA 
ENDBRANCH  15  16
ENDBRANCH  13  15
ENDBRANCH  10  13
TORSDOF 3
ENDMDL
MODEL      116
REMARK 921   NORMALIZED FREE ENERGY PREDICTED BY IDOCK:   -4.62 KCAL/MOL
REMARK 922        TOTAL FREE ENERGY PREDICTED BY IDOCK:   -6.07 KCAL/MOL
REMARK 923 INTER-LIGAND FREE ENERGY PREDICTED BY IDOCK:   -5.56 KCAL/MOL
REMARK 924 INTRA-LIGAND FREE ENERGY PREDICTED BY IDOCK:   -0.52 KCAL/MOL
REMARK 927      BINDING AFFINITY PREDICTED BY RF-SCORE:    0.00 PKD
ROOT
HETATM    1  O   UNL     1      -9.288   8.696  64.976  1.00  0.00    -0.417 OA 
HETATM    2  C   UNL     1      -9.287   8.794  66.393  1.00  0.00    -0.204 C  
HETATM    3  H   UNL     1     -10.138   8.944  64.635  1.00  0.00     0.000 HD 
HETATM    4  C   UNL     1      -7.909   8.392  66.944  1.00  0.00    -0.095 C  
HETATM    5  C   UNL     1      -7.907   8.489  68.478  1.00  0.00    -0.108 C  
HETATM    6  C   UNL     1      -9.000   7.574  69.050  1.00  0.00    -0.131 C  
HETATM    7  C   UNL     1     -10.376   7.996  68.511  1.00  0.00    -0.229 C  
HETATM    8  C   UNL     1     -10.655   9.460  68.908  1.00  0.00    -0.231 C  
HETATM    9  C   UNL     1     -10.370   7.878  66.980  1.00  0.00    -0.411 C  
HETATM   10  C   UNL     1      -9.565  10.410  68.331  1.00  0.00    -0.148 C  
HETATM   11  C   UNL     1      -9.582  10.251  66.790  1.00  0.00    -0.214 C  
HETATM   12  C   UNL     1      -8.194   9.944  68.888  1.00  0.00    -0.118 C  
ENDROOT
BRANCH  10  13
HETATM   13  N   UNL     1      -9.898  11.784  68.757  1.00  0.00    -0.374 NA 
HETATM   14  H   UNL     1      -9.058  12.274  69.064  1.00  0.00     0.000 HD 
BRANCH  13  15
HETATM   15  C   UNL     1     -10.616  12.581  67.743  1.00  0.00    -0.219 C  
BRANCH  15  16
HETATM   16  C   UNL     1      -9.870  13.881  67.430  1.00  0.00    -0.237 C  
HETATM   17  O   UNL     1      -8.952  14.259  68.162  1.00  0.00    -0.174 OA 
HETATM   18  N   UNL     1     -10.223  14.587  66.298  1.00  0.00    -0.286 N  
HETATM   19  C   UNL     1      -9.504  15.778  65.897  1.00  0.00    -0.342 C  
HETATM   20  C   UNL     1     -10.571  16.634  65.249  1.00  0.00    -0.224 C  
HETATM   21  C   UNL     1     -11.503  15.623  64.583  1.00  0.00    -0.306 C  
HETATM   22  C   UNL     1     -11.341  14.318  65.387  1.00  0.00    -0.329 C  
HETATM   23  C   UNL     1     -11.070  13.182  64.480  1.00  0.00    -0.356 C  
HETATM   24  N   UNL     1     -10.841  12.303  63.754  1.00  0.00    -0.402 NA 
ENDBRANCH  15  16
ENDBRANCH  13  15
ENDBRANCH  10  13
TORSDOF 3
ENDMDL
MODEL      117
REMARK 921   NORMALIZED FREE ENERGY PREDICTED BY IDOCK:   -4.60 KCAL/MOL
REMARK 922        TOTAL FREE ENERGY PREDICTED BY IDOCK:   -6.05 KCAL/MOL
REMARK 923 INTER-LIGAND FREE ENERGY PREDICTED BY IDOCK:   -5.64 KCAL/MOL
REMARK 924 INTRA-LIGAND FREE ENERGY PREDICTED BY IDOCK:   -0.42 KCAL/MOL
REMARK 927      BINDING AFFINITY PREDICTED BY RF-SCORE:    0.00 PKD
ROOT
HETATM    1  O   UNL     1     -12.581  14.505  69.259  1.00  0.00    -0.566 OA 
HETATM    2  C   UNL     1     -11.687  13.722  68.481  1.00  0.00    -0.356 C  
HETATM    3  H   UNL     1     -12.152  14.786  70.059  1.00  0.00     0.000 HD 
HETATM    4  C   UNL     1     -12.382  13.267  67.187  1.00  0.00    -0.163 C  
HETATM    5  C   UNL     1     -11.421  12.412  66.346  1.00  0.00    -0.427 C  
HETATM    6  C   UNL     1     -10.968  11.195  67.166  1.00  0.00    -0.350 C  
HETATM    7  C   UNL     1     -10.256  11.658  68.448  1.00  0.00    -0.211 C  
HETATM    8  C   UNL     1      -9.035  12.522  68.071  1.00  0.00    -0.192 C  
HETATM    9  C   UNL     1     -11.232  12.496  69.285  1.00  0.00    -0.256 C  
HETATM   10  C   UNL     1      -9.470  13.769  67.248  1.00  0.00    -0.236 C  
HETATM   11  C   UNL     1     -10.462  14.578  68.120  1.00  0.00    -0.239 C  
HETATM   12  C   UNL     1     -10.193  13.260  65.973  1.00  0.00    -0.291 C  
ENDROOT
BRANCH  10  13
HETATM   13  N   UNL     1      -8.252  14.538  66.923  1.00  0.00    -0.380 NA 
HETATM   14  H   UNL     1      -8.104  14.563  65.914  1.00  0.00     0.000 HD 
BRANCH  13  15
HETATM   15  C   UNL     1      -8.226  15.905  67.479  1.00  0.00    -0.159 C  
BRANCH  15  16
HETATM   16  C   UNL     1      -7.182  16.773  66.770  1.00  0.00    -0.235 C  
HETATM   17  O   UNL     1      -6.275  16.244  66.125  1.00  0.00     0.296 OA 
HETATM   18  N   UNL     1      -7.309  18.145  66.840  1.00  0.00    -0.198 N  
HETATM   19  C   UNL     1      -6.407  19.023  66.124  1.00  0.00    -0.190 C  
HETATM   20  C   UNL     1      -6.306  20.236  67.024  1.00  0.00    -0.237 C  
HETATM   21  C   UNL     1      -7.693  20.345  67.656  1.00  0.00    -0.312 C  
HETATM   22  C   UNL     1      -8.271  18.916  67.634  1.00  0.00    -0.267 C  
HETATM   23  C   UNL     1      -9.625  18.916  67.039  1.00  0.00    -0.312 C  
HETATM   24  N   UNL     1     -10.681  18.930  66.553  1.00  0.00    -0.358 NA 
ENDBRANCH  15  16
ENDBRANCH  13  15
ENDBRANCH  10  13
TORSDOF 3
ENDMDL
MODEL      118
REMARK 921   NORMALIZED FREE ENERGY PREDICTED BY IDOCK:   -4.60 KCAL/MOL
REMARK 922        TOTAL FREE ENERGY PREDICTED BY IDOCK:   -6.05 KCAL/MOL
REMARK 923 INTER-LIGAND FREE ENERGY PREDICTED BY IDOCK:   -5.30 KCAL/MOL
REMARK 924 INTRA-LIGAND FREE ENERGY PREDICTED BY IDOCK:   -0.75 KCAL/MOL
REMARK 927      BINDING AFFINITY PREDICTED BY RF-SCORE:    0.00 PKD
ROOT
HETATM    1  O   UNL     1     -12.237  10.655  68.846  1.00  0.00    -0.757 OA 
HETATM    2  C   UNL     1     -11.059  10.618  68.052  1.00  0.00    -0.301 C  
HETATM    3  H   UNL     1     -12.031  10.410  69.740  1.00  0.00     0.000 HD 
HETATM    4  C   UNL     1     -11.393  11.016  66.604  1.00  0.00    -0.001 C  
HETATM    5  C   UNL     1     -10.123  10.969  65.740  1.00  0.00    -0.305 C  
HETATM    6  C   UNL     1      -9.526   9.555  65.783  1.00  0.00    -0.314 C  
HETATM    7  C   UNL     1      -9.177   9.174  67.230  1.00  0.00    -0.157 C  
HETATM    8  C   UNL     1      -8.163  10.189  67.796  1.00  0.00    -0.110 C  
HETATM    9  C   UNL     1     -10.456   9.207  68.078  1.00  0.00    -0.276 C  
HETATM   10  C   UNL     1      -8.749  11.631  67.774  1.00  0.00    -0.152 C  
HETATM   11  C   UNL     1     -10.042  11.619  68.626  1.00  0.00    -0.206 C  
HETATM   12  C   UNL     1      -9.099  11.971  66.301  1.00  0.00    -0.165 C  
ENDROOT
BRANCH  10  13
HETATM   13  N   UNL     1      -7.723  12.540  68.323  1.00  0.00    -0.134 NA 
HETATM   14  H   UNL     1      -6.795  12.127  68.229  1.00  0.00     0.000 HD 
BRANCH  13  15
HETATM   15  C   UNL     1      -7.741  13.899  67.748  1.00  0.00    -0.172 C  
BRANCH  15  16
HETATM   16  C   UNL     1      -8.230  14.927  68.772  1.00  0.00    -0.161 C  
HETATM   17  O   UNL     1      -7.471  15.325  69.659  1.00  0.00    -0.206 OA 
HETATM   18  N   UNL     1      -9.514  15.418  68.651  1.00  0.00    -0.197 N  
HETATM   19  C   UNL     1     -10.012  16.452  69.533  1.00  0.00    -0.161 C  
HETATM   20  C   UNL     1     -11.484  16.125  69.665  1.00  0.00    -0.290 C  
HETATM   21  C   UNL     1     -11.861  15.557  68.298  1.00  0.00    -0.189 C  
HETATM   22  C   UNL     1     -10.555  14.981  67.715  1.00  0.00    -0.264 C  
HETATM   23  C   UNL     1     -10.332  15.488  66.344  1.00  0.00    -0.296 C  
HETATM   24  N   UNL     1     -10.164  15.910  65.274  1.00  0.00    -0.483 NA 
ENDBRANCH  15  16
ENDBRANCH  13  15
ENDBRANCH  10  13
TORSDOF 3
ENDMDL
MODEL      119
REMARK 921   NORMALIZED FREE ENERGY PREDICTED BY IDOCK:   -4.60 KCAL/MOL
REMARK 922        TOTAL FREE ENERGY PREDICTED BY IDOCK:   -6.04 KCAL/MOL
REMARK 923 INTER-LIGAND FREE ENERGY PREDICTED BY IDOCK:   -5.53 KCAL/MOL
REMARK 924 INTRA-LIGAND FREE ENERGY PREDICTED BY IDOCK:   -0.52 KCAL/MOL
REMARK 927      BINDING AFFINITY PREDICTED BY RF-SCORE:    0.00 PKD
ROOT
HETATM    1  O   UNL     1     -12.267  11.733  65.090  1.00  0.00    -0.241 OA 
HETATM    2  C   UNL     1     -11.586  12.397  66.145  1.00  0.00    -0.396 C  
HETATM    3  H   UNL     1     -11.785  10.956  64.833  1.00  0.00     0.000 HD 
HETATM    4  C   UNL     1     -12.367  13.655  66.561  1.00  0.00    -0.412 C  
HETATM    5  C   UNL     1     -11.629  14.380  67.697  1.00  0.00    -0.396 C  
HETATM    6  C   UNL     1     -10.215  14.758  67.230  1.00  0.00    -0.241 C  
HETATM    7  C   UNL     1      -9.435  13.493  66.837  1.00  0.00    -0.258 C  
HETATM    8  C   UNL     1      -9.352  12.545  68.050  1.00  0.00    -0.205 C  
HETATM    9  C   UNL     1     -10.173  12.789  65.690  1.00  0.00    -0.292 C  
HETATM   10  C   UNL     1     -10.773  12.138  68.536  1.00  0.00    -0.232 C  
HETATM   11  C   UNL     1     -11.488  11.445  67.349  1.00  0.00    -0.328 C  
HETATM   12  C   UNL     1     -11.530  13.440  68.911  1.00  0.00    -0.347 C  
ENDROOT
BRANCH  10  13
HETATM   13  N   UNL     1     -10.610  11.239  69.696  1.00  0.00    -0.454 NA 
HETATM   14  H   UNL     1     -11.426  10.635  69.795  1.00  0.00     0.000 HD 
BRANCH  13  15
HETATM   15  C   UNL     1      -9.373  10.434  69.675  1.00  0.00    -0.066 C  
BRANCH  15  16
HETATM   16  C   UNL     1      -9.475   9.238  70.626  1.00  0.00    -0.272 C  
HETATM   17  O   UNL     1      -9.771   9.414  71.810  1.00  0.00    -0.226 OA 
HETATM   18  N   UNL     1      -9.266   7.972  70.118  1.00  0.00    -0.152 N  
HETATM   19  C   UNL     1      -9.429   6.793  70.942  1.00  0.00    -0.157 C  
HETATM   20  C   UNL     1      -8.400   5.830  70.388  1.00  0.00    -0.121 C  
HETATM   21  C   UNL     1      -8.367   6.143  68.893  1.00  0.00    -0.115 C  
HETATM   22  C   UNL     1      -8.822   7.611  68.768  1.00  0.00    -0.131 C  
HETATM   23  C   UNL     1      -9.903   7.734  67.765  1.00  0.00    -0.161 C  
HETATM   24  N   UNL     1     -10.762   7.810  66.987  1.00  0.00    -0.326 NA 
ENDBRANCH  15  16
ENDBRANCH  13  15
ENDBRANCH  10  13
TORSDOF 3
ENDMDL
MODEL      120
REMARK 921   NORMALIZED FREE ENERGY PREDICTED BY IDOCK:   -4.59 KCAL/MOL
REMARK 922        TOTAL FREE ENERGY PREDICTED BY IDOCK:   -6.04 KCAL/MOL
REMARK 923 INTER-LIGAND FREE ENERGY PREDICTED BY IDOCK:   -5.51 KCAL/MOL
REMARK 924 INTRA-LIGAND FREE ENERGY PREDICTED BY IDOCK:   -0.52 KCAL/MOL
REMARK 927      BINDING AFFINITY PREDICTED BY RF-SCORE:    0.00 PKD
ROOT
HETATM    1  O   UNL     1     -13.661  14.422  65.461  1.00  0.00    -0.476 OA 
HETATM    2  C   UNL     1     -12.471  13.649  65.409  1.00  0.00    -0.499 C  
HETATM    3  H   UNL     1     -14.384  13.883  65.758  1.00  0.00     0.000 HD 
HETATM    4  C   UNL     1     -11.301  14.523  64.927  1.00  0.00    -0.394 C  
HETATM    5  C   UNL     1     -10.013  13.687  64.861  1.00  0.00    -0.183 C  
HETATM    6  C   UNL     1     -10.221  12.499  63.910  1.00  0.00    -0.386 C  
HETATM    7  C   UNL     1     -11.378  11.620  64.410  1.00  0.00    -0.334 C  
HETATM    8  C   UNL     1     -11.055  11.107  65.829  1.00  0.00    -0.084 C  
HETATM    9  C   UNL     1     -12.661  12.461  64.454  1.00  0.00    -0.434 C  
HETATM   10  C   UNL     1     -10.850  12.294  66.815  1.00  0.00    -0.253 C  
HETATM   11  C   UNL     1     -12.158  13.123  66.820  1.00  0.00    -0.389 C  
HETATM   12  C   UNL     1      -9.685  13.161  66.269  1.00  0.00    -0.269 C  
ENDROOT
BRANCH  10  13
HETATM   13  N   UNL     1     -10.541  11.724  68.142  1.00  0.00    -0.195 NA 
HETATM   14  H   UNL     1     -11.061  12.215  68.870  1.00  0.00     0.000 HD 
BRANCH  13  15
HETATM   15  C   UNL     1     -10.759  10.268  68.248  1.00  0.00    -0.237 C  
BRANCH  15  16
HETATM   16  C   UNL     1      -9.709   9.615  69.152  1.00  0.00    -0.178 C  
HETATM   17  O   UNL     1      -9.584   9.986  70.321  1.00  0.00    -0.196 OA 
HETATM   18  N   UNL     1      -8.946   8.587  68.638  1.00  0.00    -0.139 N  
HETATM   19  C   UNL     1      -7.995   7.870  69.461  1.00  0.00    -0.116 C  
HETATM   20  C   UNL     1      -6.891   7.508  68.491  1.00  0.00    -0.066 C  
HETATM   21  C   UNL     1      -7.622   7.264  67.172  1.00  0.00    -0.103 C  
HETATM   22  C   UNL     1      -8.915   8.099  67.255  1.00  0.00    -0.137 C  
HETATM   23  C   UNL     1     -10.091   7.267  66.922  1.00  0.00    -0.247 C  
HETATM   24  N   UNL     1     -11.006   6.594  66.675  1.00  0.00    -0.196 NA 
ENDBRANCH  15  16
ENDBRANCH  13  15
ENDBRANCH  10  13
TORSDOF 3
ENDMDL
MODEL      121
REMARK 921   NORMALIZED FREE ENERGY PREDICTED BY IDOCK:   -4.58 KCAL/MOL
REMARK 922        TOTAL FREE ENERGY PREDICTED BY IDOCK:   -6.03 KCAL/MOL
REMARK 923 INTER-LIGAND FREE ENERGY PREDICTED BY IDOCK:   -5.65 KCAL/MOL
REMARK 924 INTRA-LIGAND FREE ENERGY PREDICTED BY IDOCK:   -0.38 KCAL/MOL
REMARK 927      BINDING AFFINITY PREDICTED BY RF-SCORE:    0.00 PKD
ROOT
HETATM    1  O   UNL     1     -11.772   9.660  70.053  1.00  0.00    -0.421 OA 
HETATM    2  C   UNL     1     -10.663   9.930  69.207  1.00  0.00    -0.224 C  
HETATM    3  H   UNL     1     -11.786  10.278  70.774  1.00  0.00     0.000 HD 
HETATM    4  C   UNL     1     -10.641   8.930  68.040  1.00  0.00    -0.226 C  
HETATM    5  C   UNL     1      -9.438   9.213  67.127  1.00  0.00    -0.197 C  
HETATM    6  C   UNL     1      -8.141   9.112  67.943  1.00  0.00    -0.105 C  
HETATM    7  C   UNL     1      -8.162  10.129  69.095  1.00  0.00    -0.145 C  
HETATM    8  C   UNL     1      -8.310  11.552  68.518  1.00  0.00    -0.146 C  
HETATM    9  C   UNL     1      -9.357   9.824  70.008  1.00  0.00    -0.274 C  
HETATM   10  C   UNL     1      -9.624  11.684  67.695  1.00  0.00    -0.181 C  
HETATM   11  C   UNL     1     -10.802  11.355  68.646  1.00  0.00    -0.249 C  
HETATM   12  C   UNL     1      -9.569  10.634  66.553  1.00  0.00    -0.218 C  
ENDROOT
BRANCH  10  13
HETATM   13  N   UNL     1      -9.691  13.064  67.174  1.00  0.00    -0.224 NA 
HETATM   14  H   UNL     1     -10.264  13.100  66.332  1.00  0.00     0.000 HD 
BRANCH  13  15
HETATM   15  C   UNL     1     -10.155  14.065  68.155  1.00  0.00    -0.244 C  
BRANCH  15  16
HETATM   16  C   UNL     1      -9.059  15.089  68.463  1.00  0.00    -0.188 C  
HETATM   17  O   UNL     1      -8.039  14.741  69.062  1.00  0.00    -0.152 OA 
HETATM   18  N   UNL     1      -9.228  16.386  68.024  1.00  0.00    -0.203 N  
HETATM   19  C   UNL     1      -8.195  17.384  68.207  1.00  0.00    -0.247 C  
HETATM   20  C   UNL     1      -8.974  18.668  68.394  1.00  0.00    -0.356 C  
HETATM   21  C   UNL     1     -10.200  18.491  67.499  1.00  0.00    -0.414 C  
HETATM   22  C   UNL     1     -10.413  16.969  67.385  1.00  0.00    -0.322 C  
HETATM   23  C   UNL     1     -10.545  16.570  65.967  1.00  0.00    -0.253 C  
HETATM   24  N   UNL     1     -10.630  16.271  64.847  1.00  0.00    -0.662 NA 
ENDBRANCH  15  16
ENDBRANCH  13  15
ENDBRANCH  10  13
TORSDOF 3
ENDMDL
MODEL      122
REMARK 921   NORMALIZED FREE ENERGY PREDICTED BY IDOCK:   -4.58 KCAL/MOL
REMARK 922        TOTAL FREE ENERGY PREDICTED BY IDOCK:   -6.03 KCAL/MOL
REMARK 923 INTER-LIGAND FREE ENERGY PREDICTED BY IDOCK:   -5.52 KCAL/MOL
REMARK 924 INTRA-LIGAND FREE ENERGY PREDICTED BY IDOCK:   -0.51 KCAL/MOL
REMARK 927      BINDING AFFINITY PREDICTED BY RF-SCORE:    0.00 PKD
ROOT
HETATM    1  O   UNL     1     -10.190  12.385  69.037  1.00  0.00    -0.420 OA 
HETATM    2  C   UNL     1      -9.707  11.455  68.078  1.00  0.00    -0.186 C  
HETATM    3  H   UNL     1     -11.029  12.096  69.373  1.00  0.00     0.000 HD 
HETATM    4  C   UNL     1      -8.346  11.924  67.534  1.00  0.00    -0.158 C  
HETATM    5  C   UNL     1      -7.825  10.925  66.490  1.00  0.00    -0.152 C  
HETATM    6  C   UNL     1      -8.843  10.799  65.348  1.00  0.00    -0.202 C  
HETATM    7  C   UNL     1     -10.193  10.310  65.896  1.00  0.00    -0.293 C  
HETATM    8  C   UNL     1     -10.001   8.942  66.582  1.00  0.00    -0.346 C  
HETATM    9  C   UNL     1     -10.711  11.325  66.924  1.00  0.00    -0.319 C  
HETATM   10  C   UNL     1      -8.981   9.045  67.752  1.00  0.00    -0.127 C  
HETATM   11  C   UNL     1      -9.532  10.086  68.758  1.00  0.00    -0.162 C  
HETATM   12  C   UNL     1      -7.639   9.552  67.160  1.00  0.00    -0.091 C  
ENDROOT
BRANCH  10  13
HETATM   13  N   UNL     1      -8.849   7.701  68.351  1.00  0.00    -0.130 NA 
HETATM   14  H   UNL     1      -7.893   7.360  68.251  1.00  0.00     0.000 HD 
BRANCH  13  15
HETATM   15  C   UNL     1      -9.281   7.615  69.759  1.00  0.00    -0.147 C  
BRANCH  15  16
HETATM   16  C   UNL     1     -10.693   7.034  69.871  1.00  0.00    -0.240 C  
HETATM   17  O   UNL     1     -11.085   6.201  69.051  1.00  0.00    -0.353 OA 
HETATM   18  N   UNL     1     -11.489   7.435  70.925  1.00  0.00    -0.280 N  
HETATM   19  C   UNL     1     -12.802   6.864  71.138  1.00  0.00    -0.226 C  
HETATM   20  C   UNL     1     -13.594   8.009  71.731  1.00  0.00    -0.395 C  
HETATM   21  C   UNL     1     -12.569   8.776  72.565  1.00  0.00    -0.375 C  
HETATM   22  C   UNL     1     -11.201   8.474  71.919  1.00  0.00    -0.327 C  
HETATM   23  C   UNL     1     -10.234   8.024  72.943  1.00  0.00    -0.314 C  
HETATM   24  N   UNL     1      -9.491   7.657  73.758  1.00  0.00    -0.279 NA 
ENDBRANCH  15  16
ENDBRANCH  13  15
ENDBRANCH  10  13
TORSDOF 3
ENDMDL
MODEL      123
REMARK 921   NORMALIZED FREE ENERGY PREDICTED BY IDOCK:   -4.58 KCAL/MOL
REMARK 922        TOTAL FREE ENERGY PREDICTED BY IDOCK:   -6.03 KCAL/MOL
REMARK 923 INTER-LIGAND FREE ENERGY PREDICTED BY IDOCK:   -5.57 KCAL/MOL
REMARK 924 INTRA-LIGAND FREE ENERGY PREDICTED BY IDOCK:   -0.46 KCAL/MOL
REMARK 927      BINDING AFFINITY PREDICTED BY RF-SCORE:    0.00 PKD
ROOT
HETATM    1  O   UNL     1     -10.913   5.154  66.581  1.00  0.00    -0.434 OA 
HETATM    2  C   UNL     1     -10.325   6.008  67.552  1.00  0.00    -0.210 C  
HETATM    3  H   UNL     1     -11.857   5.153  66.681  1.00  0.00     0.000 HD 
HETATM    4  C   UNL     1      -8.796   6.009  67.390  1.00  0.00    -0.106 C  
HETATM    5  C   UNL     1      -8.156   6.925  68.444  1.00  0.00    -0.120 C  
HETATM    6  C   UNL     1      -8.545   6.439  69.848  1.00  0.00    -0.138 C  
HETATM    7  C   UNL     1     -10.073   6.462  70.009  1.00  0.00    -0.208 C  
HETATM    8  C   UNL     1     -10.590   7.898  69.788  1.00  0.00    -0.242 C  
HETATM    9  C   UNL     1     -10.699   5.530  68.962  1.00  0.00    -0.231 C  
HETATM   10  C   UNL     1     -10.217   8.409  68.366  1.00  0.00    -0.206 C  
HETATM   11  C   UNL     1     -10.854   7.437  67.342  1.00  0.00    -0.299 C  
HETATM   12  C   UNL     1      -8.672   8.360  68.240  1.00  0.00    -0.143 C  
ENDROOT
BRANCH  10  13
HETATM   13  N   UNL     1     -10.739   9.785  68.233  1.00  0.00    -0.290 NA 
HETATM   14  H   UNL     1     -10.359  10.382  68.968  1.00  0.00     0.000 HD 
BRANCH  13  15
HETATM   15  C   UNL     1     -10.520  10.396  66.908  1.00  0.00    -0.240 C  
BRANCH  15  16
HETATM   16  C   UNL     1      -9.997  11.830  67.039  1.00  0.00    -0.204 C  
HETATM   17  O   UNL     1      -8.908  12.043  67.576  1.00  0.00    -0.159 OA 
HETATM   18  N   UNL     1     -10.751  12.857  66.510  1.00  0.00    -0.267 N  
HETATM   19  C   UNL     1     -10.277  14.225  66.524  1.00  0.00    -0.276 C  
HETATM   20  C   UNL     1     -11.546  15.037  66.670  1.00  0.00    -0.201 C  
HETATM   21  C   UNL     1     -12.591  14.233  65.898  1.00  0.00    -0.376 C  
HETATM   22  C   UNL     1     -12.095  12.773  65.927  1.00  0.00    -0.426 C  
HETATM   23  C   UNL     1     -12.085  12.203  64.563  1.00  0.00    -0.334 C  
HETATM   24  N   UNL     1     -12.068  11.776  63.482  1.00  0.00    -0.460 NA 
ENDBRANCH  15  16
ENDBRANCH  13  15
ENDBRANCH  10  13
TORSDOF 3
ENDMDL
MODEL      124
REMARK 921   NORMALIZED FREE ENERGY PREDICTED BY IDOCK:   -4.57 KCAL/MOL
REMARK 922        TOTAL FREE ENERGY PREDICTED BY IDOCK:   -6.01 KCAL/MOL
REMARK 923 INTER-LIGAND FREE ENERGY PREDICTED BY IDOCK:   -6.08 KCAL/MOL
REMARK 924 INTRA-LIGAND FREE ENERGY PREDICTED BY IDOCK:    0.07 KCAL/MOL
REMARK 927      BINDING AFFINITY PREDICTED BY RF-SCORE:    0.00 PKD
ROOT
HETATM    1  O   UNL     1     -12.338  13.808  68.623  1.00  0.00    -0.430 OA 
HETATM    2  C   UNL     1     -11.751  13.958  67.338  1.00  0.00    -0.389 C  
HETATM    3  H   UNL     1     -11.684  13.954  69.296  1.00  0.00     0.000 HD 
HETATM    4  C   UNL     1     -12.811  13.722  66.249  1.00  0.00    -0.081 C  
HETATM    5  C   UNL     1     -12.179  13.876  64.857  1.00  0.00    -0.445 C  
HETATM    6  C   UNL     1     -11.024  12.875  64.706  1.00  0.00    -0.344 C  
HETATM    7  C   UNL     1      -9.959  13.131  65.785  1.00  0.00    -0.260 C  
HETATM    8  C   UNL     1      -9.427  14.572  65.646  1.00  0.00    -0.071 C  
HETATM    9  C   UNL     1     -10.600  12.957  67.169  1.00  0.00    -0.246 C  
HETATM   10  C   UNL     1     -10.578  15.607  65.806  1.00  0.00    -0.361 C  
HETATM   11  C   UNL     1     -11.205  15.390  67.206  1.00  0.00    -0.270 C  
HETATM   12  C   UNL     1     -11.634  15.307  64.710  1.00  0.00    -0.322 C  
ENDROOT
BRANCH  10  13
HETATM   13  N   UNL     1      -9.993  16.955  65.656  1.00  0.00    -0.583 NA 
HETATM   14  H   UNL     1     -10.228  17.345  64.744  1.00  0.00     0.000 HD 
BRANCH  13  15
HETATM   15  C   UNL     1     -10.355  17.901  66.730  1.00  0.00    -0.355 C  
BRANCH  15  16
HETATM   16  C   UNL     1      -9.117  18.613  67.282  1.00  0.00    -0.277 C  
HETATM   17  O   UNL     1      -8.876  19.777  66.953  1.00  0.00    -0.306 OA 
HETATM   18  N   UNL     1      -8.313  17.938  68.177  1.00  0.00    -0.259 N  
HETATM   19  C   UNL     1      -7.176  18.579  68.803  1.00  0.00    -0.296 C  
HETATM   20  C   UNL     1      -6.183  17.449  68.973  1.00  0.00    -0.209 C  
HETATM   21  C   UNL     1      -7.057  16.227  69.249  1.00  0.00    -0.222 C  
HETATM   22  C   UNL     1      -8.418  16.535  68.593  1.00  0.00    -0.243 C  
HETATM   23  C   UNL     1      -9.518  16.310  69.554  1.00  0.00    -0.068 C  
HETATM   24  N   UNL     1     -10.370  16.144  70.328  1.00  0.00    -0.045 NA 
ENDBRANCH  15  16
ENDBRANCH  13  15
ENDBRANCH  10  13
TORSDOF 3
ENDMDL
MODEL      125
REMARK 921   NORMALIZED FREE ENERGY PREDICTED BY IDOCK:   -4.57 KCAL/MOL
REMARK 922        TOTAL FREE ENERGY PREDICTED BY IDOCK:   -6.01 KCAL/MOL
REMARK 923 INTER-LIGAND FREE ENERGY PREDICTED BY IDOCK:   -5.38 KCAL/MOL
REMARK 924 INTRA-LIGAND FREE ENERGY PREDICTED BY IDOCK:   -0.63 KCAL/MOL
REMARK 927      BINDING AFFINITY PREDICTED BY RF-SCORE:    0.00 PKD
ROOT
HETATM    1  O   UNL     1      -6.611  19.046  66.921  1.00  0.00    -0.194 OA 
HETATM    2  C   UNL     1      -7.882  18.420  67.024  1.00  0.00    -0.227 C  
HETATM    3  H   UNL     1      -5.960  18.532  67.385  1.00  0.00     0.000 HD 
HETATM    4  C   UNL     1      -8.936  19.252  66.273  1.00  0.00    -0.347 C  
HETATM    5  C   UNL     1     -10.314  18.583  66.389  1.00  0.00    -0.456 C  
HETATM    6  C   UNL     1     -10.695  18.448  67.871  1.00  0.00    -0.334 C  
HETATM    7  C   UNL     1      -9.648  17.598  68.609  1.00  0.00    -0.307 C  
HETATM    8  C   UNL     1      -9.570  16.202  67.956  1.00  0.00    -0.220 C  
HETATM    9  C   UNL     1      -8.280  18.286  68.500  1.00  0.00    -0.329 C  
HETATM   10  C   UNL     1      -9.175  16.312  66.455  1.00  0.00    -0.269 C  
HETATM   11  C   UNL     1      -7.800  17.022  66.389  1.00  0.00    -0.343 C  
HETATM   12  C   UNL     1     -10.247  17.185  65.751  1.00  0.00    -0.234 C  
ENDROOT
BRANCH  10  13
HETATM   13  N   UNL     1      -9.127  14.943  65.904  1.00  0.00    -0.477 NA 
HETATM   14  H   UNL     1      -8.179  14.713  65.604  1.00  0.00     0.000 HD 
BRANCH  13  15
HETATM   15  C   UNL     1      -9.647  13.900  66.811  1.00  0.00    -0.283 C  
BRANCH  15  16
HETATM   16  C   UNL     1      -9.113  12.517  66.429  1.00  0.00    -0.127 C  
HETATM   17  O   UNL     1      -9.599  11.910  65.472  1.00  0.00    -0.232 OA 
HETATM   18  N   UNL     1      -8.060  11.994  67.152  1.00  0.00    -0.172 N  
HETATM   19  C   UNL     1      -7.452  10.730  66.792  1.00  0.00    -0.129 C  
HETATM   20  C   UNL     1      -7.026  10.152  68.125  1.00  0.00    -0.075 C  
HETATM   21  C   UNL     1      -6.635  11.375  68.952  1.00  0.00    -0.071 C  
HETATM   22  C   UNL     1      -7.441  12.549  68.360  1.00  0.00    -0.127 C  
HETATM   23  C   UNL     1      -6.549  13.691  68.065  1.00  0.00    -0.136 C  
HETATM   24  N   UNL     1      -5.831  14.573  67.823  1.00  0.00    -0.291 NA 
ENDBRANCH  15  16
ENDBRANCH  13  15
ENDBRANCH  10  13
TORSDOF 3
ENDMDL
MODEL      126
REMARK 921   NORMALIZED FREE ENERGY PREDICTED BY IDOCK:   -4.57 KCAL/MOL
REMARK 922        TOTAL FREE ENERGY PREDICTED BY IDOCK:   -6.01 KCAL/MOL
REMARK 923 INTER-LIGAND FREE ENERGY PREDICTED BY IDOCK:   -5.54 KCAL/MOL
REMARK 924 INTRA-LIGAND FREE ENERGY PREDICTED BY IDOCK:   -0.47 KCAL/MOL
REMARK 927      BINDING AFFINITY PREDICTED BY RF-SCORE:    0.00 PKD
ROOT
HETATM    1  O   UNL     1     -12.197  16.565  74.338  1.00  0.00    -0.592 OA 
HETATM    2  C   UNL     1     -12.551  15.713  73.258  1.00  0.00    -0.503 C  
HETATM    3  H   UNL     1     -11.304  16.388  74.610  1.00  0.00     0.000 HD 
HETATM    4  C   UNL     1     -13.996  16.001  72.817  1.00  0.00    -0.326 C  
HETATM    5  C   UNL     1     -14.385  15.075  71.655  1.00  0.00    -0.680 C  
HETATM    6  C   UNL     1     -14.242  13.611  72.096  1.00  0.00    -0.481 C  
HETATM    7  C   UNL     1     -12.790  13.326  72.514  1.00  0.00    -0.129 C  
HETATM    8  C   UNL     1     -11.850  13.612  71.326  1.00  0.00     0.278 C  
HETATM    9  C   UNL     1     -12.420  14.245  73.687  1.00  0.00     0.258 C  
HETATM   10  C   UNL     1     -11.969  15.094  70.866  1.00  0.00    -0.328 C  
HETATM   11  C   UNL     1     -11.602  15.985  72.078  1.00  0.00    -0.512 C  
HETATM   12  C   UNL     1     -13.447  15.343  70.465  1.00  0.00    -0.079 C  
ENDROOT
BRANCH  10  13
HETATM   13  N   UNL     1     -11.047  15.286  69.729  1.00  0.00    -0.263 NA 
HETATM   14  H   UNL     1     -10.292  15.921  69.986  1.00  0.00     0.000 HD 
BRANCH  13  15
HETATM   15  C   UNL     1     -10.499  14.034  69.169  1.00  0.00    -0.086 C  
BRANCH  15  16
HETATM   16  C   UNL     1     -10.816  13.909  67.676  1.00  0.00    -0.254 C  
HETATM   17  O   UNL     1     -11.554  14.732  67.130  1.00  0.00    -0.370 OA 
HETATM   18  N   UNL     1     -10.227  12.886  66.961  1.00  0.00    -0.241 N  
HETATM   19  C   UNL     1     -10.416  12.760  65.531  1.00  0.00    -0.287 C  
HETATM   20  C   UNL     1     -10.382  11.264  65.302  1.00  0.00    -0.337 C  
HETATM   21  C   UNL     1      -9.383  10.753  66.338  1.00  0.00    -0.198 C  
HETATM   22  C   UNL     1      -9.406  11.788  67.481  1.00  0.00    -0.174 C  
HETATM   23  C   UNL     1      -8.032  12.218  67.817  1.00  0.00    -0.154 C  
HETATM   24  N   UNL     1      -6.947  12.558  68.057  1.00  0.00    -0.083 NA 
ENDBRANCH  15  16
ENDBRANCH  13  15
ENDBRANCH  10  13
TORSDOF 3
ENDMDL
MODEL      127
REMARK 921   NORMALIZED FREE ENERGY PREDICTED BY IDOCK:   -4.56 KCAL/MOL
REMARK 922        TOTAL FREE ENERGY PREDICTED BY IDOCK:   -6.01 KCAL/MOL
REMARK 923 INTER-LIGAND FREE ENERGY PREDICTED BY IDOCK:   -5.58 KCAL/MOL
REMARK 924 INTRA-LIGAND FREE ENERGY PREDICTED BY IDOCK:   -0.43 KCAL/MOL
REMARK 927      BINDING AFFINITY PREDICTED BY RF-SCORE:    0.00 PKD
ROOT
HETATM    1  O   UNL     1      -7.256  14.425  66.846  1.00  0.00    -0.325 OA 
HETATM    2  C   UNL     1      -8.619  14.788  67.019  1.00  0.00    -0.234 C  
HETATM    3  H   UNL     1      -6.956  14.700  65.988  1.00  0.00     0.000 HD 
HETATM    4  C   UNL     1      -9.105  14.343  68.409  1.00  0.00    -0.193 C  
HETATM    5  C   UNL     1     -10.581  14.726  68.597  1.00  0.00    -0.255 C  
HETATM    6  C   UNL     1     -11.426  14.066  67.498  1.00  0.00    -0.369 C  
HETATM    7  C   UNL     1     -10.947  14.532  66.113  1.00  0.00    -0.322 C  
HETATM    8  C   UNL     1     -11.069  16.067  66.020  1.00  0.00     0.016 C  
HETATM    9  C   UNL     1      -9.478  14.128  65.932  1.00  0.00    -0.131 C  
HETATM   10  C   UNL     1     -10.212  16.760  67.119  1.00  0.00    -0.295 C  
HETATM   11  C   UNL     1      -8.743  16.317  66.909  1.00  0.00    -0.237 C  
HETATM   12  C   UNL     1     -10.718  16.255  68.496  1.00  0.00    -0.307 C  
ENDROOT
BRANCH  10  13
HETATM   13  N   UNL     1     -10.386  18.219  66.967  1.00  0.00    -0.374 NA 
HETATM   14  H   UNL     1     -10.916  18.598  67.752  1.00  0.00     0.000 HD 
BRANCH  13  15
HETATM   15  C   UNL     1      -9.126  18.968  66.789  1.00  0.00    -0.320 C  
BRANCH  15  16
HETATM   16  C   UNL     1      -8.533  19.384  68.138  1.00  0.00    -0.332 C  
HETATM   17  O   UNL     1      -9.221  19.327  69.160  1.00  0.00    -0.307 OA 
HETATM   18  N   UNL     1      -7.213  19.783  68.183  1.00  0.00    -0.287 N  
HETATM   19  C   UNL     1      -6.565  20.108  69.436  1.00  0.00    -0.265 C  
HETATM   20  C   UNL     1      -5.581  21.193  69.054  1.00  0.00    -0.278 C  
HETATM   21  C   UNL     1      -5.138  20.811  67.643  1.00  0.00    -0.236 C  
HETATM   22  C   UNL     1      -6.301  19.988  67.053  1.00  0.00    -0.188 C  
HETATM   23  C   UNL     1      -5.801  18.715  66.491  1.00  0.00    -0.151 C  
HETATM   24  N   UNL     1      -5.393  17.711  66.069  1.00  0.00    -0.192 NA 
ENDBRANCH  15  16
ENDBRANCH  13  15
ENDBRANCH  10  13
TORSDOF 3
ENDMDL
MODEL      128
REMARK 921   NORMALIZED FREE ENERGY PREDICTED BY IDOCK:   -4.54 KCAL/MOL
REMARK 922        TOTAL FREE ENERGY PREDICTED BY IDOCK:   -5.98 KCAL/MOL
REMARK 923 INTER-LIGAND FREE ENERGY PREDICTED BY IDOCK:   -5.53 KCAL/MOL
REMARK 924 INTRA-LIGAND FREE ENERGY PREDICTED BY IDOCK:   -0.45 KCAL/MOL
REMARK 927      BINDING AFFINITY PREDICTED BY RF-SCORE:    0.00 PKD
ROOT
HETATM    1  O   UNL     1     -11.763  16.888  73.882  1.00  0.00    -0.159 OA 
HETATM    2  C   UNL     1     -12.270  15.933  72.960  1.00  0.00    -0.504 C  
HETATM    3  H   UNL     1     -10.817  16.818  73.931  1.00  0.00     0.000 HD 
HETATM    4  C   UNL     1     -13.802  16.047  72.881  1.00  0.00    -0.409 C  
HETATM    5  C   UNL     1     -14.355  15.010  71.891  1.00  0.00    -0.677 C  
HETATM    6  C   UNL     1     -13.946  13.600  72.344  1.00  0.00    -0.651 C  
HETATM    7  C   UNL     1     -12.414  13.489  72.400  1.00  0.00     0.135 C  
HETATM    8  C   UNL     1     -11.828  13.784  71.005  1.00  0.00    -0.063 C  
HETATM    9  C   UNL     1     -11.876  14.517  73.405  1.00  0.00     0.116 C  
HETATM   10  C   UNL     1     -12.220  15.212  70.527  1.00  0.00    -0.341 C  
HETATM   11  C   UNL     1     -11.672  16.216  71.572  1.00  0.00    -0.533 C  
HETATM   12  C   UNL     1     -13.769  15.287  70.496  1.00  0.00     0.066 C  
ENDROOT
BRANCH  10  13
HETATM   13  N   UNL     1     -11.629  15.415  69.189  1.00  0.00    -0.318 NA 
HETATM   14  H   UNL     1     -12.178  16.090  68.657  1.00  0.00     0.000 HD 
BRANCH  13  15
HETATM   15  C   UNL     1     -10.206  15.807  69.203  1.00  0.00    -0.231 C  
BRANCH  15  16
HETATM   16  C   UNL     1      -9.970  17.070  68.371  1.00  0.00    -0.289 C  
HETATM   17  O   UNL     1     -10.893  17.867  68.183  1.00  0.00    -0.322 OA 
HETATM   18  N   UNL     1      -8.704  17.307  67.876  1.00  0.00    -0.227 N  
HETATM   19  C   UNL     1      -8.392  18.522  67.153  1.00  0.00    -0.249 C  
HETATM   20  C   UNL     1      -7.346  18.079  66.153  1.00  0.00    -0.317 C  
HETATM   21  C   UNL     1      -6.562  16.995  66.892  1.00  0.00    -0.251 C  
HETATM   22  C   UNL     1      -7.538  16.419  67.937  1.00  0.00    -0.148 C  
HETATM   23  C   UNL     1      -6.911  16.400  69.276  1.00  0.00    -0.218 C  
HETATM   24  N   UNL     1      -6.409  16.408  70.325  1.00  0.00     0.060 NA 
ENDBRANCH  15  16
ENDBRANCH  13  15
ENDBRANCH  10  13
TORSDOF 3
ENDMDL
MODEL      129
REMARK 921   NORMALIZED FREE ENERGY PREDICTED BY IDOCK:   -4.54 KCAL/MOL
REMARK 922        TOTAL FREE ENERGY PREDICTED BY IDOCK:   -5.98 KCAL/MOL
REMARK 923 INTER-LIGAND FREE ENERGY PREDICTED BY IDOCK:   -5.43 KCAL/MOL
REMARK 924 INTRA-LIGAND FREE ENERGY PREDICTED BY IDOCK:   -0.54 KCAL/MOL
REMARK 927      BINDING AFFINITY PREDICTED BY RF-SCORE:    0.00 PKD
ROOT
HETATM    1  O   UNL     1     -12.629  12.186  63.806  1.00  0.00    -0.590 OA 
HETATM    2  C   UNL     1     -11.950  12.778  64.904  1.00  0.00    -0.402 C  
HETATM    3  H   UNL     1     -12.060  11.562  63.372  1.00  0.00     0.000 HD 
HETATM    4  C   UNL     1     -12.873  13.788  65.606  1.00  0.00    -0.456 C  
HETATM    5  C   UNL     1     -12.139  14.437  66.790  1.00  0.00    -0.393 C  
HETATM    6  C   UNL     1     -10.868  15.135  66.284  1.00  0.00    -0.333 C  
HETATM    7  C   UNL     1      -9.942  14.114  65.603  1.00  0.00    -0.331 C  
HETATM    8  C   UNL     1      -9.569  13.009  66.612  1.00  0.00    -0.259 C  
HETATM    9  C   UNL     1     -10.681  13.487  64.412  1.00  0.00    -0.402 C  
HETATM   10  C   UNL     1     -10.841  12.279  67.132  1.00  0.00    -0.244 C  
HETATM   11  C   UNL     1     -11.563  11.673  65.902  1.00  0.00    -0.094 C  
HETATM   12  C   UNL     1     -11.752  13.343  67.799  1.00  0.00    -0.394 C  
ENDROOT
BRANCH  10  13
HETATM   13  N   UNL     1     -10.403  11.245  68.091  1.00  0.00    -0.180 NA 
HETATM   14  H   UNL     1     -10.826  11.406  69.005  1.00  0.00     0.000 HD 
BRANCH  13  15
HETATM   15  C   UNL     1     -10.647   9.858  67.648  1.00  0.00    -0.270 C  
BRANCH  15  16
HETATM   16  C   UNL     1      -9.612   8.897  68.239  1.00  0.00    -0.146 C  
HETATM   17  O   UNL     1      -9.923   8.152  69.171  1.00  0.00    -0.182 OA 
HETATM   18  N   UNL     1      -8.351   8.862  67.681  1.00  0.00    -0.110 N  
HETATM   19  C   UNL     1      -7.351   7.919  68.135  1.00  0.00    -0.099 C  
HETATM   20  C   UNL     1      -6.049   8.671  67.958  1.00  0.00    -0.051 C  
HETATM   21  C   UNL     1      -6.283   9.527  66.714  1.00  0.00    -0.065 C  
HETATM   22  C   UNL     1      -7.808   9.741  66.639  1.00  0.00    -0.109 C  
HETATM   23  C   UNL     1      -8.312   9.399  65.292  1.00  0.00    -0.141 C  
HETATM   24  N   UNL     1      -8.694   9.111  64.233  1.00  0.00    -0.184 NA 
ENDBRANCH  15  16
ENDBRANCH  13  15
ENDBRANCH  10  13
TORSDOF 3
ENDMDL
MODEL      130
REMARK 921   NORMALIZED FREE ENERGY PREDICTED BY IDOCK:   -4.53 KCAL/MOL
REMARK 922        TOTAL FREE ENERGY PREDICTED BY IDOCK:   -5.97 KCAL/MOL
REMARK 923 INTER-LIGAND FREE ENERGY PREDICTED BY IDOCK:   -5.57 KCAL/MOL
REMARK 924 INTRA-LIGAND FREE ENERGY PREDICTED BY IDOCK:   -0.40 KCAL/MOL
REMARK 927      BINDING AFFINITY PREDICTED BY RF-SCORE:    0.00 PKD
ROOT
HETATM    1  O   UNL     1     -10.348   4.153  66.379  1.00  0.00    -0.385 OA 
HETATM    2  C   UNL     1      -9.791   5.258  67.077  1.00  0.00    -0.167 C  
HETATM    3  H   UNL     1     -11.223   3.976  66.701  1.00  0.00     0.000 HD 
HETATM    4  C   UNL     1      -8.373   5.545  66.555  1.00  0.00    -0.109 C  
HETATM    5  C   UNL     1      -7.764   6.734  67.313  1.00  0.00    -0.109 C  
HETATM    6  C   UNL     1      -7.727   6.419  68.816  1.00  0.00    -0.101 C  
HETATM    7  C   UNL     1      -9.150   6.154  69.334  1.00  0.00    -0.135 C  
HETATM    8  C   UNL     1     -10.027   7.397  69.079  1.00  0.00    -0.176 C  
HETATM    9  C   UNL     1      -9.740   4.954  68.581  1.00  0.00    -0.225 C  
HETATM   10  C   UNL     1     -10.089   7.731  67.560  1.00  0.00    -0.209 C  
HETATM   11  C   UNL     1     -10.674   6.493  66.837  1.00  0.00    -0.403 C  
HETATM   12  C   UNL     1      -8.636   7.979  67.076  1.00  0.00    -0.127 C  
ENDROOT
BRANCH  10  13
HETATM   13  N   UNL     1     -10.937   8.929  67.400  1.00  0.00    -0.407 NA 
HETATM   14  H   UNL     1     -11.850   8.779  67.829  1.00  0.00     0.000 HD 
BRANCH  13  15
HETATM   15  C   UNL     1     -10.333  10.178  67.903  1.00  0.00    -0.194 C  
BRANCH  15  16
HETATM   16  C   UNL     1     -11.358  11.315  67.940  1.00  0.00    -0.299 C  
HETATM   17  O   UNL     1     -12.366  11.215  68.644  1.00  0.00    -0.549 OA 
HETATM   18  N   UNL     1     -11.106  12.454  67.204  1.00  0.00    -0.265 N  
HETATM   19  C   UNL     1     -11.990  13.599  67.260  1.00  0.00    -0.381 C  
HETATM   20  C   UNL     1     -11.899  14.183  65.866  1.00  0.00    -0.391 C  
HETATM   21  C   UNL     1     -10.455  13.916  65.446  1.00  0.00    -0.357 C  
HETATM   22  C   UNL     1     -10.009  12.684  66.258  1.00  0.00    -0.258 C  
HETATM   23  C   UNL     1      -8.722  12.951  66.937  1.00  0.00    -0.161 C  
HETATM   24  N   UNL     1      -7.720  13.183  67.478  1.00  0.00    -0.160 NA 
ENDBRANCH  15  16
ENDBRANCH  13  15
ENDBRANCH  10  13
TORSDOF 3
ENDMDL
MODEL      131
REMARK 921   NORMALIZED FREE ENERGY PREDICTED BY IDOCK:   -4.53 KCAL/MOL
REMARK 922        TOTAL FREE ENERGY PREDICTED BY IDOCK:   -5.97 KCAL/MOL
REMARK 923 INTER-LIGAND FREE ENERGY PREDICTED BY IDOCK:   -5.52 KCAL/MOL
REMARK 924 INTRA-LIGAND FREE ENERGY PREDICTED BY IDOCK:   -0.45 KCAL/MOL
REMARK 927      BINDING AFFINITY PREDICTED BY RF-SCORE:    0.00 PKD
ROOT
HETATM    1  O   UNL     1      -8.105  16.984  65.770  1.00  0.00    -0.460 OA 
HETATM    2  C   UNL     1      -8.992  16.416  66.723  1.00  0.00    -0.236 C  
HETATM    3  H   UNL     1      -7.206  16.806  66.019  1.00  0.00     0.000 HD 
HETATM    4  C   UNL     1     -10.448  16.704  66.319  1.00  0.00    -0.272 C  
HETATM    5  C   UNL     1     -11.410  16.099  67.352  1.00  0.00     0.061 C  
HETATM    6  C   UNL     1     -11.112  16.692  68.738  1.00  0.00    -0.270 C  
HETATM    7  C   UNL     1      -9.662  16.382  69.143  1.00  0.00    -0.260 C  
HETATM    8  C   UNL     1      -9.454  14.854  69.170  1.00  0.00    -0.158 C  
HETATM    9  C   UNL     1      -8.712  17.007  68.113  1.00  0.00    -0.233 C  
HETATM   10  C   UNL     1      -9.739  14.230  67.773  1.00  0.00    -0.222 C  
HETATM   11  C   UNL     1      -8.772  14.895  66.762  1.00  0.00    -0.278 C  
HETATM   12  C   UNL     1     -11.204  14.575  67.396  1.00  0.00    -0.337 C  
ENDROOT
BRANCH  10  13
HETATM   13  N   UNL     1      -9.524  12.773  67.881  1.00  0.00    -0.201 NA 
HETATM   14  H   UNL     1      -9.022  12.550  68.741  1.00  0.00     0.000 HD 
BRANCH  13  15
HETATM   15  C   UNL     1     -10.756  11.965  67.782  1.00  0.00    -0.207 C  
BRANCH  15  16
HETATM   16  C   UNL     1     -11.222  11.493  69.162  1.00  0.00    -0.274 C  
HETATM   17  O   UNL     1     -12.046  12.157  69.796  1.00  0.00    -0.290 OA 
HETATM   18  N   UNL     1     -10.731  10.300  69.651  1.00  0.00    -0.246 N  
HETATM   19  C   UNL     1     -11.193   9.754  70.910  1.00  0.00    -0.359 C  
HETATM   20  C   UNL     1      -9.973   9.043  71.455  1.00  0.00    -0.391 C  
HETATM   21  C   UNL     1      -9.265   8.514  70.210  1.00  0.00    -0.164 C  
HETATM   22  C   UNL     1      -9.689   9.452  69.062  1.00  0.00    -0.166 C  
HETATM   23  C   UNL     1     -10.183   8.668  67.909  1.00  0.00    -0.219 C  
HETATM   24  N   UNL     1     -10.584   8.038  67.019  1.00  0.00    -0.335 NA 
ENDBRANCH  15  16
ENDBRANCH  13  15
ENDBRANCH  10  13
TORSDOF 3
ENDMDL
MODEL      132
REMARK 921   NORMALIZED FREE ENERGY PREDICTED BY IDOCK:   -4.51 KCAL/MOL
REMARK 922        TOTAL FREE ENERGY PREDICTED BY IDOCK:   -5.95 KCAL/MOL
REMARK 923 INTER-LIGAND FREE ENERGY PREDICTED BY IDOCK:   -5.38 KCAL/MOL
REMARK 924 INTRA-LIGAND FREE ENERGY PREDICTED BY IDOCK:   -0.56 KCAL/MOL
REMARK 927      BINDING AFFINITY PREDICTED BY RF-SCORE:    0.00 PKD
ROOT
HETATM    1  O   UNL     1      -9.698  16.487  67.462  1.00  0.00    -0.237 OA 
HETATM    2  C   UNL     1     -10.199  15.198  67.140  1.00  0.00    -0.247 C  
HETATM    3  H   UNL     1      -9.988  16.738  68.331  1.00  0.00     0.000 HD 
HETATM    4  C   UNL     1      -9.729  14.792  65.733  1.00  0.00    -0.347 C  
HETATM    5  C   UNL     1     -10.276  13.401  65.377  1.00  0.00    -0.311 C  
HETATM    6  C   UNL     1     -11.810  13.421  65.444  1.00  0.00    -0.381 C  
HETATM    7  C   UNL     1     -12.272  13.807  66.858  1.00  0.00    -0.408 C  
HETATM    8  C   UNL     1     -11.715  12.788  67.874  1.00  0.00    -0.408 C  
HETATM    9  C   UNL     1     -11.734  15.205  67.194  1.00  0.00    -0.141 C  
HETATM   10  C   UNL     1     -10.159  12.757  67.833  1.00  0.00    -0.231 C  
HETATM   11  C   UNL     1      -9.658  14.185  68.163  1.00  0.00    -0.218 C  
HETATM   12  C   UNL     1      -9.736  12.376  66.390  1.00  0.00    -0.246 C  
ENDROOT
BRANCH  10  13
HETATM   13  N   UNL     1      -9.706  11.760  68.824  1.00  0.00    -0.384 NA 
HETATM   14  H   UNL     1     -10.469  11.511  69.454  1.00  0.00     0.000 HD 
BRANCH  13  15
HETATM   15  C   UNL     1      -9.107  10.545  68.238  1.00  0.00    -0.146 C  
BRANCH  15  16
HETATM   16  C   UNL     1     -10.050   9.345  68.365  1.00  0.00    -0.185 C  
HETATM   17  O   UNL     1     -10.967   9.365  69.189  1.00  0.00    -0.192 OA 
HETATM   18  N   UNL     1      -9.871   8.273  67.515  1.00  0.00    -0.165 N  
HETATM   19  C   UNL     1     -10.777   7.143  67.524  1.00  0.00    -0.274 C  
HETATM   20  C   UNL     1      -9.884   5.972  67.173  1.00  0.00    -0.165 C  
HETATM   21  C   UNL     1      -8.859   6.564  66.208  1.00  0.00    -0.154 C  
HETATM   22  C   UNL     1      -8.783   8.064  66.554  1.00  0.00    -0.146 C  
HETATM   23  C   UNL     1      -8.941   8.885  65.334  1.00  0.00    -0.182 C  
HETATM   24  N   UNL     1      -9.083   9.516  64.368  1.00  0.00    -0.218 NA 
ENDBRANCH  15  16
ENDBRANCH  13  15
ENDBRANCH  10  13
TORSDOF 3
ENDMDL
MODEL      133
REMARK 921   NORMALIZED FREE ENERGY PREDICTED BY IDOCK:   -4.50 KCAL/MOL
REMARK 922        TOTAL FREE ENERGY PREDICTED BY IDOCK:   -5.93 KCAL/MOL
REMARK 923 INTER-LIGAND FREE ENERGY PREDICTED BY IDOCK:   -5.45 KCAL/MOL
REMARK 924 INTRA-LIGAND FREE ENERGY PREDICTED BY IDOCK:   -0.48 KCAL/MOL
REMARK 927      BINDING AFFINITY PREDICTED BY RF-SCORE:    0.00 PKD
ROOT
HETATM    1  O   UNL     1     -10.444  18.990  65.801  1.00  0.00    -0.530 OA 
HETATM    2  C   UNL     1      -9.353  18.520  66.580  1.00  0.00    -0.313 C  
HETATM    3  H   UNL     1     -10.236  18.919  64.877  1.00  0.00     0.000 HD 
HETATM    4  C   UNL     1      -9.692  18.634  68.075  1.00  0.00    -0.355 C  
HETATM    5  C   UNL     1      -8.511  18.135  68.922  1.00  0.00    -0.134 C  
HETATM    6  C   UNL     1      -7.259  18.961  68.592  1.00  0.00    -0.333 C  
HETATM    7  C   UNL     1      -6.915  18.824  67.100  1.00  0.00    -0.206 C  
HETATM    8  C   UNL     1      -6.668  17.339  66.766  1.00  0.00    -0.249 C  
HETATM    9  C   UNL     1      -8.096  19.343  66.267  1.00  0.00    -0.335 C  
HETATM   10  C   UNL     1      -7.928  16.481  67.082  1.00  0.00    -0.180 C  
HETATM   11  C   UNL     1      -9.096  17.043  66.234  1.00  0.00    -0.279 C  
HETATM   12  C   UNL     1      -8.248  16.656  68.590  1.00  0.00    -0.245 C  
ENDROOT
BRANCH  10  13
HETATM   13  N   UNL     1      -7.612  15.079  66.742  1.00  0.00    -0.275 NA 
HETATM   14  H   UNL     1      -7.021  14.663  67.462  1.00  0.00     0.000 HD 
BRANCH  13  15
HETATM   15  C   UNL     1      -8.793  14.230  66.492  1.00  0.00    -0.063 C  
BRANCH  15  16
HETATM   16  C   UNL     1      -8.683  12.894  67.233  1.00  0.00    -0.204 C  
HETATM   17  O   UNL     1      -7.576  12.388  67.432  1.00  0.00    -0.143 OA 
HETATM   18  N   UNL     1      -9.838  12.302  67.700  1.00  0.00    -0.193 N  
HETATM   19  C   UNL     1      -9.799  11.083  68.481  1.00  0.00    -0.192 C  
HETATM   20  C   UNL     1     -11.075  10.371  68.088  1.00  0.00    -0.344 C  
HETATM   21  C   UNL     1     -12.073  11.503  67.849  1.00  0.00     0.054 C  
HETATM   22  C   UNL     1     -11.221  12.730  67.466  1.00  0.00    -0.289 C  
HETATM   23  C   UNL     1     -11.599  13.899  68.291  1.00  0.00    -0.337 C  
HETATM   24  N   UNL     1     -11.896  14.802  68.959  1.00  0.00    -0.307 NA 
ENDBRANCH  15  16
ENDBRANCH  13  15
ENDBRANCH  10  13
TORSDOF 3
ENDMDL
MODEL      134
REMARK 921   NORMALIZED FREE ENERGY PREDICTED BY IDOCK:   -4.49 KCAL/MOL
REMARK 922        TOTAL FREE ENERGY PREDICTED BY IDOCK:   -5.92 KCAL/MOL
REMARK 923 INTER-LIGAND FREE ENERGY PREDICTED BY IDOCK:   -5.33 KCAL/MOL
REMARK 924 INTRA-LIGAND FREE ENERGY PREDICTED BY IDOCK:   -0.59 KCAL/MOL
REMARK 927      BINDING AFFINITY PREDICTED BY RF-SCORE:    0.00 PKD
ROOT
HETATM    1  O   UNL     1     -13.233   8.633  72.982  1.00  0.00    -0.753 OA 
HETATM    2  C   UNL     1     -12.101   8.385  72.160  1.00  0.00    -0.373 C  
HETATM    3  H   UNL     1     -13.013   9.273  73.648  1.00  0.00     0.000 HD 
HETATM    4  C   UNL     1     -12.457   7.348  71.081  1.00  0.00    -0.343 C  
HETATM    5  C   UNL     1     -11.233   7.070  70.195  1.00  0.00    -0.325 C  
HETATM    6  C   UNL     1     -10.076   6.560  71.066  1.00  0.00    -0.208 C  
HETATM    7  C   UNL     1      -9.712   7.611  72.128  1.00  0.00    -0.220 C  
HETATM    8  C   UNL     1      -9.306   8.924  71.429  1.00  0.00    -0.338 C  
HETATM    9  C   UNL     1     -10.937   7.866  73.016  1.00  0.00    -0.398 C  
HETATM   10  C   UNL     1     -10.468   9.468  70.548  1.00  0.00    -0.296 C  
HETATM   11  C   UNL     1     -11.686   9.698  71.477  1.00  0.00    -0.472 C  
HETATM   12  C   UNL     1     -10.811   8.376  69.500  1.00  0.00    -0.126 C  
ENDROOT
BRANCH  10  13
HETATM   13  N   UNL     1     -10.002  10.717  69.913  1.00  0.00    -0.409 NA 
HETATM   14  H   UNL     1      -9.202  11.096  70.419  1.00  0.00     0.000 HD 
BRANCH  13  15
HETATM   15  C   UNL     1      -9.689  10.591  68.476  1.00  0.00    -0.165 C  
BRANCH  15  16
HETATM   16  C   UNL     1      -8.316  11.188  68.153  1.00  0.00    -0.136 C  
HETATM   17  O   UNL     1      -7.946  12.224  68.711  1.00  0.00    -0.087 OA 
HETATM   18  N   UNL     1      -7.500  10.521  67.262  1.00  0.00    -0.094 N  
HETATM   19  C   UNL     1      -6.158  10.984  66.977  1.00  0.00    -0.082 C  
HETATM   20  C   UNL     1      -5.954  10.601  65.527  1.00  0.00    -0.117 C  
HETATM   21  C   UNL     1      -6.733   9.296  65.375  1.00  0.00    -0.073 C  
HETATM   22  C   UNL     1      -7.830   9.340  66.457  1.00  0.00    -0.100 C  
HETATM   23  C   UNL     1      -7.823   8.094  67.253  1.00  0.00    -0.105 C  
HETATM   24  N   UNL     1      -7.793   7.115  67.879  1.00  0.00    -0.112 NA 
ENDBRANCH  15  16
ENDBRANCH  13  15
ENDBRANCH  10  13
TORSDOF 3
ENDMDL
MODEL      135
REMARK 921   NORMALIZED FREE ENERGY PREDICTED BY IDOCK:   -4.47 KCAL/MOL
REMARK 922        TOTAL FREE ENERGY PREDICTED BY IDOCK:   -5.89 KCAL/MOL
REMARK 923 INTER-LIGAND FREE ENERGY PREDICTED BY IDOCK:   -5.38 KCAL/MOL
REMARK 924 INTRA-LIGAND FREE ENERGY PREDICTED BY IDOCK:   -0.51 KCAL/MOL
REMARK 927      BINDING AFFINITY PREDICTED BY RF-SCORE:    0.00 PKD
ROOT
HETATM    1  O   UNL     1     -11.339   9.362  67.921  1.00  0.00    -0.472 OA 
HETATM    2  C   UNL     1      -9.965   9.700  67.804  1.00  0.00    -0.171 C  
HETATM    3  H   UNL     1     -11.603   9.393  68.833  1.00  0.00     0.000 HD 
HETATM    4  C   UNL     1      -9.539   9.650  66.327  1.00  0.00    -0.281 C  
HETATM    5  C   UNL     1      -8.050  10.007  66.197  1.00  0.00    -0.122 C  
HETATM    6  C   UNL     1      -7.213   9.024  67.029  1.00  0.00    -0.086 C  
HETATM    7  C   UNL     1      -7.631   9.095  68.506  1.00  0.00    -0.085 C  
HETATM    8  C   UNL     1      -7.425  10.532  69.027  1.00  0.00    -0.112 C  
HETATM    9  C   UNL     1      -9.114   8.719  68.624  1.00  0.00    -0.141 C  
HETATM   10  C   UNL     1      -8.272  11.547  68.207  1.00  0.00    -0.152 C  
HETATM   11  C   UNL     1      -9.756  11.127  68.340  1.00  0.00    -0.191 C  
HETATM   12  C   UNL     1      -7.829  11.435  66.724  1.00  0.00    -0.157 C  
ENDROOT
BRANCH  10  13
HETATM   13  N   UNL     1      -8.018  12.893  68.760  1.00  0.00    -0.329 NA 
HETATM   14  H   UNL     1      -7.016  13.048  68.871  1.00  0.00     0.000 HD 
BRANCH  13  15
HETATM   15  C   UNL     1      -8.627  13.995  67.990  1.00  0.00    -0.179 C  
BRANCH  15  16
HETATM   16  C   UNL     1      -9.115  15.114  68.915  1.00  0.00    -0.206 C  
HETATM   17  O   UNL     1      -8.346  16.017  69.250  1.00  0.00    -0.243 OA 
HETATM   18  N   UNL     1     -10.432  15.102  69.325  1.00  0.00    -0.250 N  
HETATM   19  C   UNL     1     -10.981  16.173  70.130  1.00  0.00    -0.358 C  
HETATM   20  C   UNL     1     -12.006  15.474  70.997  1.00  0.00    -0.428 C  
HETATM   21  C   UNL     1     -12.557  14.367  70.099  1.00  0.00    -0.340 C  
HETATM   22  C   UNL     1     -11.435  14.059  69.087  1.00  0.00    -0.296 C  
HETATM   23  C   UNL     1     -11.963  14.085  67.706  1.00  0.00    -0.357 C  
HETATM   24  N   UNL     1     -12.390  14.126  66.626  1.00  0.00    -0.424 NA 
ENDBRANCH  15  16
ENDBRANCH  13  15
ENDBRANCH  10  13
TORSDOF 3
ENDMDL
MODEL      136
REMARK 921   NORMALIZED FREE ENERGY PREDICTED BY IDOCK:   -4.47 KCAL/MOL
REMARK 922        TOTAL FREE ENERGY PREDICTED BY IDOCK:   -5.89 KCAL/MOL
REMARK 923 INTER-LIGAND FREE ENERGY PREDICTED BY IDOCK:   -5.47 KCAL/MOL
REMARK 924 INTRA-LIGAND FREE ENERGY PREDICTED BY IDOCK:   -0.42 KCAL/MOL
REMARK 927      BINDING AFFINITY PREDICTED BY RF-SCORE:    0.00 PKD
ROOT
HETATM    1  O   UNL     1     -12.365  14.095  68.758  1.00  0.00    -0.549 OA 
HETATM    2  C   UNL     1     -11.659  13.711  67.587  1.00  0.00    -0.346 C  
HETATM    3  H   UNL     1     -13.249  13.748  68.731  1.00  0.00     0.000 HD 
HETATM    4  C   UNL     1     -10.228  14.273  67.632  1.00  0.00    -0.237 C  
HETATM    5  C   UNL     1      -9.464  13.867  66.363  1.00  0.00    -0.268 C  
HETATM    6  C   UNL     1     -10.207  14.393  65.126  1.00  0.00    -0.420 C  
HETATM    7  C   UNL     1     -11.629  13.809  65.078  1.00  0.00    -0.350 C  
HETATM    8  C   UNL     1     -11.548  12.270  65.027  1.00  0.00    -0.394 C  
HETATM    9  C   UNL     1     -12.386  14.238  66.342  1.00  0.00    -0.378 C  
HETATM   10  C   UNL     1     -10.808  11.711  66.277  1.00  0.00    -0.286 C  
HETATM   11  C   UNL     1     -11.594  12.175  67.528  1.00  0.00    -0.413 C  
HETATM   12  C   UNL     1      -9.386  12.332  66.295  1.00  0.00    -0.206 C  
ENDROOT
BRANCH  10  13
HETATM   13  N   UNL     1     -10.768  10.240  66.153  1.00  0.00    -0.046 NA 
HETATM   14  H   UNL     1     -10.503   9.970  65.205  1.00  0.00     0.000 HD 
BRANCH  13  15
HETATM   15  C   UNL     1      -9.901   9.567  67.140  1.00  0.00    -0.185 C  
BRANCH  15  16
HETATM   16  C   UNL     1      -9.744   8.078  66.816  1.00  0.00    -0.237 C  
HETATM   17  O   UNL     1     -10.384   7.238  67.452  1.00  0.00    -0.206 OA 
HETATM   18  N   UNL     1      -8.908   7.714  65.781  1.00  0.00    -0.140 N  
HETATM   19  C   UNL     1      -8.778   6.332  65.367  1.00  0.00    -0.045 C  
HETATM   20  C   UNL     1      -7.339   6.235  64.908  1.00  0.00    -0.075 C  
HETATM   21  C   UNL     1      -7.051   7.606  64.301  1.00  0.00    -0.067 C  
HETATM   22  C   UNL     1      -8.020   8.581  64.999  1.00  0.00    -0.131 C  
HETATM   23  C   UNL     1      -8.753   9.387  63.999  1.00  0.00    -0.200 C  
HETATM   24  N   UNL     1      -9.333  10.000  63.200  1.00  0.00    -0.292 NA 
ENDBRANCH  15  16
ENDBRANCH  13  15
ENDBRANCH  10  13
TORSDOF 3
ENDMDL
MODEL      137
REMARK 921   NORMALIZED FREE ENERGY PREDICTED BY IDOCK:   -4.45 KCAL/MOL
REMARK 922        TOTAL FREE ENERGY PREDICTED BY IDOCK:   -5.88 KCAL/MOL
REMARK 923 INTER-LIGAND FREE ENERGY PREDICTED BY IDOCK:   -5.43 KCAL/MOL
REMARK 924 INTRA-LIGAND FREE ENERGY PREDICTED BY IDOCK:   -0.45 KCAL/MOL
REMARK 927      BINDING AFFINITY PREDICTED BY RF-SCORE:    0.00 PKD
ROOT
HETATM    1  O   UNL     1      -9.406   9.175  64.630  1.00  0.00    -0.438 OA 
HETATM    2  C   UNL     1      -9.670  10.004  65.752  1.00  0.00    -0.257 C  
HETATM    3  H   UNL     1      -8.798   8.487  64.872  1.00  0.00     0.000 HD 
HETATM    4  C   UNL     1     -10.656  11.117  65.359  1.00  0.00    -0.291 C  
HETATM    5  C   UNL     1     -10.938  12.022  66.568  1.00  0.00    -0.337 C  
HETATM    6  C   UNL     1      -9.619  12.629  67.071  1.00  0.00    -0.219 C  
HETATM    7  C   UNL     1      -8.648  11.511  67.482  1.00  0.00    -0.143 C  
HETATM    8  C   UNL     1      -9.292  10.656  68.593  1.00  0.00    -0.177 C  
HETATM    9  C   UNL     1      -8.362  10.625  66.262  1.00  0.00    -0.155 C  
HETATM   10  C   UNL     1     -10.625  10.021  68.103  1.00  0.00    -0.227 C  
HETATM   11  C   UNL     1     -10.296   9.149  66.866  1.00  0.00    -0.321 C  
HETATM   12  C   UNL     1     -11.571  11.179  67.688  1.00  0.00    -0.266 C  
ENDROOT
BRANCH  10  13
HETATM   13  N   UNL     1     -11.180   9.227  69.219  1.00  0.00    -0.441 NA 
HETATM   14  H   UNL     1     -12.198   9.212  69.172  1.00  0.00     0.000 HD 
BRANCH  13  15
HETATM   15  C   UNL     1     -10.648   7.854  69.314  1.00  0.00    -0.188 C  
BRANCH  15  16
HETATM   16  C   UNL     1     -11.210   7.125  70.538  1.00  0.00    -0.290 C  
HETATM   17  O   UNL     1     -12.358   6.676  70.517  1.00  0.00    -0.314 OA 
HETATM   18  N   UNL     1     -10.392   6.955  71.636  1.00  0.00    -0.199 N  
HETATM   19  C   UNL     1     -10.830   6.204  72.794  1.00  0.00    -0.250 C  
HETATM   20  C   UNL     1     -10.139   6.898  73.947  1.00  0.00    -0.391 C  
HETATM   21  C   UNL     1      -8.804   7.353  73.360  1.00  0.00    -0.212 C  
HETATM   22  C   UNL     1      -9.048   7.505  71.846  1.00  0.00    -0.129 C  
HETATM   23  C   UNL     1      -8.014   6.778  71.079  1.00  0.00    -0.103 C  
HETATM   24  N   UNL     1      -7.203   6.188  70.492  1.00  0.00    -0.081 NA 
ENDBRANCH  15  16
ENDBRANCH  13  15
ENDBRANCH  10  13
TORSDOF 3
ENDMDL
MODEL      138
REMARK 921   NORMALIZED FREE ENERGY PREDICTED BY IDOCK:   -4.43 KCAL/MOL
REMARK 922        TOTAL FREE ENERGY PREDICTED BY IDOCK:   -5.85 KCAL/MOL
REMARK 923 INTER-LIGAND FREE ENERGY PREDICTED BY IDOCK:   -5.39 KCAL/MOL
REMARK 924 INTRA-LIGAND FREE ENERGY PREDICTED BY IDOCK:   -0.45 KCAL/MOL
REMARK 927      BINDING AFFINITY PREDICTED BY RF-SCORE:    0.00 PKD
ROOT
HETATM    1  O   UNL     1     -12.281  12.748  66.406  1.00  0.00    -0.507 OA 
HETATM    2  C   UNL     1     -11.198  11.851  66.609  1.00  0.00    -0.328 C  
HETATM    3  H   UNL     1     -13.069  12.261  66.196  1.00  0.00     0.000 HD 
HETATM    4  C   UNL     1      -9.923  12.641  66.949  1.00  0.00    -0.232 C  
HETATM    5  C   UNL     1      -8.747  11.675  67.161  1.00  0.00    -0.164 C  
HETATM    6  C   UNL     1      -8.536  10.839  65.890  1.00  0.00    -0.182 C  
HETATM    7  C   UNL     1      -9.808  10.037  65.569  1.00  0.00    -0.373 C  
HETATM    8  C   UNL     1     -10.142   9.112  66.757  1.00  0.00    -0.341 C  
HETATM    9  C   UNL     1     -10.969  11.014  65.343  1.00  0.00    -0.091 C  
HETATM   10  C   UNL     1     -10.372   9.938  68.057  1.00  0.00    -0.203 C  
HETATM   11  C   UNL     1     -11.540  10.918  67.783  1.00  0.00    -0.231 C  
HETATM   12  C   UNL     1      -9.074  10.739  68.338  1.00  0.00    -0.164 C  
ENDROOT
BRANCH  10  13
HETATM   13  N   UNL     1     -10.681   8.986  69.143  1.00  0.00    -0.351 NA 
HETATM   14  H   UNL     1     -11.268   8.228  68.796  1.00  0.00     0.000 HD 
BRANCH  13  15
HETATM   15  C   UNL     1      -9.495   8.443  69.834  1.00  0.00    -0.166 C  
BRANCH  15  16
HETATM   16  C   UNL     1      -9.647   6.942  70.098  1.00  0.00    -0.161 C  
HETATM   17  O   UNL     1      -9.488   6.135  69.179  1.00  0.00    -0.131 OA 
HETATM   18  N   UNL     1      -9.924   6.523  71.383  1.00  0.00    -0.183 N  
HETATM   19  C   UNL     1      -9.996   5.116  71.718  1.00  0.00    -0.187 C  
HETATM   20  C   UNL     1     -11.043   5.068  72.811  1.00  0.00    -0.310 C  
HETATM   21  C   UNL     1     -10.849   6.380  73.568  1.00  0.00    -0.198 C  
HETATM   22  C   UNL     1     -10.226   7.357  72.551  1.00  0.00    -0.216 C  
HETATM   23  C   UNL     1      -9.019   7.995  73.119  1.00  0.00    -0.267 C  
HETATM   24  N   UNL     1      -8.063   8.475  73.574  1.00  0.00    -0.405 NA 
ENDBRANCH  15  16
ENDBRANCH  13  15
ENDBRANCH  10  13
TORSDOF 3
ENDMDL
MODEL      139
REMARK 921   NORMALIZED FREE ENERGY PREDICTED BY IDOCK:   -4.39 KCAL/MOL
REMARK 922        TOTAL FREE ENERGY PREDICTED BY IDOCK:   -5.80 KCAL/MOL
REMARK 923 INTER-LIGAND FREE ENERGY PREDICTED BY IDOCK:   -5.32 KCAL/MOL
REMARK 924 INTRA-LIGAND FREE ENERGY PREDICTED BY IDOCK:   -0.48 KCAL/MOL
REMARK 927      BINDING AFFINITY PREDICTED BY RF-SCORE:    0.00 PKD
ROOT
HETATM    1  O   UNL     1     -10.605  13.486  64.356  1.00  0.00    -0.426 OA 
HETATM    2  C   UNL     1     -10.569  13.834  65.733  1.00  0.00    -0.293 C  
HETATM    3  H   UNL     1      -9.721  13.356  64.033  1.00  0.00     0.000 HD 
HETATM    4  C   UNL     1     -12.000  14.043  66.256  1.00  0.00    -0.454 C  
HETATM    5  C   UNL     1     -11.965  14.428  67.743  1.00  0.00    -0.368 C  
HETATM    6  C   UNL     1     -11.137  15.710  67.921  1.00  0.00    -0.324 C  
HETATM    7  C   UNL     1      -9.703  15.485  67.415  1.00  0.00    -0.218 C  
HETATM    8  C   UNL     1      -9.058  14.329  68.205  1.00  0.00    -0.188 C  
HETATM    9  C   UNL     1      -9.751  15.119  65.926  1.00  0.00    -0.385 C  
HETATM   10  C   UNL     1      -9.873  13.014  68.032  1.00  0.00    -0.224 C  
HETATM   11  C   UNL     1      -9.909  12.688  66.518  1.00  0.00    -0.258 C  
HETATM   12  C   UNL     1     -11.313  13.286  68.541  1.00  0.00    -0.319 C  
ENDROOT
BRANCH  10  13
HETATM   13  N   UNL     1      -9.198  11.962  68.817  1.00  0.00    -0.395 NA 
HETATM   14  H   UNL     1      -9.674  11.821  69.708  1.00  0.00     0.000 HD 
BRANCH  13  15
HETATM   15  C   UNL     1      -9.043  10.676  68.109  1.00  0.00    -0.148 C  
BRANCH  15  16
HETATM   16  C   UNL     1     -10.072   9.650  68.592  1.00  0.00    -0.179 C  
HETATM   17  O   UNL     1     -11.272   9.831  68.377  1.00  0.00    -0.152 OA 
HETATM   18  N   UNL     1      -9.620   8.513  69.230  1.00  0.00    -0.168 N  
HETATM   19  C   UNL     1     -10.531   7.464  69.636  1.00  0.00    -0.232 C  
HETATM   20  C   UNL     1      -9.898   6.916  70.897  1.00  0.00    -0.193 C  
HETATM   21  C   UNL     1      -8.397   7.045  70.645  1.00  0.00    -0.127 C  
HETATM   22  C   UNL     1      -8.245   8.200  69.635  1.00  0.00    -0.120 C  
HETATM   23  C   UNL     1      -7.401   7.783  68.495  1.00  0.00    -0.091 C  
HETATM   24  N   UNL     1      -6.749   7.433  67.598  1.00  0.00    -0.064 NA 
ENDBRANCH  15  16
ENDBRANCH  13  15
ENDBRANCH  10  13
TORSDOF 3
ENDMDL
MODEL      140
REMARK 921   NORMALIZED FREE ENERGY PREDICTED BY IDOCK:   -4.37 KCAL/MOL
REMARK 922        TOTAL FREE ENERGY PREDICTED BY IDOCK:   -5.78 KCAL/MOL
REMARK 923 INTER-LIGAND FREE ENERGY PREDICTED BY IDOCK:   -5.27 KCAL/MOL
REMARK 924 INTRA-LIGAND FREE ENERGY PREDICTED BY IDOCK:   -0.50 KCAL/MOL
REMARK 927      BINDING AFFINITY PREDICTED BY RF-SCORE:    0.00 PKD
ROOT
HETATM    1  O   UNL     1      -6.498   9.459  68.330  1.00  0.00    -0.053 OA 
HETATM    2  C   UNL     1      -7.510   8.886  67.514  1.00  0.00    -0.085 C  
HETATM    3  H   UNL     1      -6.040  10.137  67.848  1.00  0.00     0.000 HD 
HETATM    4  C   UNL     1      -8.251   7.787  68.295  1.00  0.00    -0.124 C  
HETATM    5  C   UNL     1      -9.341   7.160  67.413  1.00  0.00    -0.144 C  
HETATM    6  C   UNL     1      -8.700   6.576  66.145  1.00  0.00    -0.153 C  
HETATM    7  C   UNL     1      -7.980   7.683  65.360  1.00  0.00    -0.123 C  
HETATM    8  C   UNL     1      -8.993   8.782  64.979  1.00  0.00    -0.113 C  
HETATM    9  C   UNL     1      -6.883   8.290  66.246  1.00  0.00    -0.065 C  
HETATM   10  C   UNL     1      -9.649   9.398  66.249  1.00  0.00    -0.234 C  
HETATM   11  C   UNL     1      -8.511   9.985  67.120  1.00  0.00    -0.125 C  
HETATM   12  C   UNL     1     -10.353   8.248  67.017  1.00  0.00    -0.393 C  
ENDROOT
BRANCH  10  13
HETATM   13  N   UNL     1     -10.605  10.432  65.802  1.00  0.00    -0.099 NA 
HETATM   14  H   UNL     1     -10.759  11.117  66.542  1.00  0.00     0.000 HD 
BRANCH  13  15
HETATM   15  C   UNL     1     -10.230  11.108  64.545  1.00  0.00    -0.324 C  
BRANCH  15  16
HETATM   16  C   UNL     1     -11.267  12.165  64.154  1.00  0.00    -0.368 C  
HETATM   17  O   UNL     1     -12.191  11.872  63.393  1.00  0.00    -0.531 OA 
HETATM   18  N   UNL     1     -11.160  13.427  64.702  1.00  0.00    -0.348 N  
HETATM   19  C   UNL     1     -12.152  14.449  64.442  1.00  0.00    -0.470 C  
HETATM   20  C   UNL     1     -11.350  15.732  64.458  1.00  0.00    -0.324 C  
HETATM   21  C   UNL     1     -10.267  15.479  65.505  1.00  0.00    -0.415 C  
HETATM   22  C   UNL     1     -10.078  13.949  65.543  1.00  0.00    -0.298 C  
HETATM   23  C   UNL     1     -10.152  13.453  66.934  1.00  0.00    -0.255 C  
HETATM   24  N   UNL     1     -10.231  13.078  68.031  1.00  0.00    -0.227 NA 
ENDBRANCH  15  16
ENDBRANCH  13  15
ENDBRANCH  10  13
TORSDOF 3
ENDMDL
MODEL      141
REMARK 921   NORMALIZED FREE ENERGY PREDICTED BY IDOCK:   -4.35 KCAL/MOL
REMARK 922        TOTAL FREE ENERGY PREDICTED BY IDOCK:   -5.75 KCAL/MOL
REMARK 923 INTER-LIGAND FREE ENERGY PREDICTED BY IDOCK:   -5.28 KCAL/MOL
REMARK 924 INTRA-LIGAND FREE ENERGY PREDICTED BY IDOCK:   -0.47 KCAL/MOL
REMARK 927      BINDING AFFINITY PREDICTED BY RF-SCORE:    0.00 PKD
ROOT
HETATM    1  O   UNL     1      -7.023   6.399  66.360  1.00  0.00    -0.063 OA 
HETATM    2  C   UNL     1      -8.203   6.676  67.101  1.00  0.00    -0.113 C  
HETATM    3  H   UNL     1      -7.121   6.712  65.469  1.00  0.00     0.000 HD 
HETATM    4  C   UNL     1      -8.044   6.168  68.544  1.00  0.00    -0.108 C  
HETATM    5  C   UNL     1      -9.321   6.458  69.347  1.00  0.00    -0.143 C  
HETATM    6  C   UNL     1     -10.519   5.776  68.669  1.00  0.00    -0.298 C  
HETATM    7  C   UNL     1     -10.683   6.305  67.235  1.00  0.00    -0.424 C  
HETATM    8  C   UNL     1     -10.900   7.831  67.274  1.00  0.00    -0.225 C  
HETATM    9  C   UNL     1      -9.408   5.993  66.439  1.00  0.00    -0.171 C  
HETATM   10  C   UNL     1      -9.694   8.547  67.948  1.00  0.00    -0.162 C  
HETATM   11  C   UNL     1      -8.428   8.197  67.126  1.00  0.00    -0.124 C  
HETATM   12  C   UNL     1      -9.555   7.978  69.385  1.00  0.00    -0.160 C  
ENDROOT
BRANCH  10  13
HETATM   13  N   UNL     1      -9.978   9.996  67.952  1.00  0.00    -0.150 NA 
HETATM   14  H   UNL     1      -9.747  10.402  68.859  1.00  0.00     0.000 HD 
BRANCH  13  15
HETATM   15  C   UNL     1      -9.317  10.751  66.869  1.00  0.00    -0.160 C  
BRANCH  15  16
HETATM   16  C   UNL     1     -10.326  11.185  65.801  1.00  0.00    -0.260 C  
HETATM   17  O   UNL     1     -10.481  10.503  64.785  1.00  0.00    -0.304 OA 
HETATM   18  N   UNL     1     -11.072  12.324  66.023  1.00  0.00    -0.296 N  
HETATM   19  C   UNL     1     -12.101  12.744  65.096  1.00  0.00    -0.450 C  
HETATM   20  C   UNL     1     -12.065  14.254  65.189  1.00  0.00    -0.410 C  
HETATM   21  C   UNL     1     -11.710  14.527  66.650  1.00  0.00    -0.384 C  
HETATM   22  C   UNL     1     -10.939  13.280  67.128  1.00  0.00    -0.272 C  
HETATM   23  C   UNL     1     -11.514  12.769  68.391  1.00  0.00    -0.311 C  
HETATM   24  N   UNL     1     -11.988  12.370  69.374  1.00  0.00    -0.289 NA 
ENDBRANCH  15  16
ENDBRANCH  13  15
ENDBRANCH  10  13
TORSDOF 3
ENDMDL
MODEL      142
REMARK 921   NORMALIZED FREE ENERGY PREDICTED BY IDOCK:   -4.35 KCAL/MOL
REMARK 922        TOTAL FREE ENERGY PREDICTED BY IDOCK:   -5.75 KCAL/MOL
REMARK 923 INTER-LIGAND FREE ENERGY PREDICTED BY IDOCK:   -5.06 KCAL/MOL
REMARK 924 INTRA-LIGAND FREE ENERGY PREDICTED BY IDOCK:   -0.68 KCAL/MOL
REMARK 927      BINDING AFFINITY PREDICTED BY RF-SCORE:    0.00 PKD
ROOT
HETATM    1  O   UNL     1     -13.488  14.194  65.572  1.00  0.00    -0.710 OA 
HETATM    2  C   UNL     1     -12.298  13.441  65.387  1.00  0.00    -0.477 C  
HETATM    3  H   UNL     1     -14.213  13.610  65.762  1.00  0.00     0.000 HD 
HETATM    4  C   UNL     1     -11.124  14.386  65.080  1.00  0.00    -0.385 C  
HETATM    5  C   UNL     1      -9.836  13.575  64.871  1.00  0.00    -0.045 C  
HETATM    6  C   UNL     1     -10.039  12.581  63.717  1.00  0.00    -0.268 C  
HETATM    7  C   UNL     1     -11.199  11.627  64.041  1.00  0.00    -0.448 C  
HETATM    8  C   UNL     1     -10.885  10.863  65.344  1.00  0.00    -0.112 C  
HETATM    9  C   UNL     1     -12.482  12.448  64.230  1.00  0.00    -0.529 C  
HETATM   10  C   UNL     1     -10.686  11.849  66.532  1.00  0.00    -0.258 C  
HETATM   11  C   UNL     1     -11.994  12.666  66.680  1.00  0.00    -0.382 C  
HETATM   12  C   UNL     1      -9.517  12.800  66.161  1.00  0.00    -0.169 C  
ENDROOT
BRANCH  10  13
HETATM   13  N   UNL     1     -10.386  11.047  67.735  1.00  0.00    -0.182 NA 
HETATM   14  H   UNL     1     -11.247  10.809  68.227  1.00  0.00     0.000 HD 
BRANCH  13  15
HETATM   15  C   UNL     1      -9.589   9.831  67.475  1.00  0.00    -0.150 C  
BRANCH  15  16
HETATM   16  C   UNL     1      -8.101  10.077  67.741  1.00  0.00    -0.109 C  
HETATM   17  O   UNL     1      -7.705  10.284  68.890  1.00  0.00    -0.084 OA 
HETATM   18  N   UNL     1      -7.223  10.021  66.678  1.00  0.00    -0.097 N  
HETATM   19  C   UNL     1      -5.795  10.159  66.871  1.00  0.00    -0.051 C  
HETATM   20  C   UNL     1      -5.333  10.847  65.604  1.00  0.00    -0.138 C  
HETATM   21  C   UNL     1      -6.257  10.291  64.523  1.00  0.00    -0.115 C  
HETATM   22  C   UNL     1      -7.549   9.876  65.255  1.00  0.00    -0.130 C  
HETATM   23  C   UNL     1      -7.922   8.490  64.899  1.00  0.00    -0.137 C  
HETATM   24  N   UNL     1      -8.192   7.394  64.621  1.00  0.00    -0.089 NA 
ENDBRANCH  15  16
ENDBRANCH  13  15
ENDBRANCH  10  13
TORSDOF 3
ENDMDL
MODEL      143
REMARK 921   NORMALIZED FREE ENERGY PREDICTED BY IDOCK:   -4.33 KCAL/MOL
REMARK 922        TOTAL FREE ENERGY PREDICTED BY IDOCK:   -5.73 KCAL/MOL
REMARK 923 INTER-LIGAND FREE ENERGY PREDICTED BY IDOCK:   -5.49 KCAL/MOL
REMARK 924 INTRA-LIGAND FREE ENERGY PREDICTED BY IDOCK:   -0.23 KCAL/MOL
REMARK 927      BINDING AFFINITY PREDICTED BY RF-SCORE:    0.00 PKD
ROOT
HETATM    1  O   UNL     1      -8.173  10.731  64.199  1.00  0.00    -0.356 OA 
HETATM    2  C   UNL     1      -8.398  10.225  65.507  1.00  0.00    -0.164 C  
HETATM    3  H   UNL     1      -8.902  11.280  63.936  1.00  0.00     0.000 HD 
HETATM    4  C   UNL     1      -7.218   9.335  65.933  1.00  0.00    -0.091 C  
HETATM    5  C   UNL     1      -7.462   8.778  67.345  1.00  0.00    -0.089 C  
HETATM    6  C   UNL     1      -8.771   7.975  67.360  1.00  0.00    -0.124 C  
HETATM    7  C   UNL     1      -9.948   8.877  66.954  1.00  0.00    -0.315 C  
HETATM    8  C   UNL     1     -10.047  10.062  67.936  1.00  0.00    -0.203 C  
HETATM    9  C   UNL     1      -9.700   9.411  65.536  1.00  0.00    -0.300 C  
HETATM   10  C   UNL     1      -8.735  10.899  67.931  1.00  0.00    -0.131 C  
HETATM   11  C   UNL     1      -8.514  11.407  66.484  1.00  0.00    -0.170 C  
HETATM   12  C   UNL     1      -7.573   9.952  68.333  1.00  0.00    -0.083 C  
ENDROOT
BRANCH  10  13
HETATM   13  N   UNL     1      -8.906  12.005  68.894  1.00  0.00    -0.375 NA 
HETATM   14  H   UNL     1      -8.064  12.118  69.459  1.00  0.00     0.000 HD 
BRANCH  13  15
HETATM   15  C   UNL     1      -9.293  13.292  68.284  1.00  0.00    -0.205 C  
BRANCH  15  16
HETATM   16  C   UNL     1     -10.800  13.350  68.022  1.00  0.00    -0.247 C  
HETATM   17  O   UNL     1     -11.595  13.107  68.932  1.00  0.00    -0.268 OA 
HETATM   18  N   UNL     1     -11.237  13.716  66.765  1.00  0.00    -0.307 N  
HETATM   19  C   UNL     1     -12.646  13.872  66.472  1.00  0.00    -0.201 C  
HETATM   20  C   UNL     1     -12.754  13.449  65.023  1.00  0.00    -0.420 C  
HETATM   21  C   UNL     1     -11.435  13.907  64.403  1.00  0.00    -0.376 C  
HETATM   22  C   UNL     1     -10.423  13.945  65.566  1.00  0.00    -0.323 C  
HETATM   23  C   UNL     1      -9.722  15.246  65.599  1.00  0.00    -0.325 C  
HETATM   24  N   UNL     1      -9.192  16.281  65.620  1.00  0.00    -0.423 NA 
ENDBRANCH  15  16
ENDBRANCH  13  15
ENDBRANCH  10  13
TORSDOF 3
ENDMDL
MODEL      144
REMARK 921   NORMALIZED FREE ENERGY PREDICTED BY IDOCK:   -4.32 KCAL/MOL
REMARK 922        TOTAL FREE ENERGY PREDICTED BY IDOCK:   -5.72 KCAL/MOL
REMARK 923 INTER-LIGAND FREE ENERGY PREDICTED BY IDOCK:   -5.26 KCAL/MOL
REMARK 924 INTRA-LIGAND FREE ENERGY PREDICTED BY IDOCK:   -0.47 KCAL/MOL
REMARK 927      BINDING AFFINITY PREDICTED BY RF-SCORE:    0.00 PKD
ROOT
HETATM    1  O   UNL     1      -8.837   8.685  73.518  1.00  0.00    -0.265 OA 
HETATM    2  C   UNL     1      -9.489   7.608  72.859  1.00  0.00    -0.206 C  
HETATM    3  H   UNL     1      -8.176   9.059  72.948  1.00  0.00     0.000 HD 
HETATM    4  C   UNL     1     -10.560   7.003  73.782  1.00  0.00    -0.325 C  
HETATM    5  C   UNL     1     -11.261   5.832  73.076  1.00  0.00    -0.289 C  
HETATM    6  C   UNL     1     -10.222   4.768  72.694  1.00  0.00    -0.242 C  
HETATM    7  C   UNL     1      -9.167   5.376  71.755  1.00  0.00    -0.160 C  
HETATM    8  C   UNL     1      -9.860   5.914  70.486  1.00  0.00    -0.231 C  
HETATM    9  C   UNL     1      -8.462   6.532  72.478  1.00  0.00    -0.121 C  
HETATM   10  C   UNL     1     -10.912   7.002  70.847  1.00  0.00    -0.253 C  
HETATM   11  C   UNL     1     -10.165   8.141  71.585  1.00  0.00    -0.266 C  
HETATM   12  C   UNL     1     -11.948   6.354  71.803  1.00  0.00    -0.370 C  
ENDROOT
BRANCH  10  13
HETATM   13  N   UNL     1     -11.532   7.461  69.588  1.00  0.00    -0.478 NA 
HETATM   14  H   UNL     1     -12.545   7.518  69.690  1.00  0.00     0.000 HD 
BRANCH  13  15
HETATM   15  C   UNL     1     -10.994   8.735  69.071  1.00  0.00     0.074 C  
BRANCH  15  16
HETATM   16  C   UNL     1     -10.609   8.616  67.594  1.00  0.00    -0.203 C  
HETATM   17  O   UNL     1     -10.834   7.571  66.979  1.00  0.00    -0.348 OA 
HETATM   18  N   UNL     1     -10.046   9.710  66.969  1.00  0.00    -0.200 N  
HETATM   19  C   UNL     1      -9.736   9.694  65.555  1.00  0.00    -0.301 C  
HETATM   20  C   UNL     1      -8.506  10.570  65.454  1.00  0.00    -0.173 C  
HETATM   21  C   UNL     1      -8.718  11.632  66.531  1.00  0.00    -0.182 C  
HETATM   22  C   UNL     1      -9.638  10.979  67.582  1.00  0.00    -0.168 C  
HETATM   23  C   UNL     1     -10.788  11.858  67.881  1.00  0.00    -0.213 C  
HETATM   24  N   UNL     1     -11.694  12.555  68.092  1.00  0.00    -0.336 NA 
ENDBRANCH  15  16
ENDBRANCH  13  15
ENDBRANCH  10  13
TORSDOF 3
ENDMDL
MODEL      145
REMARK 921   NORMALIZED FREE ENERGY PREDICTED BY IDOCK:   -4.32 KCAL/MOL
REMARK 922        TOTAL FREE ENERGY PREDICTED BY IDOCK:   -5.72 KCAL/MOL
REMARK 923 INTER-LIGAND FREE ENERGY PREDICTED BY IDOCK:   -5.31 KCAL/MOL
REMARK 924 INTRA-LIGAND FREE ENERGY PREDICTED BY IDOCK:   -0.41 KCAL/MOL
REMARK 927      BINDING AFFINITY PREDICTED BY RF-SCORE:    0.00 PKD
ROOT
HETATM    1  O   UNL     1     -11.164   7.951  69.223  1.00  0.00    -0.437 OA 
HETATM    2  C   UNL     1     -10.403   8.855  68.434  1.00  0.00    -0.200 C  
HETATM    3  H   UNL     1     -11.215   8.267  70.117  1.00  0.00     0.000 HD 
HETATM    4  C   UNL     1     -10.321   8.343  66.986  1.00  0.00    -0.385 C  
HETATM    5  C   UNL     1      -9.492   9.314  66.132  1.00  0.00    -0.298 C  
HETATM    6  C   UNL     1      -8.084   9.449  66.732  1.00  0.00    -0.109 C  
HETATM    7  C   UNL     1      -8.174   9.981  68.171  1.00  0.00    -0.109 C  
HETATM    8  C   UNL     1      -8.878  11.353  68.166  1.00  0.00    -0.162 C  
HETATM    9  C   UNL     1      -8.990   8.994  69.017  1.00  0.00    -0.140 C  
HETATM   10  C   UNL     1     -10.312  11.240  67.572  1.00  0.00    -0.194 C  
HETATM   11  C   UNL     1     -11.096  10.228  68.444  1.00  0.00    -0.302 C  
HETATM   12  C   UNL     1     -10.178  10.690  66.128  1.00  0.00    -0.308 C  
ENDROOT
BRANCH  10  13
HETATM   13  N   UNL     1     -10.915  12.588  67.598  1.00  0.00    -0.233 NA 
HETATM   14  H   UNL     1     -11.896  12.534  67.870  1.00  0.00     0.000 HD 
BRANCH  13  15
HETATM   15  C   UNL     1     -10.199  13.562  68.445  1.00  0.00    -0.245 C  
BRANCH  15  16
HETATM   16  C   UNL     1     -10.994  14.863  68.587  1.00  0.00    -0.257 C  
HETATM   17  O   UNL     1     -12.157  14.835  68.993  1.00  0.00    -0.287 OA 
HETATM   18  N   UNL     1     -10.365  16.055  68.288  1.00  0.00    -0.253 N  
HETATM   19  C   UNL     1     -11.030  17.327  68.481  1.00  0.00    -0.146 C  
HETATM   20  C   UNL     1     -10.466  18.190  67.373  1.00  0.00    -0.414 C  
HETATM   21  C   UNL     1      -9.026  17.703  67.219  1.00  0.00    -0.242 C  
HETATM   22  C   UNL     1      -9.029  16.243  67.714  1.00  0.00    -0.193 C  
HETATM   23  C   UNL     1      -7.952  16.031  68.705  1.00  0.00    -0.196 C  
HETATM   24  N   UNL     1      -7.112  15.886  69.495  1.00  0.00    -0.204 NA 
ENDBRANCH  15  16
ENDBRANCH  13  15
ENDBRANCH  10  13
TORSDOF 3
ENDMDL
MODEL      146
REMARK 921   NORMALIZED FREE ENERGY PREDICTED BY IDOCK:   -4.32 KCAL/MOL
REMARK 922        TOTAL FREE ENERGY PREDICTED BY IDOCK:   -5.71 KCAL/MOL
REMARK 923 INTER-LIGAND FREE ENERGY PREDICTED BY IDOCK:   -5.26 KCAL/MOL
REMARK 924 INTRA-LIGAND FREE ENERGY PREDICTED BY IDOCK:   -0.45 KCAL/MOL
REMARK 927      BINDING AFFINITY PREDICTED BY RF-SCORE:    0.00 PKD
ROOT
HETATM    1  O   UNL     1      -6.809   9.145  65.591  1.00  0.00    -0.075 OA 
HETATM    2  C   UNL     1      -7.917   9.439  66.430  1.00  0.00    -0.108 C  
HETATM    3  H   UNL     1      -6.026   9.559  65.934  1.00  0.00     0.000 HD 
HETATM    4  C   UNL     1      -9.185   8.768  65.874  1.00  0.00    -0.282 C  
HETATM    5  C   UNL     1     -10.388   9.091  66.774  1.00  0.00    -0.310 C  
HETATM    6  C   UNL     1     -10.576  10.613  66.850  1.00  0.00    -0.311 C  
HETATM    7  C   UNL     1      -9.313  11.273  67.426  1.00  0.00    -0.168 C  
HETATM    8  C   UNL     1      -9.037  10.707  68.833  1.00  0.00    -0.181 C  
HETATM    9  C   UNL     1      -8.124  10.958  66.508  1.00  0.00    -0.154 C  
HETATM   10  C   UNL     1      -8.830   9.165  68.781  1.00  0.00    -0.132 C  
HETATM   11  C   UNL     1      -7.634   8.889  67.838  1.00  0.00    -0.093 C  
HETATM   12  C   UNL     1     -10.119   8.540  68.185  1.00  0.00    -0.240 C  
ENDROOT
BRANCH  10  13
HETATM   13  N   UNL     1      -8.577   8.701  70.160  1.00  0.00    -0.131 NA 
HETATM   14  H   UNL     1      -7.655   9.004  70.474  1.00  0.00     0.000 HD 
BRANCH  13  15
HETATM   15  C   UNL     1      -9.609   9.098  71.138  1.00  0.00    -0.277 C  
BRANCH  15  16
HETATM   16  C   UNL     1      -9.431   8.354  72.465  1.00  0.00    -0.289 C  
HETATM   17  O   UNL     1      -8.534   8.684  73.243  1.00  0.00    -0.395 OA 
HETATM   18  N   UNL     1     -10.317   7.342  72.776  1.00  0.00    -0.232 N  
HETATM   19  C   UNL     1     -10.258   6.655  74.049  1.00  0.00    -0.369 C  
HETATM   20  C   UNL     1     -10.707   5.249  73.712  1.00  0.00    -0.343 C  
HETATM   21  C   UNL     1     -11.740   5.446  72.604  1.00  0.00    -0.214 C  
HETATM   22  C   UNL     1     -11.369   6.779  71.924  1.00  0.00    -0.271 C  
HETATM   23  C   UNL     1     -12.553   7.659  71.830  1.00  0.00    -0.331 C  
HETATM   24  N   UNL     1     -13.490   8.345  71.779  1.00  0.00    -0.354 NA 
ENDBRANCH  15  16
ENDBRANCH  13  15
ENDBRANCH  10  13
TORSDOF 3
ENDMDL
MODEL      147
REMARK 921   NORMALIZED FREE ENERGY PREDICTED BY IDOCK:   -4.30 KCAL/MOL
REMARK 922        TOTAL FREE ENERGY PREDICTED BY IDOCK:   -5.70 KCAL/MOL
REMARK 923 INTER-LIGAND FREE ENERGY PREDICTED BY IDOCK:   -5.11 KCAL/MOL
REMARK 924 INTRA-LIGAND FREE ENERGY PREDICTED BY IDOCK:   -0.59 KCAL/MOL
REMARK 927      BINDING AFFINITY PREDICTED BY RF-SCORE:    0.00 PKD
ROOT
HETATM    1  O   UNL     1     -11.136  13.007  63.773  1.00  0.00    -0.494 OA 
HETATM    2  C   UNL     1     -10.673  12.255  64.885  1.00  0.00    -0.297 C  
HETATM    3  H   UNL     1     -11.421  13.866  64.060  1.00  0.00     0.000 HD 
HETATM    4  C   UNL     1     -10.211  10.864  64.419  1.00  0.00    -0.423 C  
HETATM    5  C   UNL     1      -9.718  10.044  65.621  1.00  0.00    -0.336 C  
HETATM    6  C   UNL     1     -10.850   9.914  66.652  1.00  0.00    -0.031 C  
HETATM    7  C   UNL     1     -11.291  11.307  67.128  1.00  0.00    -0.295 C  
HETATM    8  C   UNL     1     -10.088  12.038  67.758  1.00  0.00    -0.199 C  
HETATM    9  C   UNL     1     -11.798  12.109  65.921  1.00  0.00    -0.342 C  
HETATM   10  C   UNL     1      -8.930  12.191  66.729  1.00  0.00    -0.203 C  
HETATM   11  C   UNL     1      -9.484  12.992  65.524  1.00  0.00     0.142 C  
HETATM   12  C   UNL     1      -8.524  10.768  66.265  1.00  0.00    -0.161 C  
ENDROOT
BRANCH  10  13
HETATM   13  N   UNL     1      -7.820  12.892  67.405  1.00  0.00    -0.202 NA 
HETATM   14  H   UNL     1      -6.930  12.443  67.187  1.00  0.00     0.000 HD 
BRANCH  13  15
HETATM   15  C   UNL     1      -7.748  14.339  67.123  1.00  0.00    -0.017 C  
BRANCH  15  16
HETATM   16  C   UNL     1      -8.064  15.164  68.374  1.00  0.00    -0.139 C  
HETATM   17  O   UNL     1      -7.181  15.390  69.204  1.00  0.00    -0.142 OA 
HETATM   18  N   UNL     1      -9.339  15.671  68.524  1.00  0.00    -0.191 N  
HETATM   19  C   UNL     1      -9.682  16.529  69.639  1.00  0.00     0.078 C  
HETATM   20  C   UNL     1     -11.131  16.187  69.913  1.00  0.00    -0.357 C  
HETATM   21  C   UNL     1     -11.707  15.879  68.532  1.00  0.00    -0.297 C  
HETATM   22  C   UNL     1     -10.510  15.416  67.679  1.00  0.00    -0.272 C  
HETATM   23  C   UNL     1     -10.462  16.165  66.405  1.00  0.00    -0.301 C  
HETATM   24  N   UNL     1     -10.429  16.775  65.416  1.00  0.00    -0.634 NA 
ENDBRANCH  15  16
ENDBRANCH  13  15
ENDBRANCH  10  13
TORSDOF 3
ENDMDL
MODEL      148
REMARK 921   NORMALIZED FREE ENERGY PREDICTED BY IDOCK:   -4.28 KCAL/MOL
REMARK 922        TOTAL FREE ENERGY PREDICTED BY IDOCK:   -5.67 KCAL/MOL
REMARK 923 INTER-LIGAND FREE ENERGY PREDICTED BY IDOCK:   -4.98 KCAL/MOL
REMARK 924 INTRA-LIGAND FREE ENERGY PREDICTED BY IDOCK:   -0.69 KCAL/MOL
REMARK 927      BINDING AFFINITY PREDICTED BY RF-SCORE:    0.00 PKD
ROOT
HETATM    1  O   UNL     1     -10.680   5.271  73.768  1.00  0.00    -0.268 OA 
HETATM    2  C   UNL     1     -10.791   6.239  72.734  1.00  0.00    -0.252 C  
HETATM    3  H   UNL     1     -10.813   4.401  73.412  1.00  0.00     0.000 HD 
HETATM    4  C   UNL     1     -10.576   7.648  73.312  1.00  0.00    -0.411 C  
HETATM    5  C   UNL     1     -10.703   8.698  72.198  1.00  0.00    -0.417 C  
HETATM    6  C   UNL     1     -12.092   8.592  71.551  1.00  0.00    -0.369 C  
HETATM    7  C   UNL     1     -12.291   7.188  70.958  1.00  0.00    -0.376 C  
HETATM    8  C   UNL     1     -11.198   6.918  69.904  1.00  0.00    -0.334 C  
HETATM    9  C   UNL     1     -12.179   6.151  72.083  1.00  0.00    -0.202 C  
HETATM   10  C   UNL     1      -9.780   7.010  70.538  1.00  0.00    -0.176 C  
HETATM   11  C   UNL     1      -9.712   5.960  71.675  1.00  0.00    -0.185 C  
HETATM   12  C   UNL     1      -9.624   8.434  71.134  1.00  0.00    -0.226 C  
ENDROOT
BRANCH  10  13
HETATM   13  N   UNL     1      -8.794   6.746  69.471  1.00  0.00    -0.139 NA 
HETATM   14  H   UNL     1      -9.205   6.161  68.743  1.00  0.00     0.000 HD 
BRANCH  13  15
HETATM   15  C   UNL     1      -8.195   7.958  68.879  1.00  0.00    -0.126 C  
BRANCH  15  16
HETATM   16  C   UNL     1      -8.275   7.925  67.349  1.00  0.00    -0.123 C  
HETATM   17  O   UNL     1      -7.986   6.895  66.738  1.00  0.00    -0.105 OA 
HETATM   18  N   UNL     1      -8.711   9.055  66.688  1.00  0.00    -0.125 N  
HETATM   19  C   UNL     1      -8.890   9.066  65.251  1.00  0.00    -0.193 C  
HETATM   20  C   UNL     1      -8.547  10.488  64.864  1.00  0.00    -0.179 C  
HETATM   21  C   UNL     1      -9.031  11.323  66.048  1.00  0.00    -0.209 C  
HETATM   22  C   UNL     1      -9.001  10.373  67.263  1.00  0.00    -0.135 C  
HETATM   23  C   UNL     1     -10.295  10.406  67.977  1.00  0.00    -0.179 C  
HETATM   24  N   UNL     1     -11.325  10.431  68.517  1.00  0.00    -0.250 NA 
ENDBRANCH  15  16
ENDBRANCH  13  15
ENDBRANCH  10  13
TORSDOF 3
ENDMDL
MODEL      149
REMARK 921   NORMALIZED FREE ENERGY PREDICTED BY IDOCK:   -4.27 KCAL/MOL
REMARK 922        TOTAL FREE ENERGY PREDICTED BY IDOCK:   -5.66 KCAL/MOL
REMARK 923 INTER-LIGAND FREE ENERGY PREDICTED BY IDOCK:   -5.09 KCAL/MOL
REMARK 924 INTRA-LIGAND FREE ENERGY PREDICTED BY IDOCK:   -0.57 KCAL/MOL
REMARK 927      BINDING AFFINITY PREDICTED BY RF-SCORE:    0.00 PKD
ROOT
HETATM    1  O   UNL     1      -7.125   5.832  73.644  1.00  0.00    -0.084 OA 
HETATM    2  C   UNL     1      -8.383   6.161  73.072  1.00  0.00    -0.115 C  
HETATM    3  H   UNL     1      -6.488   5.679  72.957  1.00  0.00     0.000 HD 
HETATM    4  C   UNL     1      -9.415   6.409  74.185  1.00  0.00    -0.215 C  
HETATM    5  C   UNL     1     -10.779   6.757  73.570  1.00  0.00    -0.319 C  
HETATM    6  C   UNL     1     -11.238   5.608  72.660  1.00  0.00    -0.350 C  
HETATM    7  C   UNL     1     -10.213   5.381  71.539  1.00  0.00    -0.280 C  
HETATM    8  C   UNL     1     -10.061   6.675  70.714  1.00  0.00    -0.205 C  
HETATM    9  C   UNL     1      -8.860   5.017  72.166  1.00  0.00    -0.137 C  
HETATM   10  C   UNL     1      -9.585   7.854  71.612  1.00  0.00    -0.163 C  
HETATM   11  C   UNL     1      -8.228   7.442  72.235  1.00  0.00    -0.115 C  
HETATM   12  C   UNL     1     -10.638   8.042  72.735  1.00  0.00    -0.420 C  
ENDROOT
BRANCH  10  13
HETATM   13  N   UNL     1      -9.469   9.051  70.756  1.00  0.00    -0.229 NA 
HETATM   14  H   UNL     1      -8.525   9.129  70.379  1.00  0.00     0.000 HD 
BRANCH  13  15
HETATM   15  C   UNL     1     -10.464   9.122  69.668  1.00  0.00    -0.223 C  
BRANCH  15  16
HETATM   16  C   UNL     1     -11.306  10.398  69.768  1.00  0.00    -0.289 C  
HETATM   17  O   UNL     1     -12.186  10.491  70.626  1.00  0.00    -0.294 OA 
HETATM   18  N   UNL     1     -11.027  11.441  68.909  1.00  0.00    -0.212 N  
HETATM   19  C   UNL     1     -11.726  12.705  69.005  1.00  0.00    -0.318 C  
HETATM   20  C   UNL     1     -11.790  13.183  67.571  1.00  0.00    -0.409 C  
HETATM   21  C   UNL     1     -10.486  12.681  66.954  1.00  0.00    -0.246 C  
HETATM   22  C   UNL     1     -10.082  11.448  67.787  1.00  0.00    -0.181 C  
HETATM   23  C   UNL     1      -8.676  11.563  68.233  1.00  0.00    -0.162 C  
HETATM   24  N   UNL     1      -7.576  11.677  68.589  1.00  0.00    -0.129 NA 
ENDBRANCH  15  16
ENDBRANCH  13  15
ENDBRANCH  10  13
TORSDOF 3
ENDMDL
MODEL      150
REMARK 921   NORMALIZED FREE ENERGY PREDICTED BY IDOCK:   -4.26 KCAL/MOL
REMARK 922        TOTAL FREE ENERGY PREDICTED BY IDOCK:   -5.65 KCAL/MOL
REMARK 923 INTER-LIGAND FREE ENERGY PREDICTED BY IDOCK:   -5.22 KCAL/MOL
REMARK 924 INTRA-LIGAND FREE ENERGY PREDICTED BY IDOCK:   -0.43 KCAL/MOL
REMARK 927      BINDING AFFINITY PREDICTED BY RF-SCORE:    0.00 PKD
ROOT
HETATM    1  O   UNL     1      -9.087  15.225  65.498  1.00  0.00    -0.328 OA 
HETATM    2  C   UNL     1      -9.966  14.146  65.784  1.00  0.00    -0.309 C  
HETATM    3  H   UNL     1      -8.954  15.749  66.279  1.00  0.00     0.000 HD 
HETATM    4  C   UNL     1     -10.181  13.298  64.520  1.00  0.00    -0.332 C  
HETATM    5  C   UNL     1     -11.137  12.135  64.823  1.00  0.00    -0.364 C  
HETATM    6  C   UNL     1     -12.477  12.692  65.329  1.00  0.00    -0.483 C  
HETATM    7  C   UNL     1     -12.256  13.520  66.604  1.00  0.00    -0.411 C  
HETATM    8  C   UNL     1     -11.614  12.630  67.688  1.00  0.00    -0.414 C  
HETATM    9  C   UNL     1     -11.313  14.688  66.283  1.00  0.00    -0.347 C  
HETATM   10  C   UNL     1     -10.249  12.061  67.203  1.00  0.00    -0.202 C  
HETATM   11  C   UNL     1      -9.334  13.268  66.877  1.00  0.00    -0.244 C  
HETATM   12  C   UNL     1     -10.513  11.244  65.911  1.00  0.00    -0.314 C  
ENDROOT
BRANCH  10  13
HETATM   13  N   UNL     1      -9.703  11.220  68.288  1.00  0.00    -0.191 NA 
HETATM   14  H   UNL     1     -10.455  10.888  68.892  1.00  0.00     0.000 HD 
BRANCH  13  15
HETATM   15  C   UNL     1      -8.876  10.088  67.826  1.00  0.00    -0.125 C  
BRANCH  15  16
HETATM   16  C   UNL     1      -7.882   9.652  68.906  1.00  0.00    -0.081 C  
HETATM   17  O   UNL     1      -6.804  10.239  69.027  1.00  0.00    -0.053 OA 
HETATM   18  N   UNL     1      -8.238   8.622  69.752  1.00  0.00    -0.117 N  
HETATM   19  C   UNL     1      -7.382   8.215  70.847  1.00  0.00    -0.059 C  
HETATM   20  C   UNL     1      -7.632   6.726  70.955  1.00  0.00    -0.085 C  
HETATM   21  C   UNL     1      -9.105   6.569  70.582  1.00  0.00    -0.148 C  
HETATM   22  C   UNL     1      -9.433   7.775  69.678  1.00  0.00    -0.156 C  
HETATM   23  C   UNL     1     -10.648   8.466  70.159  1.00  0.00    -0.233 C  
HETATM   24  N   UNL     1     -11.595   9.008  70.561  1.00  0.00    -0.223 NA 
ENDBRANCH  15  16
ENDBRANCH  13  15
ENDBRANCH  10  13
TORSDOF 3
ENDMDL
MODEL      151
REMARK 921   NORMALIZED FREE ENERGY PREDICTED BY IDOCK:   -4.26 KCAL/MOL
REMARK 922        TOTAL FREE ENERGY PREDICTED BY IDOCK:   -5.65 KCAL/MOL
REMARK 923 INTER-LIGAND FREE ENERGY PREDICTED BY IDOCK:   -4.98 KCAL/MOL
REMARK 924 INTRA-LIGAND FREE ENERGY PREDICTED BY IDOCK:   -0.66 KCAL/MOL
REMARK 927      BINDING AFFINITY PREDICTED BY RF-SCORE:    0.00 PKD
ROOT
HETATM    1  O   UNL     1     -11.618   6.609  68.860  1.00  0.00    -0.601 OA 
HETATM    2  C   UNL     1     -10.413   7.330  69.080  1.00  0.00    -0.215 C  
HETATM    3  H   UNL     1     -12.365   7.177  69.005  1.00  0.00     0.000 HD 
HETATM    4  C   UNL     1      -9.204   6.410  68.845  1.00  0.00    -0.128 C  
HETATM    5  C   UNL     1      -7.899   7.184  69.090  1.00  0.00    -0.118 C  
HETATM    6  C   UNL     1      -7.888   7.725  70.527  1.00  0.00    -0.096 C  
HETATM    7  C   UNL     1      -9.088   8.660  70.748  1.00  0.00    -0.214 C  
HETATM    8  C   UNL     1      -9.017   9.829  69.745  1.00  0.00    -0.239 C  
HETATM    9  C   UNL     1     -10.384   7.871  70.517  1.00  0.00    -0.205 C  
HETATM   10  C   UNL     1      -9.038   9.307  68.279  1.00  0.00    -0.128 C  
HETATM   11  C   UNL     1     -10.351   8.506  68.092  1.00  0.00    -0.258 C  
HETATM   12  C   UNL     1      -7.821   8.360  68.102  1.00  0.00    -0.111 C  
ENDROOT
BRANCH  10  13
HETATM   13  N   UNL     1      -8.962  10.479  67.385  1.00  0.00    -0.135 NA 
HETATM   14  H   UNL     1      -9.780  10.515  66.776  1.00  0.00     0.000 HD 
BRANCH  13  15
HETATM   15  C   UNL     1      -8.782  11.768  68.081  1.00  0.00    -0.168 C  
BRANCH  15  16
HETATM   16  C   UNL     1      -9.537  12.894  67.367  1.00  0.00    -0.203 C  
HETATM   17  O   UNL     1      -9.228  13.212  66.217  1.00  0.00    -0.184 OA 
HETATM   18  N   UNL     1     -10.583  13.506  68.027  1.00  0.00    -0.234 N  
HETATM   19  C   UNL     1     -11.393  14.518  67.380  1.00  0.00    -0.356 C  
HETATM   20  C   UNL     1     -11.774  15.442  68.516  1.00  0.00    -0.355 C  
HETATM   21  C   UNL     1     -11.914  14.513  69.720  1.00  0.00    -0.383 C  
HETATM   22  C   UNL     1     -11.008  13.303  69.416  1.00  0.00    -0.012 C  
HETATM   23  C   UNL     1     -11.753  12.039  69.601  1.00  0.00    -0.335 C  
HETATM   24  N   UNL     1     -12.359  11.056  69.734  1.00  0.00    -0.305 NA 
ENDBRANCH  15  16
ENDBRANCH  13  15
ENDBRANCH  10  13
TORSDOF 3
ENDMDL
MODEL      152
REMARK 921   NORMALIZED FREE ENERGY PREDICTED BY IDOCK:   -4.25 KCAL/MOL
REMARK 922        TOTAL FREE ENERGY PREDICTED BY IDOCK:   -5.64 KCAL/MOL
REMARK 923 INTER-LIGAND FREE ENERGY PREDICTED BY IDOCK:   -5.07 KCAL/MOL
REMARK 924 INTRA-LIGAND FREE ENERGY PREDICTED BY IDOCK:   -0.57 KCAL/MOL
REMARK 927      BINDING AFFINITY PREDICTED BY RF-SCORE:    0.00 PKD
ROOT
HETATM    1  O   UNL     1      -6.589   8.170  67.743  1.00  0.00    -0.055 OA 
HETATM    2  C   UNL     1      -7.876   7.591  67.900  1.00  0.00    -0.117 C  
HETATM    3  H   UNL     1      -6.624   8.866  67.097  1.00  0.00     0.000 HD 
HETATM    4  C   UNL     1      -7.818   6.464  68.945  1.00  0.00    -0.110 C  
HETATM    5  C   UNL     1      -9.207   5.829  69.112  1.00  0.00    -0.135 C  
HETATM    6  C   UNL     1      -9.686   5.281  67.760  1.00  0.00    -0.170 C  
HETATM    7  C   UNL     1      -9.761   6.416  66.727  1.00  0.00    -0.199 C  
HETATM    8  C   UNL     1     -10.737   7.500  67.229  1.00  0.00    -0.365 C  
HETATM    9  C   UNL     1      -8.364   7.029  66.557  1.00  0.00    -0.121 C  
HETATM   10  C   UNL     1     -10.268   8.081  68.595  1.00  0.00    -0.206 C  
HETATM   11  C   UNL     1      -8.853   8.676  68.384  1.00  0.00    -0.142 C  
HETATM   12  C   UNL     1     -10.193   6.904  69.603  1.00  0.00    -0.206 C  
ENDROOT
BRANCH  10  13
HETATM   13  N   UNL     1     -11.250   9.102  69.008  1.00  0.00    -0.432 NA 
HETATM   14  H   UNL     1     -12.021   8.669  69.518  1.00  0.00     0.000 HD 
BRANCH  13  15
HETATM   15  C   UNL     1     -10.680  10.218  69.789  1.00  0.00    -0.285 C  
BRANCH  15  16
HETATM   16  C   UNL     1     -11.544  11.477  69.668  1.00  0.00    -0.333 C  
HETATM   17  O   UNL     1     -12.438  11.693  70.488  1.00  0.00    -0.308 OA 
HETATM   18  N   UNL     1     -11.269  12.369  68.652  1.00  0.00    -0.250 N  
HETATM   19  C   UNL     1     -11.990  13.619  68.530  1.00  0.00    -0.361 C  
HETATM   20  C   UNL     1     -12.041  13.854  67.036  1.00  0.00    -0.451 C  
HETATM   21  C   UNL     1     -10.719  13.282  66.526  1.00  0.00    -0.290 C  
HETATM   22  C   UNL     1     -10.307  12.210  67.556  1.00  0.00    -0.205 C  
HETATM   23  C   UNL     1      -8.911  12.423  67.993  1.00  0.00    -0.187 C  
HETATM   24  N   UNL     1      -7.818  12.614  68.339  1.00  0.00    -0.140 NA 
ENDBRANCH  15  16
ENDBRANCH  13  15
ENDBRANCH  10  13
TORSDOF 3
ENDMDL
MODEL      153
REMARK 921   NORMALIZED FREE ENERGY PREDICTED BY IDOCK:   -4.25 KCAL/MOL
REMARK 922        TOTAL FREE ENERGY PREDICTED BY IDOCK:   -5.63 KCAL/MOL
REMARK 923 INTER-LIGAND FREE ENERGY PREDICTED BY IDOCK:   -4.94 KCAL/MOL
REMARK 924 INTRA-LIGAND FREE ENERGY PREDICTED BY IDOCK:   -0.69 KCAL/MOL
REMARK 927      BINDING AFFINITY PREDICTED BY RF-SCORE:    0.00 PKD
ROOT
HETATM    1  O   UNL     1      -6.571  10.591  64.314  1.00  0.00    -0.327 OA 
HETATM    2  C   UNL     1      -7.328   9.877  65.281  1.00  0.00    -0.131 C  
HETATM    3  H   UNL     1      -7.154  11.003  63.687  1.00  0.00     0.000 HD 
HETATM    4  C   UNL     1      -6.384   9.210  66.295  1.00  0.00    -0.065 C  
HETATM    5  C   UNL     1      -7.198   8.430  67.338  1.00  0.00    -0.088 C  
HETATM    6  C   UNL     1      -8.058   7.372  66.630  1.00  0.00    -0.123 C  
HETATM    7  C   UNL     1      -9.013   8.049  65.634  1.00  0.00    -0.102 C  
HETATM    8  C   UNL     1      -9.919   9.043  66.390  1.00  0.00    -0.370 C  
HETATM    9  C   UNL     1      -8.186   8.809  64.588  1.00  0.00    -0.166 C  
HETATM   10  C   UNL     1      -9.071  10.133  67.107  1.00  0.00    -0.135 C  
HETATM   11  C   UNL     1      -8.244  10.865  66.022  1.00  0.00    -0.155 C  
HETATM   12  C   UNL     1      -8.115   9.409  68.092  1.00  0.00    -0.110 C  
ENDROOT
BRANCH  10  13
HETATM   13  N   UNL     1     -10.005  11.037  67.808  1.00  0.00    -0.171 NA 
HETATM   14  H   UNL     1     -10.950  10.930  67.437  1.00  0.00     0.000 HD 
BRANCH  13  15
HETATM   15  C   UNL     1     -10.010  10.893  69.277  1.00  0.00    -0.113 C  
BRANCH  15  16
HETATM   16  C   UNL     1     -11.434  10.960  69.836  1.00  0.00    -0.323 C  
HETATM   17  O   UNL     1     -12.154  11.926  69.576  1.00  0.00    -0.282 OA 
HETATM   18  N   UNL     1     -11.893   9.904  70.596  1.00  0.00    -0.291 N  
HETATM   19  C   UNL     1     -13.256   9.863  71.085  1.00  0.00    -0.347 C  
HETATM   20  C   UNL     1     -13.134   9.140  72.409  1.00  0.00    -0.493 C  
HETATM   21  C   UNL     1     -12.007   8.134  72.180  1.00  0.00    -0.413 C  
HETATM   22  C   UNL     1     -11.134   8.739  71.062  1.00  0.00    -0.270 C  
HETATM   23  C   UNL     1     -10.906   7.746  69.990  1.00  0.00    -0.241 C  
HETATM   24  N   UNL     1     -10.751   6.959  69.148  1.00  0.00    -0.229 NA 
ENDBRANCH  15  16
ENDBRANCH  13  15
ENDBRANCH  10  13
TORSDOF 3
ENDMDL
MODEL      154
REMARK 921   NORMALIZED FREE ENERGY PREDICTED BY IDOCK:   -4.20 KCAL/MOL
REMARK 922        TOTAL FREE ENERGY PREDICTED BY IDOCK:   -5.58 KCAL/MOL
REMARK 923 INTER-LIGAND FREE ENERGY PREDICTED BY IDOCK:   -5.05 KCAL/MOL
REMARK 924 INTRA-LIGAND FREE ENERGY PREDICTED BY IDOCK:   -0.53 KCAL/MOL
REMARK 927      BINDING AFFINITY PREDICTED BY RF-SCORE:    0.00 PKD
ROOT
HETATM    1  O   UNL     1      -6.909   5.692  73.904  1.00  0.00    -0.078 OA 
HETATM    2  C   UNL     1      -8.195   5.934  73.352  1.00  0.00    -0.115 C  
HETATM    3  H   UNL     1      -6.304   5.440  73.216  1.00  0.00     0.000 HD 
HETATM    4  C   UNL     1      -9.173   6.342  74.466  1.00  0.00    -0.214 C  
HETATM    5  C   UNL     1     -10.568   6.597  73.874  1.00  0.00    -0.267 C  
HETATM    6  C   UNL     1     -11.063   5.327  73.166  1.00  0.00    -0.384 C  
HETATM    7  C   UNL     1     -10.091   4.937  72.041  1.00  0.00    -0.256 C  
HETATM    8  C   UNL     1      -9.989   6.097  71.029  1.00  0.00    -0.221 C  
HETATM    9  C   UNL     1      -8.707   4.669  72.648  1.00  0.00    -0.117 C  
HETATM   10  C   UNL     1      -9.478   7.394  71.721  1.00  0.00    -0.149 C  
HETATM   11  C   UNL     1      -8.089   7.079  72.330  1.00  0.00    -0.105 C  
HETATM   12  C   UNL     1     -10.477   7.745  72.855  1.00  0.00    -0.412 C  
ENDROOT
BRANCH  10  13
HETATM   13  N   UNL     1      -9.412   8.453  70.694  1.00  0.00    -0.163 NA 
HETATM   14  H   UNL     1      -8.518   8.420  70.205  1.00  0.00     0.000 HD 
BRANCH  13  15
HETATM   15  C   UNL     1     -10.527   8.436  69.726  1.00  0.00    -0.220 C  
BRANCH  15  16
HETATM   16  C   UNL     1     -10.806   9.838  69.176  1.00  0.00    -0.207 C  
HETATM   17  O   UNL     1     -10.283  10.203  68.121  1.00  0.00    -0.157 OA 
HETATM   18  N   UNL     1     -11.677  10.656  69.867  1.00  0.00    -0.290 N  
HETATM   19  C   UNL     1     -12.050  11.960  69.359  1.00  0.00    -0.216 C  
HETATM   20  C   UNL     1     -12.252  12.782  70.614  1.00  0.00    -0.374 C  
HETATM   21  C   UNL     1     -12.812  11.783  71.625  1.00  0.00    -0.433 C  
HETATM   22  C   UNL     1     -12.301  10.402  71.170  1.00  0.00    -0.400 C  
HETATM   23  C   UNL     1     -13.420   9.439  71.083  1.00  0.00    -0.191 C  
HETATM   24  N   UNL     1     -14.313   8.699  71.004  1.00  0.00    -0.079 NA 
ENDBRANCH  15  16
ENDBRANCH  13  15
ENDBRANCH  10  13
TORSDOF 3
ENDMDL
MODEL      155
REMARK 921   NORMALIZED FREE ENERGY PREDICTED BY IDOCK:   -4.20 KCAL/MOL
REMARK 922        TOTAL FREE ENERGY PREDICTED BY IDOCK:   -5.57 KCAL/MOL
REMARK 923 INTER-LIGAND FREE ENERGY PREDICTED BY IDOCK:   -4.92 KCAL/MOL
REMARK 924 INTRA-LIGAND FREE ENERGY PREDICTED BY IDOCK:   -0.66 KCAL/MOL
REMARK 927      BINDING AFFINITY PREDICTED BY RF-SCORE:    0.00 PKD
ROOT
HETATM    1  O   UNL     1      -7.812  12.471  68.982  1.00  0.00    -0.328 OA 
HETATM    2  C   UNL     1      -8.927  12.287  68.121  1.00  0.00    -0.192 C  
HETATM    3  H   UNL     1      -7.773  11.765  69.615  1.00  0.00     0.000 HD 
HETATM    4  C   UNL     1      -8.990  13.431  67.095  1.00  0.00    -0.227 C  
HETATM    5  C   UNL     1     -10.199  13.240  66.167  1.00  0.00    -0.296 C  
HETATM    6  C   UNL     1     -11.486  13.200  67.005  1.00  0.00    -0.379 C  
HETATM    7  C   UNL     1     -11.424  12.041  68.012  1.00  0.00    -0.392 C  
HETATM    8  C   UNL     1     -11.251  10.711  67.251  1.00  0.00    -0.237 C  
HETATM    9  C   UNL     1     -10.223  12.254  68.943  1.00  0.00    -0.041 C  
HETATM   10  C   UNL     1      -9.946  10.722  66.402  1.00  0.00    -0.216 C  
HETATM   11  C   UNL     1      -8.763  10.952  67.375  1.00  0.00    -0.130 C  
HETATM   12  C   UNL     1     -10.043  11.910  65.410  1.00  0.00    -0.285 C  
ENDROOT
BRANCH  10  13
HETATM   13  N   UNL     1      -9.855   9.423  65.704  1.00  0.00    -0.403 NA 
HETATM   14  H   UNL     1      -8.893   9.239  65.420  1.00  0.00     0.000 HD 
BRANCH  13  15
HETATM   15  C   UNL     1     -10.393   8.280  66.468  1.00  0.00    -0.105 C  
BRANCH  15  16
HETATM   16  C   UNL     1      -9.268   7.379  66.984  1.00  0.00    -0.142 C  
HETATM   17  O   UNL     1      -8.202   7.307  66.367  1.00  0.00    -0.110 OA 
HETATM   18  N   UNL     1      -9.464   6.691  68.164  1.00  0.00    -0.117 N  
HETATM   19  C   UNL     1      -8.412   5.888  68.752  1.00  0.00    -0.111 C  
HETATM   20  C   UNL     1      -9.163   4.757  69.420  1.00  0.00    -0.169 C  
HETATM   21  C   UNL     1     -10.462   5.404  69.896  1.00  0.00    -0.378 C  
HETATM   22  C   UNL     1     -10.695   6.604  68.956  1.00  0.00    -0.259 C  
HETATM   23  C   UNL     1     -10.951   7.832  69.739  1.00  0.00    -0.158 C  
HETATM   24  N   UNL     1     -11.135   8.791  70.370  1.00  0.00    -0.242 NA 
ENDBRANCH  15  16
ENDBRANCH  13  15
ENDBRANCH  10  13
TORSDOF 3
ENDMDL
MODEL      156
REMARK 921   NORMALIZED FREE ENERGY PREDICTED BY IDOCK:   -4.20 KCAL/MOL
REMARK 922        TOTAL FREE ENERGY PREDICTED BY IDOCK:   -5.57 KCAL/MOL
REMARK 923 INTER-LIGAND FREE ENERGY PREDICTED BY IDOCK:   -5.06 KCAL/MOL
REMARK 924 INTRA-LIGAND FREE ENERGY PREDICTED BY IDOCK:   -0.52 KCAL/MOL
REMARK 927      BINDING AFFINITY PREDICTED BY RF-SCORE:    0.00 PKD
ROOT
HETATM    1  O   UNL     1      -8.817  16.250  68.229  1.00  0.00    -0.180 OA 
HETATM    2  C   UNL     1      -9.680  15.335  67.569  1.00  0.00    -0.204 C  
HETATM    3  H   UNL     1      -8.334  15.802  68.914  1.00  0.00     0.000 HD 
HETATM    4  C   UNL     1     -10.461  16.060  66.460  1.00  0.00    -0.303 C  
HETATM    5  C   UNL     1     -11.402  15.076  65.750  1.00  0.00    -0.279 C  
HETATM    6  C   UNL     1     -12.370  14.463  66.773  1.00  0.00    -0.204 C  
HETATM    7  C   UNL     1     -11.583  13.722  67.865  1.00  0.00    -0.376 C  
HETATM    8  C   UNL     1     -10.730  12.612  67.218  1.00  0.00    -0.259 C  
HETATM    9  C   UNL     1     -10.660  14.720  68.579  1.00  0.00    -0.248 C  
HETATM   10  C   UNL     1      -9.733  13.209  66.183  1.00  0.00    -0.248 C  
HETATM   11  C   UNL     1      -8.831  14.218  66.938  1.00  0.00    -0.234 C  
HETATM   12  C   UNL     1     -10.564  13.957  65.108  1.00  0.00    -0.391 C  
ENDROOT
BRANCH  10  13
HETATM   13  N   UNL     1      -8.961  12.090  65.607  1.00  0.00    -0.417 NA 
HETATM   14  H   UNL     1      -8.191  11.833  66.224  1.00  0.00     0.000 HD 
BRANCH  13  15
HETATM   15  C   UNL     1      -9.769  10.901  65.271  1.00  0.00    -0.246 C  
BRANCH  15  16
HETATM   16  C   UNL     1      -9.323  10.286  63.941  1.00  0.00    -0.291 C  
HETATM   17  O   UNL     1      -9.666  10.804  62.876  1.00  0.00    -0.309 OA 
HETATM   18  N   UNL     1      -8.506   9.174  63.970  1.00  0.00    -0.188 N  
HETATM   19  C   UNL     1      -7.980   8.593  62.752  1.00  0.00    -0.154 C  
HETATM   20  C   UNL     1      -7.904   7.116  63.071  1.00  0.00    -0.118 C  
HETATM   21  C   UNL     1      -7.560   7.074  64.558  1.00  0.00    -0.107 C  
HETATM   22  C   UNL     1      -8.091   8.398  65.143  1.00  0.00    -0.147 C  
HETATM   23  C   UNL     1      -7.038   9.078  65.927  1.00  0.00    -0.089 C  
HETATM   24  N   UNL     1      -6.193   9.607  66.525  1.00  0.00    -0.063 NA 
ENDBRANCH  15  16
ENDBRANCH  13  15
ENDBRANCH  10  13
TORSDOF 3
ENDMDL
MODEL      157
REMARK 921   NORMALIZED FREE ENERGY PREDICTED BY IDOCK:   -4.16 KCAL/MOL
REMARK 922        TOTAL FREE ENERGY PREDICTED BY IDOCK:   -5.53 KCAL/MOL
REMARK 923 INTER-LIGAND FREE ENERGY PREDICTED BY IDOCK:   -5.14 KCAL/MOL
REMARK 924 INTRA-LIGAND FREE ENERGY PREDICTED BY IDOCK:   -0.39 KCAL/MOL
REMARK 927      BINDING AFFINITY PREDICTED BY RF-SCORE:    0.00 PKD
ROOT
HETATM    1  O   UNL     1      -8.966  15.094  65.653  1.00  0.00    -0.347 OA 
HETATM    2  C   UNL     1     -10.048  14.198  65.862  1.00  0.00    -0.321 C  
HETATM    3  H   UNL     1      -8.881  15.678  66.398  1.00  0.00     0.000 HD 
HETATM    4  C   UNL     1     -10.184  13.254  64.656  1.00  0.00    -0.334 C  
HETATM    5  C   UNL     1     -11.360  12.289  64.874  1.00  0.00    -0.373 C  
HETATM    6  C   UNL     1     -12.653  13.093  65.072  1.00  0.00    -0.499 C  
HETATM    7  C   UNL     1     -12.516  14.019  66.292  1.00  0.00    -0.439 C  
HETATM    8  C   UNL     1     -12.226  13.171  67.547  1.00  0.00    -0.169 C  
HETATM    9  C   UNL     1     -11.350  14.989  66.053  1.00  0.00    -0.270 C  
HETATM   10  C   UNL     1     -10.913  12.354  67.375  1.00  0.00    -0.254 C  
HETATM   11  C   UNL     1      -9.767  13.365  67.124  1.00  0.00    -0.237 C  
HETATM   12  C   UNL     1     -11.087  11.444  66.130  1.00  0.00    -0.259 C  
ENDROOT
BRANCH  10  13
HETATM   13  N   UNL     1     -10.709  11.569  68.610  1.00  0.00    -0.199 NA 
HETATM   14  H   UNL     1     -11.279  11.944  69.368  1.00  0.00     0.000 HD 
BRANCH  13  15
HETATM   15  C   UNL     1     -10.943  10.120  68.458  1.00  0.00    -0.232 C  
BRANCH  15  16
HETATM   16  C   UNL     1     -10.403   9.343  69.662  1.00  0.00    -0.216 C  
HETATM   17  O   UNL     1     -11.183   8.880  70.498  1.00  0.00    -0.254 OA 
HETATM   18  N   UNL     1      -9.042   9.144  69.762  1.00  0.00    -0.156 N  
HETATM   19  C   UNL     1      -8.472   8.347  70.828  1.00  0.00    -0.139 C  
HETATM   20  C   UNL     1      -7.136   9.009  71.088  1.00  0.00    -0.107 C  
HETATM   21  C   UNL     1      -6.691   9.500  69.711  1.00  0.00    -0.057 C  
HETATM   22  C   UNL     1      -7.990   9.703  68.905  1.00  0.00    -0.089 C  
HETATM   23  C   UNL     1      -7.901   9.016  67.598  1.00  0.00    -0.101 C  
HETATM   24  N   UNL     1      -7.820   8.456  66.583  1.00  0.00    -0.093 NA 
ENDBRANCH  15  16
ENDBRANCH  13  15
ENDBRANCH  10  13
TORSDOF 3
ENDMDL
MODEL      158
REMARK 921   NORMALIZED FREE ENERGY PREDICTED BY IDOCK:   -4.16 KCAL/MOL
REMARK 922        TOTAL FREE ENERGY PREDICTED BY IDOCK:   -5.53 KCAL/MOL
REMARK 923 INTER-LIGAND FREE ENERGY PREDICTED BY IDOCK:   -5.04 KCAL/MOL
REMARK 924 INTRA-LIGAND FREE ENERGY PREDICTED BY IDOCK:   -0.49 KCAL/MOL
REMARK 927      BINDING AFFINITY PREDICTED BY RF-SCORE:    0.00 PKD
ROOT
HETATM    1  O   UNL     1     -10.562   6.554  73.065  1.00  0.00    -0.221 OA 
HETATM    2  C   UNL     1      -9.979   6.772  71.788  1.00  0.00    -0.174 C  
HETATM    3  H   UNL     1     -10.530   7.353  73.576  1.00  0.00     0.000 HD 
HETATM    4  C   UNL     1     -10.032   5.476  70.961  1.00  0.00    -0.253 C  
HETATM    5  C   UNL     1      -9.395   5.706  69.582  1.00  0.00    -0.171 C  
HETATM    6  C   UNL     1      -7.941   6.169  69.761  1.00  0.00    -0.110 C  
HETATM    7  C   UNL     1      -7.898   7.475  70.570  1.00  0.00    -0.096 C  
HETATM    8  C   UNL     1      -8.708   8.560  69.832  1.00  0.00    -0.132 C  
HETATM    9  C   UNL     1      -8.522   7.227  71.950  1.00  0.00    -0.114 C  
HETATM   10  C   UNL     1     -10.190   8.120  69.648  1.00  0.00    -0.205 C  
HETATM   11  C   UNL     1     -10.776   7.867  71.059  1.00  0.00    -0.239 C  
HETATM   12  C   UNL     1     -10.188   6.795  68.840  1.00  0.00    -0.186 C  
ENDROOT
BRANCH  10  13
HETATM   13  N   UNL     1     -10.894   9.203  68.933  1.00  0.00    -0.408 NA 
HETATM   14  H   UNL     1     -11.662   9.563  69.500  1.00  0.00     0.000 HD 
BRANCH  13  15
HETATM   15  C   UNL     1     -10.022  10.308  68.487  1.00  0.00    -0.164 C  
BRANCH  15  16
HETATM   16  C   UNL     1     -10.743  11.211  67.482  1.00  0.00    -0.236 C  
HETATM   17  O   UNL     1     -10.837  10.870  66.301  1.00  0.00    -0.219 OA 
HETATM   18  N   UNL     1     -11.310  12.384  67.939  1.00  0.00    -0.268 N  
HETATM   19  C   UNL     1     -12.077  13.242  67.061  1.00  0.00    -0.320 C  
HETATM   20  C   UNL     1     -11.799  14.631  67.594  1.00  0.00    -0.366 C  
HETATM   21  C   UNL     1     -11.658  14.428  69.101  1.00  0.00    -0.344 C  
HETATM   22  C   UNL     1     -11.206  12.965  69.281  1.00  0.00    -0.190 C  
HETATM   23  C   UNL     1     -12.068  12.274  70.265  1.00  0.00    -0.295 C  
HETATM   24  N   UNL     1     -12.766  11.742  71.027  1.00  0.00    -0.326 NA 
ENDBRANCH  15  16
ENDBRANCH  13  15
ENDBRANCH  10  13
TORSDOF 3
ENDMDL
MODEL      159
REMARK 921   NORMALIZED FREE ENERGY PREDICTED BY IDOCK:   -4.15 KCAL/MOL
REMARK 922        TOTAL FREE ENERGY PREDICTED BY IDOCK:   -5.51 KCAL/MOL
REMARK 923 INTER-LIGAND FREE ENERGY PREDICTED BY IDOCK:   -5.03 KCAL/MOL
REMARK 924 INTRA-LIGAND FREE ENERGY PREDICTED BY IDOCK:   -0.49 KCAL/MOL
REMARK 927      BINDING AFFINITY PREDICTED BY RF-SCORE:    0.00 PKD
ROOT
HETATM    1  O   UNL     1     -11.415   6.593  68.240  1.00  0.00    -0.560 OA 
HETATM    2  C   UNL     1     -10.716   7.712  68.767  1.00  0.00    -0.077 C  
HETATM    3  H   UNL     1     -12.318   6.830  68.064  1.00  0.00     0.000 HD 
HETATM    4  C   UNL     1      -9.254   7.328  69.051  1.00  0.00    -0.139 C  
HETATM    5  C   UNL     1      -8.497   8.533  69.629  1.00  0.00    -0.130 C  
HETATM    6  C   UNL     1      -9.188   9.002  70.918  1.00  0.00    -0.320 C  
HETATM    7  C   UNL     1     -10.642   9.403  70.622  1.00  0.00    -0.354 C  
HETATM    8  C   UNL     1     -10.656  10.537  69.576  1.00  0.00    -0.278 C  
HETATM    9  C   UNL     1     -11.391   8.186  70.062  1.00  0.00     0.000 C  
HETATM   10  C   UNL     1      -9.970  10.083  68.255  1.00  0.00    -0.153 C  
HETATM   11  C   UNL     1     -10.745   8.849  67.731  1.00  0.00    -0.204 C  
HETATM   12  C   UNL     1      -8.513   9.676  68.599  1.00  0.00    -0.119 C  
ENDROOT
BRANCH  10  13
HETATM   13  N   UNL     1     -10.020  11.219  67.312  1.00  0.00    -0.182 NA 
HETATM   14  H   UNL     1     -10.646  11.009  66.535  1.00  0.00     0.000 HD 
BRANCH  13  15
HETATM   15  C   UNL     1     -10.380  12.510  67.929  1.00  0.00    -0.216 C  
BRANCH  15  16
HETATM   16  C   UNL     1      -9.204  13.491  67.891  1.00  0.00    -0.211 C  
HETATM   17  O   UNL     1      -8.077  13.117  68.222  1.00  0.00    -0.142 OA 
HETATM   18  N   UNL     1      -9.433  14.776  67.442  1.00  0.00    -0.204 N  
HETATM   19  C   UNL     1      -8.351  15.728  67.300  1.00  0.00    -0.188 C  
HETATM   20  C   UNL     1      -9.007  17.055  67.615  1.00  0.00    -0.221 C  
HETATM   21  C   UNL     1     -10.428  16.904  67.078  1.00  0.00    -0.281 C  
HETATM   22  C   UNL     1     -10.720  15.390  67.102  1.00  0.00    -0.314 C  
HETATM   23  C   UNL     1     -11.232  14.941  65.789  1.00  0.00    -0.334 C  
HETATM   24  N   UNL     1     -11.617  14.601  64.746  1.00  0.00    -0.405 NA 
ENDBRANCH  15  16
ENDBRANCH  13  15
ENDBRANCH  10  13
TORSDOF 3
ENDMDL
MODEL      160
REMARK 921   NORMALIZED FREE ENERGY PREDICTED BY IDOCK:   -4.14 KCAL/MOL
REMARK 922        TOTAL FREE ENERGY PREDICTED BY IDOCK:   -5.51 KCAL/MOL
REMARK 923 INTER-LIGAND FREE ENERGY PREDICTED BY IDOCK:   -4.94 KCAL/MOL
REMARK 924 INTRA-LIGAND FREE ENERGY PREDICTED BY IDOCK:   -0.57 KCAL/MOL
REMARK 927      BINDING AFFINITY PREDICTED BY RF-SCORE:    0.00 PKD
ROOT
HETATM    1  O   UNL     1     -12.638   9.745  70.623  1.00  0.00    -0.470 OA 
HETATM    2  C   UNL     1     -11.688   8.783  71.061  1.00  0.00    -0.282 C  
HETATM    3  H   UNL     1     -12.330  10.165  69.829  1.00  0.00     0.000 HD 
HETATM    4  C   UNL     1     -12.187   8.104  72.347  1.00  0.00    -0.374 C  
HETATM    5  C   UNL     1     -11.158   7.069  72.828  1.00  0.00    -0.320 C  
HETATM    6  C   UNL     1      -9.811   7.764  73.077  1.00  0.00    -0.344 C  
HETATM    7  C   UNL     1      -9.309   8.422  71.782  1.00  0.00    -0.293 C  
HETATM    8  C   UNL     1      -9.151   7.345  70.689  1.00  0.00    -0.156 C  
HETATM    9  C   UNL     1     -10.337   9.465  71.323  1.00  0.00    -0.363 C  
HETATM   10  C   UNL     1     -10.507   6.633  70.410  1.00  0.00    -0.211 C  
HETATM   11  C   UNL     1     -11.517   7.719  69.964  1.00  0.00     0.023 C  
HETATM   12  C   UNL     1     -10.983   5.995  71.741  1.00  0.00    -0.323 C  
ENDROOT
BRANCH  10  13
HETATM   13  N   UNL     1     -10.273   5.619  69.362  1.00  0.00    -0.221 NA 
HETATM   14  H   UNL     1     -10.624   4.710  69.663  1.00  0.00     0.000 HD 
BRANCH  13  15
HETATM   15  C   UNL     1     -10.822   5.971  68.038  1.00  0.00    -0.287 C  
BRANCH  15  16
HETATM   16  C   UNL     1      -9.713   6.401  67.074  1.00  0.00    -0.149 C  
HETATM   17  O   UNL     1      -9.262   7.547  67.124  1.00  0.00    -0.128 OA 
HETATM   18  N   UNL     1      -9.213   5.469  66.187  1.00  0.00    -0.156 N  
HETATM   19  C   UNL     1      -8.107   5.784  65.307  1.00  0.00    -0.130 C  
HETATM   20  C   UNL     1      -8.400   4.966  64.067  1.00  0.00    -0.131 C  
HETATM   21  C   UNL     1      -9.064   3.700  64.606  1.00  0.00    -0.133 C  
HETATM   22  C   UNL     1      -9.702   4.107  65.949  1.00  0.00    -0.204 C  
HETATM   23  C   UNL     1      -9.302   3.167  67.018  1.00  0.00    -0.150 C  
HETATM   24  N   UNL     1      -8.964   2.428  67.850  1.00  0.00    -0.136 NA 
ENDBRANCH  15  16
ENDBRANCH  13  15
ENDBRANCH  10  13
TORSDOF 3
ENDMDL
MODEL      161
REMARK 921   NORMALIZED FREE ENERGY PREDICTED BY IDOCK:   -4.13 KCAL/MOL
REMARK 922        TOTAL FREE ENERGY PREDICTED BY IDOCK:   -5.50 KCAL/MOL
REMARK 923 INTER-LIGAND FREE ENERGY PREDICTED BY IDOCK:   -5.03 KCAL/MOL
REMARK 924 INTRA-LIGAND FREE ENERGY PREDICTED BY IDOCK:   -0.47 KCAL/MOL
REMARK 927      BINDING AFFINITY PREDICTED BY RF-SCORE:    0.00 PKD
ROOT
HETATM    1  O   UNL     1     -12.660  14.754  68.498  1.00  0.00    -0.469 OA 
HETATM    2  C   UNL     1     -11.787  14.207  67.520  1.00  0.00    -0.401 C  
HETATM    3  H   UNL     1     -13.339  14.126  68.713  1.00  0.00     0.000 HD 
HETATM    4  C   UNL     1     -10.687  15.224  67.173  1.00  0.00    -0.316 C  
HETATM    5  C   UNL     1      -9.746  14.639  66.109  1.00  0.00    -0.344 C  
HETATM    6  C   UNL     1     -10.554  14.275  64.855  1.00  0.00    -0.452 C  
HETATM    7  C   UNL     1     -11.637  13.242  65.206  1.00  0.00    -0.335 C  
HETATM    8  C   UNL     1     -10.970  11.979  65.786  1.00  0.00    -0.351 C  
HETATM    9  C   UNL     1     -12.580  13.846  66.256  1.00  0.00    -0.376 C  
HETATM   10  C   UNL     1     -10.152  12.319  67.066  1.00  0.00    -0.212 C  
HETATM   11  C   UNL     1     -11.134  12.937  68.092  1.00  0.00    -0.282 C  
HETATM   12  C   UNL     1      -9.082  13.371  66.672  1.00  0.00    -0.180 C  
ENDROOT
BRANCH  10  13
HETATM   13  N   UNL     1      -9.543  11.066  67.555  1.00  0.00    -0.163 NA 
HETATM   14  H   UNL     1      -8.852  10.723  66.888  1.00  0.00     0.000 HD 
BRANCH  13  15
HETATM   15  C   UNL     1      -8.954  11.160  68.905  1.00  0.00    -0.081 C  
BRANCH  15  16
HETATM   16  C   UNL     1      -7.490  10.710  68.903  1.00  0.00    -0.108 C  
HETATM   17  O   UNL     1      -6.609  11.477  68.508  1.00  0.00    -0.057 OA 
HETATM   18  N   UNL     1      -7.186   9.454  69.385  1.00  0.00    -0.063 N  
HETATM   19  C   UNL     1      -5.816   8.998  69.491  1.00  0.00    -0.033 C  
HETATM   20  C   UNL     1      -5.919   7.510  69.233  1.00  0.00    -0.030 C  
HETATM   21  C   UNL     1      -7.267   7.121  69.838  1.00  0.00    -0.079 C  
HETATM   22  C   UNL     1      -8.122   8.403  69.801  1.00  0.00    -0.117 C  
HETATM   23  C   UNL     1      -8.716   8.668  71.129  1.00  0.00    -0.197 C  
HETATM   24  N   UNL     1      -9.161   8.870  72.184  1.00  0.00    -0.380 NA 
ENDBRANCH  15  16
ENDBRANCH  13  15
ENDBRANCH  10  13
TORSDOF 3
ENDMDL
MODEL      162
REMARK 921   NORMALIZED FREE ENERGY PREDICTED BY IDOCK:   -4.11 KCAL/MOL
REMARK 922        TOTAL FREE ENERGY PREDICTED BY IDOCK:   -5.48 KCAL/MOL
REMARK 923 INTER-LIGAND FREE ENERGY PREDICTED BY IDOCK:   -4.99 KCAL/MOL
REMARK 924 INTRA-LIGAND FREE ENERGY PREDICTED BY IDOCK:   -0.49 KCAL/MOL
REMARK 927      BINDING AFFINITY PREDICTED BY RF-SCORE:    0.00 PKD
ROOT
HETATM    1  O   UNL     1     -12.620  14.467  68.619  1.00  0.00    -0.545 OA 
HETATM    2  C   UNL     1     -11.696  14.094  67.607  1.00  0.00    -0.387 C  
HETATM    3  H   UNL     1     -13.170  13.726  68.842  1.00  0.00     0.000 HD 
HETATM    4  C   UNL     1     -10.804  15.294  67.245  1.00  0.00    -0.318 C  
HETATM    5  C   UNL     1      -9.809  14.896  66.144  1.00  0.00    -0.332 C  
HETATM    6  C   UNL     1     -10.579  14.410  64.908  1.00  0.00    -0.456 C  
HETATM    7  C   UNL     1     -11.451  13.197  65.273  1.00  0.00    -0.328 C  
HETATM    8  C   UNL     1     -10.553  12.065  65.812  1.00  0.00    -0.301 C  
HETATM    9  C   UNL     1     -12.452  13.613  66.360  1.00  0.00    -0.377 C  
HETATM   10  C   UNL     1      -9.768  12.531  67.073  1.00  0.00    -0.213 C  
HETATM   11  C   UNL     1     -10.811  12.953  68.138  1.00  0.00    -0.257 C  
HETATM   12  C   UNL     1      -8.913  13.760  66.666  1.00  0.00    -0.149 C  
ENDROOT
BRANCH  10  13
HETATM   13  N   UNL     1      -8.933  11.400  67.524  1.00  0.00    -0.148 NA 
HETATM   14  H   UNL     1      -9.515  10.590  67.738  1.00  0.00     0.000 HD 
BRANCH  13  15
HETATM   15  C   UNL     1      -7.855  11.025  66.587  1.00  0.00    -0.153 C  
BRANCH  15  16
HETATM   16  C   UNL     1      -7.007   9.880  67.147  1.00  0.00    -0.084 C  
HETATM   17  O   UNL     1      -6.010  10.126  67.830  1.00  0.00    -0.048 OA 
HETATM   18  N   UNL     1      -7.408   8.582  66.902  1.00  0.00    -0.082 N  
HETATM   19  C   UNL     1      -6.701   7.454  67.471  1.00  0.00    -0.069 C  
HETATM   20  C   UNL     1      -6.848   6.378  66.418  1.00  0.00    -0.061 C  
HETATM   21  C   UNL     1      -8.229   6.633  65.817  1.00  0.00    -0.135 C  
HETATM   22  C   UNL     1      -8.508   8.132  66.042  1.00  0.00    -0.141 C  
HETATM   23  C   UNL     1      -9.832   8.324  66.671  1.00  0.00    -0.267 C  
HETATM   24  N   UNL     1     -10.869   8.456  67.180  1.00  0.00    -0.135 NA 
ENDBRANCH  15  16
ENDBRANCH  13  15
ENDBRANCH  10  13
TORSDOF 3
ENDMDL
MODEL      163
REMARK 921   NORMALIZED FREE ENERGY PREDICTED BY IDOCK:   -4.11 KCAL/MOL
REMARK 922        TOTAL FREE ENERGY PREDICTED BY IDOCK:   -5.47 KCAL/MOL
REMARK 923 INTER-LIGAND FREE ENERGY PREDICTED BY IDOCK:   -5.76 KCAL/MOL
REMARK 924 INTRA-LIGAND FREE ENERGY PREDICTED BY IDOCK:    0.29 KCAL/MOL
REMARK 927      BINDING AFFINITY PREDICTED BY RF-SCORE:    0.00 PKD
ROOT
HETATM    1  O   UNL     1      -7.790  17.588  65.913  1.00  0.00    -0.519 OA 
HETATM    2  C   UNL     1      -8.675  16.855  66.748  1.00  0.00    -0.232 C  
HETATM    3  H   UNL     1      -6.939  17.168  65.898  1.00  0.00     0.000 HD 
HETATM    4  C   UNL     1     -10.054  17.535  66.772  1.00  0.00    -0.320 C  
HETATM    5  C   UNL     1     -11.012  16.750  67.681  1.00  0.00    -0.178 C  
HETATM    6  C   UNL     1     -10.427  16.676  69.099  1.00  0.00    -0.333 C  
HETATM    7  C   UNL     1      -9.059  15.976  69.069  1.00  0.00    -0.242 C  
HETATM    8  C   UNL     1      -9.224  14.555  68.494  1.00  0.00    -0.195 C  
HETATM    9  C   UNL     1      -8.107  16.780  68.172  1.00  0.00    -0.197 C  
HETATM   10  C   UNL     1      -9.806  14.603  67.051  1.00  0.00    -0.244 C  
HETATM   11  C   UNL     1      -8.827  15.432  66.184  1.00  0.00    -0.222 C  
HETATM   12  C   UNL     1     -11.177  15.326  67.123  1.00  0.00    -0.291 C  
ENDROOT
BRANCH  10  13
HETATM   13  N   UNL     1      -9.939  13.212  66.575  1.00  0.00    -0.262 NA 
HETATM   14  H   UNL     1      -9.268  12.607  67.050  1.00  0.00     0.000 HD 
BRANCH  13  15
HETATM   15  C   UNL     1     -11.301  12.655  66.686  1.00  0.00    -0.326 C  
BRANCH  15  16
HETATM   16  C   UNL     1     -11.328  11.434  67.611  1.00  0.00    -0.290 C  
HETATM   17  O   UNL     1     -12.238  11.301  68.431  1.00  0.00    -0.604 OA 
HETATM   18  N   UNL     1     -10.338  10.483  67.473  1.00  0.00    -0.209 N  
HETATM   19  C   UNL     1     -10.350   9.265  68.256  1.00  0.00    -0.217 C  
HETATM   20  C   UNL     1      -8.881   8.962  68.460  1.00  0.00    -0.134 C  
HETATM   21  C   UNL     1      -8.221   9.445  67.169  1.00  0.00    -0.113 C  
HETATM   22  C   UNL     1      -9.150  10.543  66.615  1.00  0.00    -0.155 C  
HETATM   23  C   UNL     1      -9.466  10.285  65.194  1.00  0.00    -0.252 C  
HETATM   24  N   UNL     1      -9.717  10.058  64.082  1.00  0.00    -0.229 NA 
ENDBRANCH  15  16
ENDBRANCH  13  15
ENDBRANCH  10  13
TORSDOF 3
ENDMDL
MODEL      164
REMARK 921   NORMALIZED FREE ENERGY PREDICTED BY IDOCK:   -4.11 KCAL/MOL
REMARK 922        TOTAL FREE ENERGY PREDICTED BY IDOCK:   -5.47 KCAL/MOL
REMARK 923 INTER-LIGAND FREE ENERGY PREDICTED BY IDOCK:   -4.93 KCAL/MOL
REMARK 924 INTRA-LIGAND FREE ENERGY PREDICTED BY IDOCK:   -0.54 KCAL/MOL
REMARK 927      BINDING AFFINITY PREDICTED BY RF-SCORE:    0.00 PKD
ROOT
HETATM    1  O   UNL     1     -10.632  17.659  69.655  1.00  0.00    -0.327 OA 
HETATM    2  C   UNL     1     -10.098  17.012  68.509  1.00  0.00    -0.303 C  
HETATM    3  H   UNL     1     -11.580  17.682  69.600  1.00  0.00     0.000 HD 
HETATM    4  C   UNL     1      -8.563  16.976  68.598  1.00  0.00    -0.265 C  
HETATM    5  C   UNL     1      -7.980  16.285  67.356  1.00  0.00    -0.179 C  
HETATM    6  C   UNL     1      -8.425  17.039  66.094  1.00  0.00    -0.262 C  
HETATM    7  C   UNL     1      -9.959  17.052  66.002  1.00  0.00    -0.288 C  
HETATM    8  C   UNL     1     -10.482  15.602  65.959  1.00  0.00    -0.343 C  
HETATM    9  C   UNL     1     -10.527  17.761  67.239  1.00  0.00    -0.356 C  
HETATM   10  C   UNL     1     -10.053  14.819  67.234  1.00  0.00    -0.236 C  
HETATM   11  C   UNL     1     -10.632  15.571  68.457  1.00  0.00    -0.246 C  
HETATM   12  C   UNL     1      -8.503  14.839  67.296  1.00  0.00    -0.234 C  
ENDROOT
BRANCH  10  13
HETATM   13  N   UNL     1     -10.584  13.446  67.116  1.00  0.00    -0.258 NA 
HETATM   14  H   UNL     1     -11.530  13.462  66.735  1.00  0.00     0.000 HD 
BRANCH  13  15
HETATM   15  C   UNL     1      -9.732  12.526  66.337  1.00  0.00    -0.249 C  
BRANCH  15  16
HETATM   16  C   UNL     1      -9.820  11.096  66.879  1.00  0.00    -0.194 C  
HETATM   17  O   UNL     1     -10.702  10.336  66.474  1.00  0.00    -0.176 OA 
HETATM   18  N   UNL     1      -8.873  10.678  67.791  1.00  0.00    -0.132 N  
HETATM   19  C   UNL     1      -8.847   9.315  68.279  1.00  0.00    -0.129 C  
HETATM   20  C   UNL     1      -8.341   9.458  69.698  1.00  0.00    -0.147 C  
HETATM   21  C   UNL     1      -7.363  10.629  69.626  1.00  0.00    -0.133 C  
HETATM   22  C   UNL     1      -7.828  11.484  68.430  1.00  0.00    -0.136 C  
HETATM   23  C   UNL     1      -6.694  11.763  67.522  1.00  0.00    -0.107 C  
HETATM   24  N   UNL     1      -5.796  11.959  66.810  1.00  0.00    -0.233 NA 
ENDBRANCH  15  16
ENDBRANCH  13  15
ENDBRANCH  10  13
TORSDOF 3
ENDMDL
MODEL      165
REMARK 921   NORMALIZED FREE ENERGY PREDICTED BY IDOCK:   -4.10 KCAL/MOL
REMARK 922        TOTAL FREE ENERGY PREDICTED BY IDOCK:   -5.46 KCAL/MOL
REMARK 923 INTER-LIGAND FREE ENERGY PREDICTED BY IDOCK:   -4.74 KCAL/MOL
REMARK 924 INTRA-LIGAND FREE ENERGY PREDICTED BY IDOCK:   -0.72 KCAL/MOL
REMARK 927      BINDING AFFINITY PREDICTED BY RF-SCORE:    0.00 PKD
ROOT
HETATM    1  O   UNL     1     -11.435  12.176  69.911  1.00  0.00    -0.464 OA 
HETATM    2  C   UNL     1     -10.765  12.202  68.658  1.00  0.00    -0.233 C  
HETATM    3  H   UNL     1     -11.755  11.299  70.087  1.00  0.00     0.000 HD 
HETATM    4  C   UNL     1     -10.247  13.622  68.372  1.00  0.00    -0.245 C  
HETATM    5  C   UNL     1      -9.530  13.656  67.014  1.00  0.00    -0.252 C  
HETATM    6  C   UNL     1     -10.500  13.208  65.911  1.00  0.00    -0.288 C  
HETATM    7  C   UNL     1     -10.996  11.781  66.193  1.00  0.00    -0.355 C  
HETATM    8  C   UNL     1      -9.789  10.822  66.253  1.00  0.00    -0.262 C  
HETATM    9  C   UNL     1     -11.725  11.764  67.543  1.00  0.00    -0.312 C  
HETATM   10  C   UNL     1      -8.795  11.249  67.373  1.00  0.00    -0.145 C  
HETATM   11  C   UNL     1      -9.572  11.233  68.713  1.00  0.00    -0.160 C  
HETATM   12  C   UNL     1      -8.329  12.695  67.058  1.00  0.00    -0.130 C  
ENDROOT
BRANCH  10  13
HETATM   13  N   UNL     1      -7.671  10.291  67.363  1.00  0.00    -0.095 NA 
HETATM   14  H   UNL     1      -6.780  10.788  67.372  1.00  0.00     0.000 HD 
BRANCH  13  15
HETATM   15  C   UNL     1      -7.713   9.290  68.447  1.00  0.00    -0.090 C  
BRANCH  15  16
HETATM   16  C   UNL     1      -7.697   7.865  67.887  1.00  0.00    -0.125 C  
HETATM   17  O   UNL     1      -6.647   7.383  67.456  1.00  0.00    -0.057 OA 
HETATM   18  N   UNL     1      -8.866   7.133  67.914  1.00  0.00    -0.125 N  
HETATM   19  C   UNL     1      -8.902   5.753  67.479  1.00  0.00    -0.106 C  
HETATM   20  C   UNL     1     -10.288   5.604  66.891  1.00  0.00    -0.312 C  
HETATM   21  C   UNL     1     -11.157   6.518  67.753  1.00  0.00    -0.366 C  
HETATM   22  C   UNL     1     -10.202   7.593  68.308  1.00  0.00    -0.195 C  
HETATM   23  C   UNL     1     -10.350   7.710  69.775  1.00  0.00    -0.223 C  
HETATM   24  N   UNL     1     -10.468   7.778  70.929  1.00  0.00    -0.205 NA 
ENDBRANCH  15  16
ENDBRANCH  13  15
ENDBRANCH  10  13
TORSDOF 3
ENDMDL
MODEL      166
REMARK 921   NORMALIZED FREE ENERGY PREDICTED BY IDOCK:   -4.07 KCAL/MOL
REMARK 922        TOTAL FREE ENERGY PREDICTED BY IDOCK:   -5.43 KCAL/MOL
REMARK 923 INTER-LIGAND FREE ENERGY PREDICTED BY IDOCK:   -4.92 KCAL/MOL
REMARK 924 INTRA-LIGAND FREE ENERGY PREDICTED BY IDOCK:   -0.51 KCAL/MOL
REMARK 927      BINDING AFFINITY PREDICTED BY RF-SCORE:    0.00 PKD
ROOT
HETATM    1  O   UNL     1     -11.337  16.534  70.467  1.00  0.00    -0.516 OA 
HETATM    2  C   UNL     1     -10.883  15.718  69.396  1.00  0.00    -0.269 C  
HETATM    3  H   UNL     1     -12.280  16.636  70.418  1.00  0.00     0.000 HD 
HETATM    4  C   UNL     1      -9.356  15.554  69.476  1.00  0.00    -0.276 C  
HETATM    5  C   UNL     1      -8.859  14.679  68.315  1.00  0.00    -0.176 C  
HETATM    6  C   UNL     1      -9.259  15.325  66.980  1.00  0.00    -0.235 C  
HETATM    7  C   UNL     1     -10.787  15.466  66.899  1.00  0.00    -0.313 C  
HETATM    8  C   UNL     1     -11.437  14.072  67.025  1.00  0.00    -0.370 C  
HETATM    9  C   UNL     1     -11.268  16.356  68.054  1.00  0.00    -0.235 C  
HETATM   10  C   UNL     1     -11.055  13.401  68.376  1.00  0.00    -0.273 C  
HETATM   11  C   UNL     1     -11.544  14.334  69.512  1.00  0.00    -0.353 C  
HETATM   12  C   UNL     1      -9.508  13.289  68.423  1.00  0.00    -0.172 C  
ENDROOT
BRANCH  10  13
HETATM   13  N   UNL     1     -11.708  12.077  68.418  1.00  0.00    -0.320 NA 
HETATM   14  H   UNL     1     -12.552  12.114  68.989  1.00  0.00     0.000 HD 
BRANCH  13  15
HETATM   15  C   UNL     1     -12.008  11.501  67.093  1.00  0.00     0.313 C  
BRANCH  15  16
HETATM   16  C   UNL     1     -10.872  10.592  66.613  1.00  0.00    -0.096 C  
HETATM   17  O   UNL     1     -10.500   9.648  67.313  1.00  0.00    -0.239 OA 
HETATM   18  N   UNL     1     -10.313  10.834  65.375  1.00  0.00    -0.266 N  
HETATM   19  C   UNL     1      -9.295   9.963  64.825  1.00  0.00    -0.278 C  
HETATM   20  C   UNL     1      -8.427  10.903  64.016  1.00  0.00     0.111 C  
HETATM   21  C   UNL     1      -9.409  11.942  63.476  1.00  0.00     0.051 C  
HETATM   22  C   UNL     1     -10.583  11.959  64.475  1.00  0.00    -0.311 C  
HETATM   23  C   UNL     1     -11.871  11.818  63.762  1.00  0.00    -0.380 C  
HETATM   24  N   UNL     1     -12.873  11.688  63.187  1.00  0.00    -0.322 NA 
ENDBRANCH  15  16
ENDBRANCH  13  15
ENDBRANCH  10  13
TORSDOF 3
ENDMDL
MODEL      167
REMARK 921   NORMALIZED FREE ENERGY PREDICTED BY IDOCK:   -4.07 KCAL/MOL
REMARK 922        TOTAL FREE ENERGY PREDICTED BY IDOCK:   -5.43 KCAL/MOL
REMARK 923 INTER-LIGAND FREE ENERGY PREDICTED BY IDOCK:   -5.04 KCAL/MOL
REMARK 924 INTRA-LIGAND FREE ENERGY PREDICTED BY IDOCK:   -0.39 KCAL/MOL
REMARK 927      BINDING AFFINITY PREDICTED BY RF-SCORE:    0.00 PKD
ROOT
HETATM    1  O   UNL     1      -6.397  18.499  65.623  1.00  0.00    -0.226 OA 
HETATM    2  C   UNL     1      -7.462  18.217  66.519  1.00  0.00    -0.236 C  
HETATM    3  H   UNL     1      -5.721  17.838  65.707  1.00  0.00     0.000 HD 
HETATM    4  C   UNL     1      -8.558  19.288  66.382  1.00  0.00    -0.355 C  
HETATM    5  C   UNL     1      -9.709  18.991  67.356  1.00  0.00    -0.371 C  
HETATM    6  C   UNL     1      -9.168  18.959  68.793  1.00  0.00    -0.359 C  
HETATM    7  C   UNL     1      -8.089  17.873  68.927  1.00  0.00    -0.161 C  
HETATM    8  C   UNL     1      -8.695  16.502  68.564  1.00  0.00    -0.228 C  
HETATM    9  C   UNL     1      -6.938  18.191  67.962  1.00  0.00    -0.217 C  
HETATM   10  C   UNL     1      -9.241  16.505  67.106  1.00  0.00    -0.214 C  
HETATM   11  C   UNL     1      -8.056  16.842  66.168  1.00  0.00    -0.295 C  
HETATM   12  C   UNL     1     -10.316  17.620  67.011  1.00  0.00    -0.330 C  
ENDROOT
BRANCH  10  13
HETATM   13  N   UNL     1      -9.807  15.167  66.838  1.00  0.00    -0.232 NA 
HETATM   14  H   UNL     1      -9.203  14.441  67.224  1.00  0.00     0.000 HD 
BRANCH  13  15
HETATM   15  C   UNL     1     -11.194  14.985  67.307  1.00  0.00    -0.338 C  
BRANCH  15  16
HETATM   16  C   UNL     1     -11.345  13.684  68.101  1.00  0.00    -0.288 C  
HETATM   17  O   UNL     1     -10.911  12.626  67.640  1.00  0.00    -0.227 OA 
HETATM   18  N   UNL     1     -11.936  13.737  69.347  1.00  0.00    -0.332 N  
HETATM   19  C   UNL     1     -12.033  12.561  70.185  1.00  0.00    -0.301 C  
HETATM   20  C   UNL     1     -13.330  12.770  70.937  1.00  0.00     0.375 C  
HETATM   21  C   UNL     1     -13.404  14.283  71.135  1.00  0.00    -0.363 C  
HETATM   22  C   UNL     1     -12.575  14.892  69.986  1.00  0.00    -0.218 C  
HETATM   23  C   UNL     1     -11.593  15.862  70.514  1.00  0.00    -0.381 C  
HETATM   24  N   UNL     1     -10.814  16.609  70.948  1.00  0.00     0.259 NA 
ENDBRANCH  15  16
ENDBRANCH  13  15
ENDBRANCH  10  13
TORSDOF 3
ENDMDL
MODEL      168
REMARK 921   NORMALIZED FREE ENERGY PREDICTED BY IDOCK:   -4.07 KCAL/MOL
REMARK 922        TOTAL FREE ENERGY PREDICTED BY IDOCK:   -5.42 KCAL/MOL
REMARK 923 INTER-LIGAND FREE ENERGY PREDICTED BY IDOCK:   -4.93 KCAL/MOL
REMARK 924 INTRA-LIGAND FREE ENERGY PREDICTED BY IDOCK:   -0.50 KCAL/MOL
REMARK 927      BINDING AFFINITY PREDICTED BY RF-SCORE:    0.00 PKD
ROOT
HETATM    1  O   UNL     1     -10.303   6.691  67.082  1.00  0.00    -0.193 OA 
HETATM    2  C   UNL     1     -10.179   7.826  67.927  1.00  0.00    -0.206 C  
HETATM    3  H   UNL     1     -11.213   6.427  67.027  1.00  0.00     0.000 HD 
HETATM    4  C   UNL     1      -8.704   8.253  68.015  1.00  0.00    -0.135 C  
HETATM    5  C   UNL     1      -8.565   9.475  68.936  1.00  0.00    -0.128 C  
HETATM    6  C   UNL     1      -9.106   9.129  70.331  1.00  0.00    -0.270 C  
HETATM    7  C   UNL     1     -10.585   8.723  70.238  1.00  0.00    -0.239 C  
HETATM    8  C   UNL     1     -11.398   9.886  69.633  1.00  0.00    -0.212 C  
HETATM    9  C   UNL     1     -10.708   7.492  69.330  1.00  0.00    -0.185 C  
HETATM   10  C   UNL     1     -10.876  10.249  68.213  1.00  0.00    -0.255 C  
HETATM   11  C   UNL     1     -11.003   8.980  67.334  1.00  0.00     0.040 C  
HETATM   12  C   UNL     1      -9.380  10.640  68.349  1.00  0.00    -0.163 C  
ENDROOT
BRANCH  10  13
HETATM   13  N   UNL     1     -11.696  11.368  67.706  1.00  0.00    -0.590 NA 
HETATM   14  H   UNL     1     -12.420  11.612  68.382  1.00  0.00     0.000 HD 
BRANCH  13  15
HETATM   15  C   UNL     1     -10.925  12.567  67.323  1.00  0.00    -0.261 C  
BRANCH  15  16
HETATM   16  C   UNL     1     -11.123  13.700  68.335  1.00  0.00    -0.264 C  
HETATM   17  O   UNL     1     -11.948  13.580  69.242  1.00  0.00    -0.315 OA 
HETATM   18  N   UNL     1     -10.333  14.826  68.225  1.00  0.00    -0.233 N  
HETATM   19  C   UNL     1     -10.409  15.897  69.196  1.00  0.00    -0.237 C  
HETATM   20  C   UNL     1     -10.120  17.137  68.377  1.00  0.00    -0.314 C  
HETATM   21  C   UNL     1      -9.119  16.661  67.326  1.00  0.00    -0.225 C  
HETATM   22  C   UNL     1      -9.380  15.151  67.158  1.00  0.00    -0.212 C  
HETATM   23  C   UNL     1      -8.117  14.391  67.277  1.00  0.00    -0.187 C  
HETATM   24  N   UNL     1      -7.118  13.808  67.389  1.00  0.00    -0.143 NA 
ENDBRANCH  15  16
ENDBRANCH  13  15
ENDBRANCH  10  13
TORSDOF 3
ENDMDL
MODEL      169
REMARK 921   NORMALIZED FREE ENERGY PREDICTED BY IDOCK:   -4.06 KCAL/MOL
REMARK 922        TOTAL FREE ENERGY PREDICTED BY IDOCK:   -5.41 KCAL/MOL
REMARK 923 INTER-LIGAND FREE ENERGY PREDICTED BY IDOCK:   -5.23 KCAL/MOL
REMARK 924 INTRA-LIGAND FREE ENERGY PREDICTED BY IDOCK:   -0.18 KCAL/MOL
REMARK 927      BINDING AFFINITY PREDICTED BY RF-SCORE:    0.00 PKD
ROOT
HETATM    1  O   UNL     1     -13.348   9.116  72.620  1.00  0.00    -0.538 OA 
HETATM    2  C   UNL     1     -12.272   8.424  72.004  1.00  0.00    -0.362 C  
HETATM    3  H   UNL     1     -13.022   9.888  73.066  1.00  0.00     0.000 HD 
HETATM    4  C   UNL     1     -12.800   7.173  71.282  1.00  0.00    -0.399 C  
HETATM    5  C   UNL     1     -11.638   6.417  70.621  1.00  0.00    -0.412 C  
HETATM    6  C   UNL     1     -10.609   6.022  71.691  1.00  0.00    -0.286 C  
HETATM    7  C   UNL     1     -10.070   7.279  72.393  1.00  0.00    -0.218 C  
HETATM    8  C   UNL     1      -9.414   8.206  71.350  1.00  0.00    -0.211 C  
HETATM    9  C   UNL     1     -11.239   8.015  73.064  1.00  0.00    -0.279 C  
HETATM   10  C   UNL     1     -10.440   8.630  70.259  1.00  0.00    -0.210 C  
HETATM   11  C   UNL     1     -11.607   9.354  70.976  1.00  0.00    -0.400 C  
HETATM   12  C   UNL     1     -10.967   7.335  69.585  1.00  0.00    -0.204 C  
ENDROOT
BRANCH  10  13
HETATM   13  N   UNL     1      -9.739   9.507  69.300  1.00  0.00    -0.168 NA 
HETATM   14  H   UNL     1      -9.892  10.487  69.537  1.00  0.00     0.000 HD 
BRANCH  13  15
HETATM   15  C   UNL     1      -8.295   9.231  69.163  1.00  0.00    -0.127 C  
BRANCH  15  16
HETATM   16  C   UNL     1      -7.456  10.418  69.643  1.00  0.00    -0.157 C  
HETATM   17  O   UNL     1      -6.855  10.356  70.717  1.00  0.00    -0.337 OA 
HETATM   18  N   UNL     1      -7.361  11.529  68.830  1.00  0.00    -0.109 N  
HETATM   19  C   UNL     1      -6.518  12.652  69.182  1.00  0.00    -0.106 C  
HETATM   20  C   UNL     1      -7.260  13.843  68.614  1.00  0.00    -0.108 C  
HETATM   21  C   UNL     1      -7.913  13.301  67.344  1.00  0.00    -0.175 C  
HETATM   22  C   UNL     1      -8.082  11.787  67.578  1.00  0.00    -0.152 C  
HETATM   23  C   UNL     1      -7.530  11.022  66.439  1.00  0.00    -0.131 C  
HETATM   24  N   UNL     1      -7.077  10.436  65.544  1.00  0.00    -0.144 NA 
ENDBRANCH  15  16
ENDBRANCH  13  15
ENDBRANCH  10  13
TORSDOF 3
ENDMDL
MODEL      170
REMARK 921   NORMALIZED FREE ENERGY PREDICTED BY IDOCK:   -4.04 KCAL/MOL
REMARK 922        TOTAL FREE ENERGY PREDICTED BY IDOCK:   -5.40 KCAL/MOL
REMARK 923 INTER-LIGAND FREE ENERGY PREDICTED BY IDOCK:   -4.95 KCAL/MOL
REMARK 924 INTRA-LIGAND FREE ENERGY PREDICTED BY IDOCK:   -0.45 KCAL/MOL
REMARK 927      BINDING AFFINITY PREDICTED BY RF-SCORE:    0.00 PKD
ROOT
HETATM    1  O   UNL     1      -8.253   7.230  73.131  1.00  0.00    -0.102 OA 
HETATM    2  C   UNL     1      -9.386   7.547  72.334  1.00  0.00    -0.148 C  
HETATM    3  H   UNL     1      -8.402   6.414  73.594  1.00  0.00     0.000 HD 
HETATM    4  C   UNL     1      -9.144   8.868  71.585  1.00  0.00    -0.280 C  
HETATM    5  C   UNL     1     -10.371   9.218  70.729  1.00  0.00    -0.348 C  
HETATM    6  C   UNL     1     -11.609   9.333  71.630  1.00  0.00    -0.463 C  
HETATM    7  C   UNL     1     -11.855   8.002  72.359  1.00  0.00    -0.429 C  
HETATM    8  C   UNL     1     -12.063   6.881  71.321  1.00  0.00    -0.419 C  
HETATM    9  C   UNL     1     -10.631   7.673  73.224  1.00  0.00    -0.411 C  
HETATM   10  C   UNL     1     -10.816   6.738  70.401  1.00  0.00    -0.262 C  
HETATM   11  C   UNL     1      -9.603   6.420  71.310  1.00  0.00    -0.182 C  
HETATM   12  C   UNL     1     -10.595   8.102  69.695  1.00  0.00    -0.223 C  
ENDROOT
BRANCH  10  13
HETATM   13  N   UNL     1     -11.093   5.654  69.436  1.00  0.00    -0.199 NA 
HETATM   14  H   UNL     1     -11.891   5.897  68.848  1.00  0.00     0.000 HD 
BRANCH  13  15
HETATM   15  C   UNL     1      -9.938   5.268  68.603  1.00  0.00    -0.168 C  
BRANCH  15  16
HETATM   16  C   UNL     1     -10.301   5.273  67.115  1.00  0.00    -0.216 C  
HETATM   17  O   UNL     1     -11.070   6.128  66.670  1.00  0.00    -0.284 OA 
HETATM   18  N   UNL     1      -9.721   4.330  66.292  1.00  0.00    -0.198 N  
HETATM   19  C   UNL     1      -9.954   4.330  64.863  1.00  0.00    -0.168 C  
HETATM   20  C   UNL     1      -9.905   2.863  64.497  1.00  0.00    -0.071 C  
HETATM   21  C   UNL     1      -8.865   2.277  65.451  1.00  0.00    -0.123 C  
HETATM   22  C   UNL     1      -8.867   3.203  66.684  1.00  0.00    -0.145 C  
HETATM   23  C   UNL     1      -7.489   3.626  67.015  1.00  0.00    -0.075 C  
HETATM   24  N   UNL     1      -6.402   3.963  67.251  1.00  0.00    -0.036 NA 
ENDBRANCH  15  16
ENDBRANCH  13  15
ENDBRANCH  10  13
TORSDOF 3
ENDMDL
MODEL      171
REMARK 921   NORMALIZED FREE ENERGY PREDICTED BY IDOCK:   -3.98 KCAL/MOL
REMARK 922        TOTAL FREE ENERGY PREDICTED BY IDOCK:   -5.32 KCAL/MOL
REMARK 923 INTER-LIGAND FREE ENERGY PREDICTED BY IDOCK:   -4.93 KCAL/MOL
REMARK 924 INTRA-LIGAND FREE ENERGY PREDICTED BY IDOCK:   -0.39 KCAL/MOL
REMARK 927      BINDING AFFINITY PREDICTED BY RF-SCORE:    0.00 PKD
ROOT
HETATM    1  O   UNL     1      -8.905   8.831  72.617  1.00  0.00    -0.394 OA 
HETATM    2  C   UNL     1      -9.655   7.720  72.149  1.00  0.00    -0.176 C  
HETATM    3  H   UNL     1      -7.976   8.650  72.539  1.00  0.00     0.000 HD 
HETATM    4  C   UNL     1     -11.159   8.015  72.276  1.00  0.00    -0.393 C  
HETATM    5  C   UNL     1     -11.975   6.812  71.779  1.00  0.00    -0.382 C  
HETATM    6  C   UNL     1     -11.603   5.567  72.598  1.00  0.00    -0.293 C  
HETATM    7  C   UNL     1     -10.103   5.267  72.449  1.00  0.00    -0.227 C  
HETATM    8  C   UNL     1      -9.773   5.034  70.961  1.00  0.00    -0.249 C  
HETATM    9  C   UNL     1      -9.300   6.469  72.966  1.00  0.00    -0.145 C  
HETATM   10  C   UNL     1     -10.131   6.287  70.110  1.00  0.00    -0.179 C  
HETATM   11  C   UNL     1      -9.314   7.477  70.670  1.00  0.00    -0.163 C  
HETATM   12  C   UNL     1     -11.647   6.562  70.297  1.00  0.00    -0.473 C  
ENDROOT
BRANCH  10  13
HETATM   13  N   UNL     1      -9.793   5.985  68.704  1.00  0.00    -0.132 NA 
HETATM   14  H   UNL     1      -9.714   4.977  68.566  1.00  0.00     0.000 HD 
BRANCH  13  15
HETATM   15  C   UNL     1     -10.719   6.569  67.714  1.00  0.00    -0.296 C  
BRANCH  15  16
HETATM   16  C   UNL     1     -10.247   7.954  67.263  1.00  0.00    -0.273 C  
HETATM   17  O   UNL     1     -10.747   8.968  67.755  1.00  0.00    -0.229 OA 
HETATM   18  N   UNL     1      -9.232   8.033  66.331  1.00  0.00    -0.184 N  
HETATM   19  C   UNL     1      -8.680   9.308  65.924  1.00  0.00    -0.154 C  
HETATM   20  C   UNL     1      -8.303   9.082  64.475  1.00  0.00    -0.182 C  
HETATM   21  C   UNL     1      -7.867   7.619  64.430  1.00  0.00    -0.137 C  
HETATM   22  C   UNL     1      -8.605   6.930  65.595  1.00  0.00    -0.110 C  
HETATM   23  C   UNL     1      -7.655   6.162  66.427  1.00  0.00    -0.094 C  
HETATM   24  N   UNL     1      -6.892   5.577  67.081  1.00  0.00    -0.062 NA 
ENDBRANCH  15  16
ENDBRANCH  13  15
ENDBRANCH  10  13
TORSDOF 3
ENDMDL
MODEL      172
REMARK 921   NORMALIZED FREE ENERGY PREDICTED BY IDOCK:   -3.98 KCAL/MOL
REMARK 922        TOTAL FREE ENERGY PREDICTED BY IDOCK:   -5.32 KCAL/MOL
REMARK 923 INTER-LIGAND FREE ENERGY PREDICTED BY IDOCK:   -4.80 KCAL/MOL
REMARK 924 INTRA-LIGAND FREE ENERGY PREDICTED BY IDOCK:   -0.52 KCAL/MOL
REMARK 927      BINDING AFFINITY PREDICTED BY RF-SCORE:    0.00 PKD
ROOT
HETATM    1  O   UNL     1     -10.812  16.713  66.053  1.00  0.00    -0.190 OA 
HETATM    2  C   UNL     1     -10.538  15.822  67.125  1.00  0.00    -0.313 C  
HETATM    3  H   UNL     1     -10.082  16.722  65.446  1.00  0.00     0.000 HD 
HETATM    4  C   UNL     1     -11.721  15.808  68.108  1.00  0.00    -0.175 C  
HETATM    5  C   UNL     1     -11.424  14.852  69.274  1.00  0.00    -0.324 C  
HETATM    6  C   UNL     1     -10.140  15.298  69.988  1.00  0.00    -0.178 C  
HETATM    7  C   UNL     1      -8.959  15.289  69.004  1.00  0.00    -0.225 C  
HETATM    8  C   UNL     1      -8.777  13.867  68.436  1.00  0.00    -0.173 C  
HETATM    9  C   UNL     1      -9.260  16.261  67.855  1.00  0.00    -0.201 C  
HETATM   10  C   UNL     1     -10.063  13.396  67.697  1.00  0.00    -0.229 C  
HETATM   11  C   UNL     1     -10.340  14.407  66.557  1.00  0.00    -0.281 C  
HETATM   12  C   UNL     1     -11.230  13.431  68.718  1.00  0.00    -0.315 C  
ENDROOT
BRANCH  10  13
HETATM   13  N   UNL     1      -9.813  12.032  67.189  1.00  0.00    -0.195 NA 
HETATM   14  H   UNL     1     -10.595  11.717  66.614  1.00  0.00     0.000 HD 
BRANCH  13  15
HETATM   15  C   UNL     1      -8.542  11.877  66.455  1.00  0.00    -0.126 C  
BRANCH  15  16
HETATM   16  C   UNL     1      -8.370  10.445  65.941  1.00  0.00    -0.152 C  
HETATM   17  O   UNL     1      -7.881   9.580  66.671  1.00  0.00    -0.100 OA 
HETATM   18  N   UNL     1      -8.808  10.146  64.667  1.00  0.00    -0.180 N  
HETATM   19  C   UNL     1      -8.753   8.795  64.148  1.00  0.00     0.008 C  
HETATM   20  C   UNL     1      -8.501   8.994  62.669  1.00  0.00    -0.210 C  
HETATM   21  C   UNL     1      -9.254  10.281  62.335  1.00  0.00    -0.311 C  
HETATM   22  C   UNL     1      -9.322  11.075  63.655  1.00  0.00    -0.238 C  
HETATM   23  C   UNL     1     -10.711  11.501  63.932  1.00  0.00    -0.395 C  
HETATM   24  N   UNL     1     -11.810  11.813  64.143  1.00  0.00    -0.298 NA 
ENDBRANCH  15  16
ENDBRANCH  13  15
ENDBRANCH  10  13
TORSDOF 3
ENDMDL
MODEL      173
REMARK 921   NORMALIZED FREE ENERGY PREDICTED BY IDOCK:   -3.97 KCAL/MOL
REMARK 922        TOTAL FREE ENERGY PREDICTED BY IDOCK:   -5.31 KCAL/MOL
REMARK 923 INTER-LIGAND FREE ENERGY PREDICTED BY IDOCK:   -4.83 KCAL/MOL
REMARK 924 INTRA-LIGAND FREE ENERGY PREDICTED BY IDOCK:   -0.48 KCAL/MOL
REMARK 927      BINDING AFFINITY PREDICTED BY RF-SCORE:    0.00 PKD
ROOT
HETATM    1  O   UNL     1     -12.319  14.247  68.651  1.00  0.00    -0.566 OA 
HETATM    2  C   UNL     1     -11.747  13.867  67.408  1.00  0.00    -0.389 C  
HETATM    3  H   UNL     1     -13.182  13.861  68.741  1.00  0.00     0.000 HD 
HETATM    4  C   UNL     1     -10.350  14.493  67.262  1.00  0.00    -0.260 C  
HETATM    5  C   UNL     1      -9.731  14.091  65.914  1.00  0.00    -0.250 C  
HETATM    6  C   UNL     1     -10.647  14.556  64.772  1.00  0.00    -0.401 C  
HETATM    7  C   UNL     1     -12.035  13.909  64.913  1.00  0.00    -0.412 C  
HETATM    8  C   UNL     1     -11.890  12.374  64.880  1.00  0.00    -0.442 C  
HETATM    9  C   UNL     1     -12.648  14.333  66.255  1.00  0.00    -0.216 C  
HETATM   10  C   UNL     1     -10.974  11.877  66.036  1.00  0.00    -0.309 C  
HETATM   11  C   UNL     1     -11.618  12.335  67.367  1.00  0.00    -0.425 C  
HETATM   12  C   UNL     1      -9.591  12.560  65.864  1.00  0.00    -0.174 C  
ENDROOT
BRANCH  10  13
HETATM   13  N   UNL     1     -10.881  10.407  65.933  1.00  0.00     0.052 NA 
HETATM   14  H   UNL     1     -10.581  10.134  64.997  1.00  0.00     0.000 HD 
BRANCH  13  15
HETATM   15  C   UNL     1     -10.021   9.776  66.954  1.00  0.00    -0.211 C  
BRANCH  15  16
HETATM   16  C   UNL     1      -8.786   9.133  66.317  1.00  0.00    -0.140 C  
HETATM   17  O   UNL     1      -8.808   8.793  65.133  1.00  0.00    -0.186 OA 
HETATM   18  N   UNL     1      -7.650   8.984  67.087  1.00  0.00    -0.091 N  
HETATM   19  C   UNL     1      -6.422   8.462  66.526  1.00  0.00    -0.055 C  
HETATM   20  C   UNL     1      -5.795   7.714  67.683  1.00  0.00    -0.036 C  
HETATM   21  C   UNL     1      -6.195   8.530  68.912  1.00  0.00    -0.044 C  
HETATM   22  C   UNL     1      -7.499   9.254  68.521  1.00  0.00    -0.081 C  
HETATM   23  C   UNL     1      -7.396  10.699  68.817  1.00  0.00    -0.100 C  
HETATM   24  N   UNL     1      -7.293  11.835  69.040  1.00  0.00    -0.090 NA 
ENDBRANCH  15  16
ENDBRANCH  13  15
ENDBRANCH  10  13
TORSDOF 3
ENDMDL
MODEL      174
REMARK 921   NORMALIZED FREE ENERGY PREDICTED BY IDOCK:   -3.96 KCAL/MOL
REMARK 922        TOTAL FREE ENERGY PREDICTED BY IDOCK:   -5.29 KCAL/MOL
REMARK 923 INTER-LIGAND FREE ENERGY PREDICTED BY IDOCK:   -4.68 KCAL/MOL
REMARK 924 INTRA-LIGAND FREE ENERGY PREDICTED BY IDOCK:   -0.62 KCAL/MOL
REMARK 927      BINDING AFFINITY PREDICTED BY RF-SCORE:    0.00 PKD
ROOT
HETATM    1  O   UNL     1      -9.656   7.306  67.566  1.00  0.00    -0.136 OA 
HETATM    2  C   UNL     1      -9.772   8.605  68.130  1.00  0.00    -0.158 C  
HETATM    3  H   UNL     1     -10.514   6.988  67.311  1.00  0.00     0.000 HD 
HETATM    4  C   UNL     1      -8.383   9.120  68.543  1.00  0.00    -0.123 C  
HETATM    5  C   UNL     1      -8.504  10.521  69.162  1.00  0.00    -0.152 C  
HETATM    6  C   UNL     1      -9.438  10.464  70.380  1.00  0.00     0.676 C  
HETATM    7  C   UNL     1     -10.830   9.969  69.954  1.00  0.00    -0.328 C  
HETATM    8  C   UNL     1     -11.410  10.924  68.891  1.00  0.00    -0.354 C  
HETATM    9  C   UNL     1     -10.696   8.562  69.355  1.00  0.00    -0.166 C  
HETATM   10  C   UNL     1     -10.486  10.991  67.641  1.00  0.00    -0.204 C  
HETATM   11  C   UNL     1     -10.366   9.553  67.075  1.00  0.00    -0.319 C  
HETATM   12  C   UNL     1      -9.092  11.482  68.114  1.00  0.00    -0.181 C  
ENDROOT
BRANCH  10  13
HETATM   13  N   UNL     1     -11.104  11.923  66.677  1.00  0.00    -0.295 NA 
HETATM   14  H   UNL     1     -11.697  11.416  66.021  1.00  0.00     0.000 HD 
BRANCH  13  15
HETATM   15  C   UNL     1     -11.854  13.033  67.296  1.00  0.00    -0.363 C  
BRANCH  15  16
HETATM   16  C   UNL     1     -11.388  14.388  66.755  1.00  0.00    -0.352 C  
HETATM   17  O   UNL     1     -11.626  14.702  65.587  1.00  0.00    -0.346 OA 
HETATM   18  N   UNL     1     -10.736  15.251  67.613  1.00  0.00    -0.275 N  
HETATM   19  C   UNL     1     -10.343  16.579  67.191  1.00  0.00    -0.298 C  
HETATM   20  C   UNL     1      -9.069  16.833  67.967  1.00  0.00    -0.228 C  
HETATM   21  C   UNL     1      -9.293  16.112  69.295  1.00  0.00    -0.227 C  
HETATM   22  C   UNL     1     -10.304  14.989  68.990  1.00  0.00    -0.243 C  
HETATM   23  C   UNL     1     -11.427  15.028  69.952  1.00  0.00    -0.289 C  
HETATM   24  N   UNL     1     -12.310  15.083  70.706  1.00  0.00    -0.315 NA 
ENDBRANCH  15  16
ENDBRANCH  13  15
ENDBRANCH  10  13
TORSDOF 3
ENDMDL
MODEL      175
REMARK 921   NORMALIZED FREE ENERGY PREDICTED BY IDOCK:   -3.95 KCAL/MOL
REMARK 922        TOTAL FREE ENERGY PREDICTED BY IDOCK:   -5.28 KCAL/MOL
REMARK 923 INTER-LIGAND FREE ENERGY PREDICTED BY IDOCK:   -4.87 KCAL/MOL
REMARK 924 INTRA-LIGAND FREE ENERGY PREDICTED BY IDOCK:   -0.41 KCAL/MOL
REMARK 927      BINDING AFFINITY PREDICTED BY RF-SCORE:    0.00 PKD
ROOT
HETATM    1  O   UNL     1      -9.125  14.953  65.586  1.00  0.00    -0.428 OA 
HETATM    2  C   UNL     1     -10.040  13.872  65.690  1.00  0.00    -0.313 C  
HETATM    3  H   UNL     1      -9.056  15.399  66.422  1.00  0.00     0.000 HD 
HETATM    4  C   UNL     1     -10.153  13.150  64.336  1.00  0.00    -0.224 C  
HETATM    5  C   UNL     1     -11.148  11.985  64.443  1.00  0.00    -0.399 C  
HETATM    6  C   UNL     1     -12.520  12.521  64.879  1.00  0.00    -0.524 C  
HETATM    7  C   UNL     1     -12.403  13.222  66.242  1.00  0.00    -0.382 C  
HETATM    8  C   UNL     1     -11.873  12.220  67.288  1.00  0.00    -0.330 C  
HETATM    9  C   UNL     1     -11.420  14.394  66.117  1.00  0.00    -0.357 C  
HETATM   10  C   UNL     1     -10.478  11.670  66.874  1.00  0.00    -0.227 C  
HETATM   11  C   UNL     1      -9.521  12.881  66.746  1.00  0.00    -0.245 C  
HETATM   12  C   UNL     1     -10.637  10.983  65.492  1.00  0.00    -0.267 C  
ENDROOT
BRANCH  10  13
HETATM   13  N   UNL     1     -10.044  10.719  67.918  1.00  0.00    -0.169 NA 
HETATM   14  H   UNL     1     -10.759  10.633  68.640  1.00  0.00     0.000 HD 
BRANCH  13  15
HETATM   15  C   UNL     1      -9.662   9.387  67.410  1.00  0.00    -0.159 C  
BRANCH  15  16
HETATM   16  C   UNL     1      -8.962   8.561  68.493  1.00  0.00    -0.139 C  
HETATM   17  O   UNL     1      -9.437   8.502  69.629  1.00  0.00    -0.163 OA 
HETATM   18  N   UNL     1      -7.820   7.863  68.154  1.00  0.00    -0.124 N  
HETATM   19  C   UNL     1      -7.157   6.996  69.105  1.00  0.00    -0.084 C  
HETATM   20  C   UNL     1      -5.696   7.112  68.728  1.00  0.00    -0.019 C  
HETATM   21  C   UNL     1      -5.717   7.283  67.210  1.00  0.00    -0.029 C  
HETATM   22  C   UNL     1      -7.090   7.904  66.883  1.00  0.00    -0.078 C  
HETATM   23  C   UNL     1      -7.765   7.133  65.817  1.00  0.00    -0.099 C  
HETATM   24  N   UNL     1      -8.289   6.507  64.990  1.00  0.00    -0.114 NA 
ENDBRANCH  15  16
ENDBRANCH  13  15
ENDBRANCH  10  13
TORSDOF 3
ENDMDL
MODEL      176
REMARK 921   NORMALIZED FREE ENERGY PREDICTED BY IDOCK:   -3.95 KCAL/MOL
REMARK 922        TOTAL FREE ENERGY PREDICTED BY IDOCK:   -5.28 KCAL/MOL
REMARK 923 INTER-LIGAND FREE ENERGY PREDICTED BY IDOCK:   -4.81 KCAL/MOL
REMARK 924 INTRA-LIGAND FREE ENERGY PREDICTED BY IDOCK:   -0.47 KCAL/MOL
REMARK 927      BINDING AFFINITY PREDICTED BY RF-SCORE:    0.00 PKD
ROOT
HETATM    1  O   UNL     1     -10.757  17.242  66.553  1.00  0.00    -0.221 OA 
HETATM    2  C   UNL     1     -10.671  16.144  67.451  1.00  0.00    -0.291 C  
HETATM    3  H   UNL     1     -10.072  17.178  65.898  1.00  0.00     0.000 HD 
HETATM    4  C   UNL     1     -11.780  16.248  68.511  1.00  0.00    -0.083 C  
HETATM    5  C   UNL     1     -11.686  15.067  69.489  1.00  0.00    -0.350 C  
HETATM    6  C   UNL     1     -10.304  15.067  70.159  1.00  0.00    -0.057 C  
HETATM    7  C   UNL     1      -9.202  14.942  69.095  1.00  0.00    -0.142 C  
HETATM    8  C   UNL     1      -9.402  13.633  68.303  1.00  0.00    -0.204 C  
HETATM    9  C   UNL     1      -9.297  16.136  68.135  1.00  0.00    -0.201 C  
HETATM   10  C   UNL     1     -10.793  13.614  67.604  1.00  0.00    -0.256 C  
HETATM   11  C   UNL     1     -10.854  14.839  66.658  1.00  0.00    -0.319 C  
HETATM   12  C   UNL     1     -11.873  13.755  68.709  1.00  0.00    -0.398 C  
ENDROOT
BRANCH  10  13
HETATM   13  N   UNL     1     -10.910  12.335  66.875  1.00  0.00    -0.243 NA 
HETATM   14  H   UNL     1     -11.508  12.446  66.056  1.00  0.00     0.000 HD 
BRANCH  13  15
HETATM   15  C   UNL     1      -9.620  11.730  66.492  1.00  0.00    -0.210 C  
BRANCH  15  16
HETATM   16  C   UNL     1      -9.809  10.301  65.975  1.00  0.00    -0.233 C  
HETATM   17  O   UNL     1      -9.933  10.093  64.766  1.00  0.00    -0.331 OA 
HETATM   18  N   UNL     1      -9.798   9.264  66.885  1.00  0.00    -0.197 N  
HETATM   19  C   UNL     1      -9.887   7.884  66.458  1.00  0.00    -0.202 C  
HETATM   20  C   UNL     1     -10.642   7.213  67.586  1.00  0.00    -0.318 C  
HETATM   21  C   UNL     1     -10.179   7.959  68.836  1.00  0.00    -0.215 C  
HETATM   22  C   UNL     1      -9.752   9.358  68.348  1.00  0.00    -0.149 C  
HETATM   23  C   UNL     1      -8.401   9.690  68.851  1.00  0.00    -0.116 C  
HETATM   24  N   UNL     1      -7.332   9.929  69.241  1.00  0.00    -0.076 NA 
ENDBRANCH  15  16
ENDBRANCH  13  15
ENDBRANCH  10  13
TORSDOF 3
ENDMDL
MODEL      177
REMARK 921   NORMALIZED FREE ENERGY PREDICTED BY IDOCK:   -3.94 KCAL/MOL
REMARK 922        TOTAL FREE ENERGY PREDICTED BY IDOCK:   -5.28 KCAL/MOL
REMARK 923 INTER-LIGAND FREE ENERGY PREDICTED BY IDOCK:   -4.58 KCAL/MOL
REMARK 924 INTRA-LIGAND FREE ENERGY PREDICTED BY IDOCK:   -0.70 KCAL/MOL
REMARK 927      BINDING AFFINITY PREDICTED BY RF-SCORE:    0.00 PKD
ROOT
HETATM    1  O   UNL     1      -7.944  10.941  69.381  1.00  0.00    -0.314 OA 
HETATM    2  C   UNL     1      -8.573  10.412  68.222  1.00  0.00    -0.128 C  
HETATM    3  H   UNL     1      -8.478  10.765  70.146  1.00  0.00     0.000 HD 
HETATM    4  C   UNL     1      -7.709  10.696  66.982  1.00  0.00    -0.117 C  
HETATM    5  C   UNL     1      -8.390  10.133  65.726  1.00  0.00    -0.147 C  
HETATM    6  C   UNL     1      -9.779  10.769  65.567  1.00  0.00    -0.290 C  
HETATM    7  C   UNL     1     -10.643  10.462  66.801  1.00  0.00    -0.270 C  
HETATM    8  C   UNL     1     -10.780   8.935  66.962  1.00  0.00    -0.180 C  
HETATM    9  C   UNL     1      -9.961  11.045  68.046  1.00  0.00    -0.188 C  
HETATM   10  C   UNL     1      -9.385   8.267  67.135  1.00  0.00    -0.151 C  
HETATM   11  C   UNL     1      -8.725   8.890  68.390  1.00  0.00    -0.134 C  
HETATM   12  C   UNL     1      -8.542   8.610  65.879  1.00  0.00    -0.177 C  
ENDROOT
BRANCH  10  13
HETATM   13  N   UNL     1      -9.599   6.813  67.278  1.00  0.00    -0.132 NA 
HETATM   14  H   UNL     1      -8.736   6.352  67.566  1.00  0.00     0.000 HD 
BRANCH  13  15
HETATM   15  C   UNL     1     -10.706   6.444  68.182  1.00  0.00    -0.291 C  
BRANCH  15  16
HETATM   16  C   UNL     1     -10.190   5.683  69.408  1.00  0.00    -0.245 C  
HETATM   17  O   UNL     1      -9.244   4.901  69.295  1.00  0.00    -0.098 OA 
HETATM   18  N   UNL     1     -10.781   5.926  70.631  1.00  0.00    -0.269 N  
HETATM   19  C   UNL     1     -10.288   5.305  71.842  1.00  0.00    -0.215 C  
HETATM   20  C   UNL     1     -11.537   5.120  72.677  1.00  0.00    -0.178 C  
HETATM   21  C   UNL     1     -12.403   6.327  72.322  1.00  0.00    -0.147 C  
HETATM   22  C   UNL     1     -11.962   6.751  70.907  1.00  0.00    -0.383 C  
HETATM   23  C   UNL     1     -11.662   8.198  70.870  1.00  0.00    -0.244 C  
HETATM   24  N   UNL     1     -11.414   9.334  70.862  1.00  0.00    -0.284 NA 
ENDBRANCH  15  16
ENDBRANCH  13  15
ENDBRANCH  10  13
TORSDOF 3
ENDMDL
MODEL      178
REMARK 921   NORMALIZED FREE ENERGY PREDICTED BY IDOCK:   -3.92 KCAL/MOL
REMARK 922        TOTAL FREE ENERGY PREDICTED BY IDOCK:   -5.26 KCAL/MOL
REMARK 923 INTER-LIGAND FREE ENERGY PREDICTED BY IDOCK:   -4.76 KCAL/MOL
REMARK 924 INTRA-LIGAND FREE ENERGY PREDICTED BY IDOCK:   -0.50 KCAL/MOL
REMARK 927      BINDING AFFINITY PREDICTED BY RF-SCORE:    0.00 PKD
ROOT
HETATM    1  O   UNL     1      -8.356   5.868  65.944  1.00  0.00    -0.123 OA 
HETATM    2  C   UNL     1      -8.297   7.270  65.726  1.00  0.00    -0.139 C  
HETATM    3  H   UNL     1      -8.286   5.682  66.872  1.00  0.00     0.000 HD 
HETATM    4  C   UNL     1      -8.410   7.570  64.221  1.00  0.00     0.093 C  
HETATM    5  C   UNL     1      -8.338   9.086  63.981  1.00  0.00    -0.180 C  
HETATM    6  C   UNL     1      -7.014   9.630  64.537  1.00  0.00    -0.117 C  
HETATM    7  C   UNL     1      -6.919   9.345  66.045  1.00  0.00    -0.090 C  
HETATM    8  C   UNL     1      -8.107  10.012  66.768  1.00  0.00    -0.118 C  
HETATM    9  C   UNL     1      -6.974   7.828  66.269  1.00  0.00    -0.063 C  
HETATM   10  C   UNL     1      -9.461   9.468  66.229  1.00  0.00    -0.210 C  
HETATM   11  C   UNL     1      -9.472   7.937  66.461  1.00  0.00    -0.277 C  
HETATM   12  C   UNL     1      -9.513   9.764  64.706  1.00  0.00    -0.318 C  
ENDROOT
BRANCH  10  13
HETATM   13  N   UNL     1     -10.543  10.155  66.963  1.00  0.00    -0.242 NA 
HETATM   14  H   UNL     1     -10.786   9.635  67.807  1.00  0.00     0.000 HD 
BRANCH  13  15
HETATM   15  C   UNL     1     -10.259  11.565  67.291  1.00  0.00    -0.202 C  
BRANCH  15  16
HETATM   16  C   UNL     1     -11.159  12.512  66.491  1.00  0.00    -0.287 C  
HETATM   17  O   UNL     1     -12.255  12.124  66.081  1.00  0.00    -0.611 OA 
HETATM   18  N   UNL     1     -10.730  13.807  66.280  1.00  0.00    -0.284 N  
HETATM   19  C   UNL     1     -11.567  14.778  65.606  1.00  0.00    -0.290 C  
HETATM   20  C   UNL     1     -10.572  15.653  64.875  1.00  0.00    -0.344 C  
HETATM   21  C   UNL     1      -9.358  15.688  65.801  1.00  0.00    -0.303 C  
HETATM   22  C   UNL     1      -9.427  14.386  66.623  1.00  0.00    -0.283 C  
HETATM   23  C   UNL     1      -9.300  14.679  68.067  1.00  0.00    -0.198 C  
HETATM   24  N   UNL     1      -9.216  14.928  69.200  1.00  0.00    -0.175 NA 
ENDBRANCH  15  16
ENDBRANCH  13  15
ENDBRANCH  10  13
TORSDOF 3
ENDMDL
MODEL      179
REMARK 921   NORMALIZED FREE ENERGY PREDICTED BY IDOCK:   -3.90 KCAL/MOL
REMARK 922        TOTAL FREE ENERGY PREDICTED BY IDOCK:   -5.22 KCAL/MOL
REMARK 923 INTER-LIGAND FREE ENERGY PREDICTED BY IDOCK:   -4.74 KCAL/MOL
REMARK 924 INTRA-LIGAND FREE ENERGY PREDICTED BY IDOCK:   -0.48 KCAL/MOL
REMARK 927      BINDING AFFINITY PREDICTED BY RF-SCORE:    0.00 PKD
ROOT
HETATM    1  O   UNL     1      -7.852   5.968  73.360  1.00  0.00    -0.100 OA 
HETATM    2  C   UNL     1      -8.962   6.538  72.679  1.00  0.00    -0.131 C  
HETATM    3  H   UNL     1      -7.120   5.875  72.763  1.00  0.00     0.000 HD 
HETATM    4  C   UNL     1     -10.147   6.689  73.647  1.00  0.00    -0.300 C  
HETATM    5  C   UNL     1     -11.352   7.296  72.912  1.00  0.00    -0.290 C  
HETATM    6  C   UNL     1     -11.738   6.395  71.730  1.00  0.00    -0.376 C  
HETATM    7  C   UNL     1     -10.555   6.266  70.757  1.00  0.00    -0.297 C  
HETATM    8  C   UNL     1     -10.159   7.666  70.244  1.00  0.00    -0.198 C  
HETATM    9  C   UNL     1      -9.365   5.643  71.499  1.00  0.00    -0.166 C  
HETATM   10  C   UNL     1      -9.753   8.596  71.424  1.00  0.00    -0.244 C  
HETATM   11  C   UNL     1      -8.562   7.926  72.153  1.00  0.00    -0.185 C  
HETATM   12  C   UNL     1     -10.967   8.690  72.386  1.00  0.00    -0.323 C  
ENDROOT
BRANCH  10  13
HETATM   13  N   UNL     1      -9.395   9.911  70.855  1.00  0.00    -0.281 NA 
HETATM   14  H   UNL     1      -8.405  10.105  71.002  1.00  0.00     0.000 HD 
BRANCH  13  15
HETATM   15  C   UNL     1      -9.747  10.077  69.431  1.00  0.00    -0.225 C  
BRANCH  15  16
HETATM   16  C   UNL     1      -8.494  10.263  68.569  1.00  0.00    -0.121 C  
HETATM   17  O   UNL     1      -7.427  10.588  69.094  1.00  0.00    -0.092 OA 
HETATM   18  N   UNL     1      -8.585  10.022  67.214  1.00  0.00    -0.125 N  
HETATM   19  C   UNL     1      -7.422  10.097  66.355  1.00  0.00    -0.108 C  
HETATM   20  C   UNL     1      -7.986  10.592  65.040  1.00  0.00    -0.079 C  
HETATM   21  C   UNL     1      -9.376   9.962  64.973  1.00  0.00    -0.323 C  
HETATM   22  C   UNL     1      -9.792   9.720  66.437  1.00  0.00    -0.235 C  
HETATM   23  C   UNL     1     -10.249   8.326  66.621  1.00  0.00    -0.263 C  
HETATM   24  N   UNL     1     -10.589   7.222  66.752  1.00  0.00    -0.278 NA 
ENDBRANCH  15  16
ENDBRANCH  13  15
ENDBRANCH  10  13
TORSDOF 3
ENDMDL
MODEL      180
REMARK 921   NORMALIZED FREE ENERGY PREDICTED BY IDOCK:   -3.89 KCAL/MOL
REMARK 922        TOTAL FREE ENERGY PREDICTED BY IDOCK:   -5.21 KCAL/MOL
REMARK 923 INTER-LIGAND FREE ENERGY PREDICTED BY IDOCK:   -4.80 KCAL/MOL
REMARK 924 INTRA-LIGAND FREE ENERGY PREDICTED BY IDOCK:   -0.41 KCAL/MOL
REMARK 927      BINDING AFFINITY PREDICTED BY RF-SCORE:    0.00 PKD
ROOT
HETATM    1  O   UNL     1     -10.034  15.860  66.134  1.00  0.00    -0.271 OA 
HETATM    2  C   UNL     1     -10.505  14.529  65.977  1.00  0.00    -0.308 C  
HETATM    3  H   UNL     1     -10.008  16.086  67.056  1.00  0.00     0.000 HD 
HETATM    4  C   UNL     1     -10.546  14.163  64.483  1.00  0.00    -0.285 C  
HETATM    5  C   UNL     1     -11.063  12.727  64.308  1.00  0.00    -0.410 C  
HETATM    6  C   UNL     1     -12.463  12.607  64.928  1.00  0.00    -0.564 C  
HETATM    7  C   UNL     1     -12.409  12.953  66.424  1.00  0.00    -0.145 C  
HETATM    8  C   UNL     1     -11.434  11.993  67.136  1.00  0.00    -0.401 C  
HETATM    9  C   UNL     1     -11.908  14.396  66.584  1.00  0.00    -0.417 C  
HETATM   10  C   UNL     1     -10.004  12.104  66.533  1.00  0.00    -0.213 C  
HETATM   11  C   UNL     1      -9.542  13.573  66.701  1.00  0.00    -0.282 C  
HETATM   12  C   UNL     1     -10.105  11.759  65.024  1.00  0.00    -0.302 C  
ENDROOT
BRANCH  10  13
HETATM   13  N   UNL     1      -9.137  11.155  67.260  1.00  0.00    -0.149 NA 
HETATM   14  H   UNL     1      -9.177  10.232  66.828  1.00  0.00     0.000 HD 
BRANCH  13  15
HETATM   15  C   UNL     1      -7.735  11.596  67.402  1.00  0.00    -0.147 C  
BRANCH  15  16
HETATM   16  C   UNL     1      -6.761  10.487  66.993  1.00  0.00    -0.082 C  
HETATM   17  O   UNL     1      -6.275  10.480  65.860  1.00  0.00    -0.107 OA 
HETATM   18  N   UNL     1      -6.420   9.531  67.928  1.00  0.00    -0.061 N  
HETATM   19  C   UNL     1      -5.442   8.505  67.634  1.00  0.00    -0.035 C  
HETATM   20  C   UNL     1      -5.931   7.313  68.429  1.00  0.00    -0.027 C  
HETATM   21  C   UNL     1      -6.548   7.932  69.682  1.00  0.00    -0.038 C  
HETATM   22  C   UNL     1      -6.977   9.355  69.273  1.00  0.00    -0.053 C  
HETATM   23  C   UNL     1      -6.457  10.350  70.236  1.00  0.00    -0.141 C  
HETATM   24  N   UNL     1      -6.026  11.120  70.993  1.00  0.00    -0.364 NA 
ENDBRANCH  15  16
ENDBRANCH  13  15
ENDBRANCH  10  13
TORSDOF 3
ENDMDL
MODEL      181
REMARK 921   NORMALIZED FREE ENERGY PREDICTED BY IDOCK:   -3.88 KCAL/MOL
REMARK 922        TOTAL FREE ENERGY PREDICTED BY IDOCK:   -5.20 KCAL/MOL
REMARK 923 INTER-LIGAND FREE ENERGY PREDICTED BY IDOCK:   -4.67 KCAL/MOL
REMARK 924 INTRA-LIGAND FREE ENERGY PREDICTED BY IDOCK:   -0.53 KCAL/MOL
REMARK 927      BINDING AFFINITY PREDICTED BY RF-SCORE:    0.00 PKD
ROOT
HETATM    1  O   UNL     1      -8.188   5.149  71.631  1.00  0.00    -0.112 OA 
HETATM    2  C   UNL     1      -9.266   6.073  71.588  1.00  0.00    -0.145 C  
HETATM    3  H   UNL     1      -8.396   4.386  71.106  1.00  0.00     0.000 HD 
HETATM    4  C   UNL     1      -8.929   7.309  72.438  1.00  0.00    -0.149 C  
HETATM    5  C   UNL     1     -10.096   8.307  72.401  1.00  0.00    -0.383 C  
HETATM    6  C   UNL     1     -11.369   7.627  72.927  1.00  0.00    -0.394 C  
HETATM    7  C   UNL     1     -11.710   6.405  72.060  1.00  0.00    -0.376 C  
HETATM    8  C   UNL     1     -11.921   6.857  70.600  1.00  0.00    -0.400 C  
HETATM    9  C   UNL     1     -10.544   5.409  72.120  1.00  0.00    -0.284 C  
HETATM   10  C   UNL     1     -10.641   7.541  70.040  1.00  0.00    -0.237 C  
HETATM   11  C   UNL     1      -9.488   6.510  70.130  1.00  0.00    -0.164 C  
HETATM   12  C   UNL     1     -10.324   8.758  70.948  1.00  0.00    -0.281 C  
ENDROOT
BRANCH  10  13
HETATM   13  N   UNL     1     -10.922   7.947  68.648  1.00  0.00    -0.416 NA 
HETATM   14  H   UNL     1     -11.907   7.798  68.426  1.00  0.00     0.000 HD 
BRANCH  13  15
HETATM   15  C   UNL     1     -10.526   9.331  68.324  1.00  0.00    -0.215 C  
BRANCH  15  16
HETATM   16  C   UNL     1      -9.650   9.377  67.068  1.00  0.00    -0.158 C  
HETATM   17  O   UNL     1     -10.149   9.663  65.978  1.00  0.00    -0.283 OA 
HETATM   18  N   UNL     1      -8.299   9.131  67.198  1.00  0.00    -0.116 N  
HETATM   19  C   UNL     1      -7.400   9.241  66.068  1.00  0.00    -0.095 C  
HETATM   20  C   UNL     1      -6.351   8.187  66.348  1.00  0.00    -0.050 C  
HETATM   21  C   UNL     1      -6.224   8.185  67.871  1.00  0.00    -0.051 C  
HETATM   22  C   UNL     1      -7.580   8.694  68.400  1.00  0.00    -0.096 C  
HETATM   23  C   UNL     1      -7.378   9.791  69.370  1.00  0.00    -0.087 C  
HETATM   24  N   UNL     1      -7.203  10.664  70.117  1.00  0.00    -0.178 NA 
ENDBRANCH  15  16
ENDBRANCH  13  15
ENDBRANCH  10  13
TORSDOF 3
ENDMDL
MODEL      182
REMARK 921   NORMALIZED FREE ENERGY PREDICTED BY IDOCK:   -3.85 KCAL/MOL
REMARK 922        TOTAL FREE ENERGY PREDICTED BY IDOCK:   -5.17 KCAL/MOL
REMARK 923 INTER-LIGAND FREE ENERGY PREDICTED BY IDOCK:   -4.73 KCAL/MOL
REMARK 924 INTRA-LIGAND FREE ENERGY PREDICTED BY IDOCK:   -0.45 KCAL/MOL
REMARK 927      BINDING AFFINITY PREDICTED BY RF-SCORE:    0.00 PKD
ROOT
HETATM    1  O   UNL     1     -11.008   5.109  74.307  1.00  0.00    -0.403 OA 
HETATM    2  C   UNL     1     -10.827   5.872  73.123  1.00  0.00    -0.266 C  
HETATM    3  H   UNL     1     -11.233   4.214  74.083  1.00  0.00     0.000 HD 
HETATM    4  C   UNL     1     -10.462   7.321  73.486  1.00  0.00    -0.421 C  
HETATM    5  C   UNL     1     -10.274   8.152  72.208  1.00  0.00    -0.348 C  
HETATM    6  C   UNL     1     -11.566   8.117  71.379  1.00  0.00    -0.314 C  
HETATM    7  C   UNL     1     -11.912   6.667  71.002  1.00  0.00    -0.415 C  
HETATM    8  C   UNL     1     -10.750   6.059  70.191  1.00  0.00    -0.379 C  
HETATM    9  C   UNL     1     -12.114   5.853  72.287  1.00  0.00    -0.138 C  
HETATM   10  C   UNL     1      -9.429   6.073  71.014  1.00  0.00    -0.168 C  
HETATM   11  C   UNL     1      -9.679   5.255  72.305  1.00  0.00    -0.192 C  
HETATM   12  C   UNL     1      -9.124   7.549  71.383  1.00  0.00    -0.145 C  
ENDROOT
BRANCH  10  13
HETATM   13  N   UNL     1      -8.370   5.483  70.172  1.00  0.00    -0.114 NA 
HETATM   14  H   UNL     1      -8.585   4.508  69.960  1.00  0.00     0.000 HD 
BRANCH  13  15
HETATM   15  C   UNL     1      -8.090   6.229  68.929  1.00  0.00    -0.110 C  
BRANCH  15  16
HETATM   16  C   UNL     1      -8.243   5.332  67.697  1.00  0.00    -0.099 C  
HETATM   17  O   UNL     1      -8.269   4.106  67.826  1.00  0.00    -0.093 OA 
HETATM   18  N   UNL     1      -8.387   5.928  66.462  1.00  0.00    -0.110 N  
HETATM   19  C   UNL     1      -8.620   5.143  65.268  1.00  0.00    -0.148 C  
HETATM   20  C   UNL     1      -7.925   5.936  64.182  1.00  0.00    -0.122 C  
HETATM   21  C   UNL     1      -8.114   7.391  64.607  1.00  0.00    -0.092 C  
HETATM   22  C   UNL     1      -8.287   7.356  66.139  1.00  0.00    -0.139 C  
HETATM   23  C   UNL     1      -9.492   8.113  66.542  1.00  0.00    -0.221 C  
HETATM   24  N   UNL     1     -10.452   8.697  66.839  1.00  0.00    -0.287 NA 
ENDBRANCH  15  16
ENDBRANCH  13  15
ENDBRANCH  10  13
TORSDOF 3
ENDMDL
MODEL      183
REMARK 921   NORMALIZED FREE ENERGY PREDICTED BY IDOCK:   -3.84 KCAL/MOL
REMARK 922        TOTAL FREE ENERGY PREDICTED BY IDOCK:   -5.16 KCAL/MOL
REMARK 923 INTER-LIGAND FREE ENERGY PREDICTED BY IDOCK:   -4.58 KCAL/MOL
REMARK 924 INTRA-LIGAND FREE ENERGY PREDICTED BY IDOCK:   -0.58 KCAL/MOL
REMARK 927      BINDING AFFINITY PREDICTED BY RF-SCORE:    0.00 PKD
ROOT
HETATM    1  O   UNL     1      -5.383  10.357  65.869  1.00  0.00    -0.052 OA 
HETATM    2  C   UNL     1      -6.468   9.603  65.346  1.00  0.00    -0.080 C  
HETATM    3  H   UNL     1      -5.571  11.285  65.797  1.00  0.00     0.000 HD 
HETATM    4  C   UNL     1      -6.164   8.100  65.463  1.00  0.00    -0.045 C  
HETATM    5  C   UNL     1      -7.331   7.281  64.891  1.00  0.00    -0.080 C  
HETATM    6  C   UNL     1      -7.557   7.668  63.422  1.00  0.00    -0.119 C  
HETATM    7  C   UNL     1      -7.881   9.167  63.316  1.00  0.00    -0.130 C  
HETATM    8  C   UNL     1      -9.146   9.476  64.142  1.00  0.00    -0.203 C  
HETATM    9  C   UNL     1      -6.700   9.973  63.874  1.00  0.00    -0.128 C  
HETATM   10  C   UNL     1      -8.939   9.102  65.638  1.00  0.00    -0.203 C  
HETATM   11  C   UNL     1      -7.734   9.924  66.158  1.00  0.00    -0.107 C  
HETATM   12  C   UNL     1      -8.602   7.588  65.700  1.00  0.00    -0.131 C  
ENDROOT
BRANCH  10  13
HETATM   13  N   UNL     1     -10.189   9.421  66.357  1.00  0.00    -0.258 NA 
HETATM   14  H   UNL     1     -10.690   8.565  66.596  1.00  0.00     0.000 HD 
BRANCH  13  15
HETATM   15  C   UNL     1     -10.006  10.262  67.556  1.00  0.00    -0.189 C  
BRANCH  15  16
HETATM   16  C   UNL     1     -11.110  11.317  67.667  1.00  0.00    -0.277 C  
HETATM   17  O   UNL     1     -12.140  11.069  68.298  1.00  0.00    -0.604 OA 
HETATM   18  N   UNL     1     -10.905  12.549  67.082  1.00  0.00    -0.244 N  
HETATM   19  C   UNL     1     -11.870  13.620  67.220  1.00  0.00    -0.391 C  
HETATM   20  C   UNL     1     -11.756  14.369  65.910  1.00  0.00    -0.371 C  
HETATM   21  C   UNL     1     -10.278  14.249  65.542  1.00  0.00    -0.379 C  
HETATM   22  C   UNL     1      -9.784  12.961  66.230  1.00  0.00    -0.268 C  
HETATM   23  C   UNL     1      -8.553  13.228  67.006  1.00  0.00    -0.161 C  
HETATM   24  N   UNL     1      -7.596  13.459  67.624  1.00  0.00    -0.159 NA 
ENDBRANCH  15  16
ENDBRANCH  13  15
ENDBRANCH  10  13
TORSDOF 3
ENDMDL
MODEL      184
REMARK 921   NORMALIZED FREE ENERGY PREDICTED BY IDOCK:   -3.83 KCAL/MOL
REMARK 922        TOTAL FREE ENERGY PREDICTED BY IDOCK:   -5.14 KCAL/MOL
REMARK 923 INTER-LIGAND FREE ENERGY PREDICTED BY IDOCK:   -4.73 KCAL/MOL
REMARK 924 INTRA-LIGAND FREE ENERGY PREDICTED BY IDOCK:   -0.41 KCAL/MOL
REMARK 927      BINDING AFFINITY PREDICTED BY RF-SCORE:    0.00 PKD
ROOT
HETATM    1  O   UNL     1     -13.260   7.321  70.861  1.00  0.00    -0.598 OA 
HETATM    2  C   UNL     1     -11.881   7.369  71.202  1.00  0.00    -0.301 C  
HETATM    3  H   UNL     1     -13.553   8.179  70.580  1.00  0.00     0.000 HD 
HETATM    4  C   UNL     1     -11.407   5.978  71.657  1.00  0.00    -0.313 C  
HETATM    5  C   UNL     1      -9.919   6.028  72.034  1.00  0.00    -0.195 C  
HETATM    6  C   UNL     1      -9.708   7.059  73.154  1.00  0.00    -0.215 C  
HETATM    7  C   UNL     1     -10.165   8.449  72.683  1.00  0.00    -0.320 C  
HETATM    8  C   UNL     1      -9.358   8.857  71.434  1.00  0.00    -0.338 C  
HETATM    9  C   UNL     1     -11.657   8.389  72.326  1.00  0.00    -0.453 C  
HETATM   10  C   UNL     1      -9.563   7.833  70.280  1.00  0.00    -0.175 C  
HETATM   11  C   UNL     1     -11.078   7.793  69.961  1.00  0.00    -0.182 C  
HETATM   12  C   UNL     1      -9.103   6.445  70.799  1.00  0.00    -0.151 C  
ENDROOT
BRANCH  10  13
HETATM   13  N   UNL     1      -8.758   8.289  69.129  1.00  0.00    -0.142 NA 
HETATM   14  H   UNL     1      -7.800   7.948  69.207  1.00  0.00     0.000 HD 
BRANCH  13  15
HETATM   15  C   UNL     1      -9.323   7.936  67.811  1.00  0.00    -0.140 C  
BRANCH  15  16
HETATM   16  C   UNL     1      -9.712   9.190  67.022  1.00  0.00    -0.188 C  
HETATM   17  O   UNL     1     -10.755   9.790  67.291  1.00  0.00    -0.264 OA 
HETATM   18  N   UNL     1      -8.855   9.644  66.041  1.00  0.00    -0.147 N  
HETATM   19  C   UNL     1      -9.120  10.868  65.316  1.00  0.00    -0.197 C  
HETATM   20  C   UNL     1      -8.548  10.594  63.941  1.00  0.00    -0.094 C  
HETATM   21  C   UNL     1      -7.335   9.707  64.214  1.00  0.00    -0.122 C  
HETATM   22  C   UNL     1      -7.635   8.995  65.548  1.00  0.00    -0.090 C  
HETATM   23  C   UNL     1      -6.497   9.146  66.482  1.00  0.00    -0.067 C  
HETATM   24  N   UNL     1      -5.602   9.288  67.209  1.00  0.00    -0.041 NA 
ENDBRANCH  15  16
ENDBRANCH  13  15
ENDBRANCH  10  13
TORSDOF 3
ENDMDL
MODEL      185
REMARK 921   NORMALIZED FREE ENERGY PREDICTED BY IDOCK:   -3.81 KCAL/MOL
REMARK 922        TOTAL FREE ENERGY PREDICTED BY IDOCK:   -5.12 KCAL/MOL
REMARK 923 INTER-LIGAND FREE ENERGY PREDICTED BY IDOCK:   -4.50 KCAL/MOL
REMARK 924 INTRA-LIGAND FREE ENERGY PREDICTED BY IDOCK:   -0.62 KCAL/MOL
REMARK 927      BINDING AFFINITY PREDICTED BY RF-SCORE:    0.00 PKD
ROOT
HETATM    1  O   UNL     1     -12.534  10.907  68.517  1.00  0.00    -0.742 OA 
HETATM    2  C   UNL     1     -11.387  11.210  67.737  1.00  0.00    -0.293 C  
HETATM    3  H   UNL     1     -13.086  10.289  68.054  1.00  0.00     0.000 HD 
HETATM    4  C   UNL     1     -10.493  12.212  68.489  1.00  0.00    -0.248 C  
HETATM    5  C   UNL     1      -9.255  12.549  67.644  1.00  0.00    -0.190 C  
HETATM    6  C   UNL     1      -9.699  13.135  66.296  1.00  0.00    -0.269 C  
HETATM    7  C   UNL     1     -10.573  12.120  65.542  1.00  0.00    -0.314 C  
HETATM    8  C   UNL     1      -9.770  10.823  65.313  1.00  0.00    -0.308 C  
HETATM    9  C   UNL     1     -11.814  11.806  66.388  1.00  0.00     0.002 C  
HETATM   10  C   UNL     1      -9.317  10.203  66.667  1.00  0.00    -0.162 C  
HETATM   11  C   UNL     1     -10.595   9.914  67.494  1.00  0.00    -0.333 C  
HETATM   12  C   UNL     1      -8.450  11.261  67.400  1.00  0.00    -0.137 C  
ENDROOT
BRANCH  10  13
HETATM   13  N   UNL     1      -8.555   8.975  66.365  1.00  0.00    -0.122 NA 
HETATM   14  H   UNL     1      -8.391   8.896  65.361  1.00  0.00     0.000 HD 
BRANCH  13  15
HETATM   15  C   UNL     1      -7.284   8.847  67.105  1.00  0.00    -0.083 C  
BRANCH  15  16
HETATM   16  C   UNL     1      -7.267   7.577  67.961  1.00  0.00    -0.090 C  
HETATM   17  O   UNL     1      -6.869   6.514  67.480  1.00  0.00    -0.070 OA 
HETATM   18  N   UNL     1      -7.667   7.666  69.279  1.00  0.00    -0.102 N  
HETATM   19  C   UNL     1      -7.595   6.524  70.166  1.00  0.00    -0.096 C  
HETATM   20  C   UNL     1      -8.772   6.726  71.096  1.00  0.00    -0.136 C  
HETATM   21  C   UNL     1      -8.869   8.243  71.246  1.00  0.00    -0.193 C  
HETATM   22  C   UNL     1      -8.245   8.827  69.963  1.00  0.00    -0.120 C  
HETATM   23  C   UNL     1      -7.230   9.848  70.300  1.00  0.00    -0.154 C  
HETATM   24  N   UNL     1      -6.423  10.636  70.583  1.00  0.00    -0.340 NA 
ENDBRANCH  15  16
ENDBRANCH  13  15
ENDBRANCH  10  13
TORSDOF 3
ENDMDL
MODEL      186
REMARK 921   NORMALIZED FREE ENERGY PREDICTED BY IDOCK:   -3.80 KCAL/MOL
REMARK 922        TOTAL FREE ENERGY PREDICTED BY IDOCK:   -5.11 KCAL/MOL
REMARK 923 INTER-LIGAND FREE ENERGY PREDICTED BY IDOCK:   -4.66 KCAL/MOL
REMARK 924 INTRA-LIGAND FREE ENERGY PREDICTED BY IDOCK:   -0.45 KCAL/MOL
REMARK 927      BINDING AFFINITY PREDICTED BY RF-SCORE:    0.00 PKD
ROOT
HETATM    1  O   UNL     1     -11.777   6.503  73.005  1.00  0.00    -0.473 OA 
HETATM    2  C   UNL     1     -10.821   6.332  71.968  1.00  0.00    -0.245 C  
HETATM    3  H   UNL     1     -11.904   7.428  73.178  1.00  0.00     0.000 HD 
HETATM    4  C   UNL     1     -10.615   4.834  71.689  1.00  0.00    -0.092 C  
HETATM    5  C   UNL     1      -9.575   4.646  70.574  1.00  0.00    -0.268 C  
HETATM    6  C   UNL     1      -8.250   5.299  70.994  1.00  0.00    -0.116 C  
HETATM    7  C   UNL     1      -8.460   6.799  71.251  1.00  0.00    -0.124 C  
HETATM    8  C   UNL     1      -8.992   7.469  69.967  1.00  0.00    -0.144 C  
HETATM    9  C   UNL     1      -9.487   6.973  72.378  1.00  0.00    -0.159 C  
HETATM   10  C   UNL     1     -10.342   6.831  69.527  1.00  0.00    -0.202 C  
HETATM   11  C   UNL     1     -11.344   7.015  70.693  1.00  0.00    -0.349 C  
HETATM   12  C   UNL     1     -10.090   5.318  69.290  1.00  0.00    -0.300 C  
ENDROOT
BRANCH  10  13
HETATM   13  N   UNL     1     -10.781   7.518  68.296  1.00  0.00    -0.391 NA 
HETATM   14  H   UNL     1     -11.670   7.136  67.972  1.00  0.00     0.000 HD 
BRANCH  13  15
HETATM   15  C   UNL     1     -10.866   8.987  68.413  1.00  0.00    -0.011 C  
BRANCH  15  16
HETATM   16  C   UNL     1     -10.288   9.677  67.174  1.00  0.00    -0.254 C  
HETATM   17  O   UNL     1     -10.233   9.073  66.100  1.00  0.00    -0.267 OA 
HETATM   18  N   UNL     1      -9.872  10.988  67.284  1.00  0.00    -0.176 N  
HETATM   19  C   UNL     1      -9.395  11.726  66.133  1.00  0.00    -0.225 C  
HETATM   20  C   UNL     1      -8.352  12.654  66.718  1.00  0.00    -0.011 C  
HETATM   21  C   UNL     1      -8.892  12.992  68.106  1.00  0.00    -0.194 C  
HETATM   22  C   UNL     1      -9.791  11.803  68.500  1.00  0.00    -0.189 C  
HETATM   23  C   UNL     1     -11.116  12.283  68.949  1.00  0.00    -0.242 C  
HETATM   24  N   UNL     1     -12.158  12.677  69.283  1.00  0.00    -0.222 NA 
ENDBRANCH  15  16
ENDBRANCH  13  15
ENDBRANCH  10  13
TORSDOF 3
ENDMDL
MODEL      187
REMARK 921   NORMALIZED FREE ENERGY PREDICTED BY IDOCK:   -3.79 KCAL/MOL
REMARK 922        TOTAL FREE ENERGY PREDICTED BY IDOCK:   -5.10 KCAL/MOL
REMARK 923 INTER-LIGAND FREE ENERGY PREDICTED BY IDOCK:   -4.48 KCAL/MOL
REMARK 924 INTRA-LIGAND FREE ENERGY PREDICTED BY IDOCK:   -0.62 KCAL/MOL
REMARK 927      BINDING AFFINITY PREDICTED BY RF-SCORE:    0.00 PKD
ROOT
HETATM    1  O   UNL     1      -9.331   9.776  64.704  1.00  0.00    -0.260 OA 
HETATM    2  C   UNL     1      -9.237   9.813  66.121  1.00  0.00    -0.176 C  
HETATM    3  H   UNL     1      -9.861  10.502  64.397  1.00  0.00     0.000 HD 
HETATM    4  C   UNL     1      -8.379   8.637  66.619  1.00  0.00    -0.108 C  
HETATM    5  C   UNL     1      -8.283   8.669  68.152  1.00  0.00    -0.115 C  
HETATM    6  C   UNL     1      -9.693   8.596  68.756  1.00  0.00    -0.171 C  
HETATM    7  C   UNL     1     -10.537   9.786  68.270  1.00  0.00    -0.271 C  
HETATM    8  C   UNL     1      -9.853  11.103  68.690  1.00  0.00    -0.207 C  
HETATM    9  C   UNL     1     -10.640   9.732  66.740  1.00  0.00    -0.208 C  
HETATM   10  C   UNL     1      -8.425  11.206  68.081  1.00  0.00    -0.138 C  
HETATM   11  C   UNL     1      -8.571  11.134  66.540  1.00  0.00    -0.169 C  
HETATM   12  C   UNL     1      -7.611   9.984  68.584  1.00  0.00    -0.088 C  
ENDROOT
BRANCH  10  13
HETATM   13  N   UNL     1      -7.838  12.485  68.530  1.00  0.00    -0.213 NA 
HETATM   14  H   UNL     1      -6.877  12.344  68.845  1.00  0.00     0.000 HD 
BRANCH  13  15
HETATM   15  C   UNL     1      -7.897  13.569  67.530  1.00  0.00    -0.178 C  
BRANCH  15  16
HETATM   16  C   UNL     1      -8.185  14.919  68.193  1.00  0.00    -0.139 C  
HETATM   17  O   UNL     1      -7.254  15.620  68.597  1.00  0.00    -0.120 OA 
HETATM   18  N   UNL     1      -9.496  15.340  68.290  1.00  0.00    -0.202 N  
HETATM   19  C   UNL     1      -9.832  16.641  68.828  1.00  0.00    -0.252 C  
HETATM   20  C   UNL     1     -11.165  16.408  69.506  1.00  0.00    -0.250 C  
HETATM   21  C   UNL     1     -11.849  15.359  68.631  1.00  0.00    -0.317 C  
HETATM   22  C   UNL     1     -10.706  14.587  67.942  1.00  0.00    -0.245 C  
HETATM   23  C   UNL     1     -10.932  14.522  66.482  1.00  0.00    -0.321 C  
HETATM   24  N   UNL     1     -11.116  14.495  65.334  1.00  0.00    -0.328 NA 
ENDBRANCH  15  16
ENDBRANCH  13  15
ENDBRANCH  10  13
TORSDOF 3
ENDMDL
MODEL      188
REMARK 921   NORMALIZED FREE ENERGY PREDICTED BY IDOCK:   -3.79 KCAL/MOL
REMARK 922        TOTAL FREE ENERGY PREDICTED BY IDOCK:   -5.09 KCAL/MOL
REMARK 923 INTER-LIGAND FREE ENERGY PREDICTED BY IDOCK:   -4.59 KCAL/MOL
REMARK 924 INTRA-LIGAND FREE ENERGY PREDICTED BY IDOCK:   -0.50 KCAL/MOL
REMARK 927      BINDING AFFINITY PREDICTED BY RF-SCORE:    0.00 PKD
ROOT
HETATM    1  O   UNL     1      -8.859   4.662  67.358  1.00  0.00    -0.104 OA 
HETATM    2  C   UNL     1      -8.921   6.080  67.315  1.00  0.00    -0.109 C  
HETATM    3  H   UNL     1      -8.002   4.385  67.659  1.00  0.00     0.000 HD 
HETATM    4  C   UNL     1     -10.310   6.528  66.828  1.00  0.00    -0.279 C  
HETATM    5  C   UNL     1     -10.379   8.061  66.772  1.00  0.00    -0.360 C  
HETATM    6  C   UNL     1      -9.285   8.589  65.831  1.00  0.00    -0.245 C  
HETATM    7  C   UNL     1      -7.900   8.156  66.337  1.00  0.00    -0.093 C  
HETATM    8  C   UNL     1      -7.680   8.707  67.761  1.00  0.00    -0.102 C  
HETATM    9  C   UNL     1      -7.839   6.623  66.371  1.00  0.00    -0.104 C  
HETATM   10  C   UNL     1      -8.770   8.177  68.737  1.00  0.00    -0.138 C  
HETATM   11  C   UNL     1      -8.685   6.631  68.732  1.00  0.00    -0.128 C  
HETATM   12  C   UNL     1     -10.150   8.624  68.185  1.00  0.00    -0.236 C  
ENDROOT
BRANCH  10  13
HETATM   13  N   UNL     1      -8.495   8.751  70.070  1.00  0.00    -0.126 NA 
HETATM   14  H   UNL     1      -7.590   9.222  70.074  1.00  0.00     0.000 HD 
BRANCH  13  15
HETATM   15  C   UNL     1      -9.547   9.653  70.576  1.00  0.00    -0.199 C  
BRANCH  15  16
HETATM   16  C   UNL     1     -10.401   8.965  71.645  1.00  0.00    -0.345 C  
HETATM   17  O   UNL     1      -9.865   8.260  72.503  1.00  0.00    -0.257 OA 
HETATM   18  N   UNL     1     -11.763   9.184  71.642  1.00  0.00    -0.353 N  
HETATM   19  C   UNL     1     -12.618   8.633  72.673  1.00  0.00    -0.210 C  
HETATM   20  C   UNL     1     -13.918   8.364  71.947  1.00  0.00    -0.483 C  
HETATM   21  C   UNL     1     -14.007   9.488  70.916  1.00  0.00     0.183 C  
HETATM   22  C   UNL     1     -12.550   9.916  70.644  1.00  0.00    -0.173 C  
HETATM   23  C   UNL     1     -12.409  11.382  70.774  1.00  0.00    -0.386 C  
HETATM   24  N   UNL     1     -12.311  12.533  70.897  1.00  0.00    -0.341 NA 
ENDBRANCH  15  16
ENDBRANCH  13  15
ENDBRANCH  10  13
TORSDOF 3
ENDMDL
MODEL      189
REMARK 921   NORMALIZED FREE ENERGY PREDICTED BY IDOCK:   -3.78 KCAL/MOL
REMARK 922        TOTAL FREE ENERGY PREDICTED BY IDOCK:   -5.08 KCAL/MOL
REMARK 923 INTER-LIGAND FREE ENERGY PREDICTED BY IDOCK:   -4.59 KCAL/MOL
REMARK 924 INTRA-LIGAND FREE ENERGY PREDICTED BY IDOCK:   -0.49 KCAL/MOL
REMARK 927      BINDING AFFINITY PREDICTED BY RF-SCORE:    0.00 PKD
ROOT
HETATM    1  O   UNL     1      -8.738   8.504  72.886  1.00  0.00    -0.337 OA 
HETATM    2  C   UNL     1      -9.602   7.476  72.420  1.00  0.00    -0.159 C  
HETATM    3  H   UNL     1      -7.841   8.304  72.649  1.00  0.00     0.000 HD 
HETATM    4  C   UNL     1     -11.055   7.801  72.805  1.00  0.00    -0.457 C  
HETATM    5  C   UNL     1     -11.991   6.687  72.310  1.00  0.00    -0.259 C  
HETATM    6  C   UNL     1     -11.561   5.347  72.925  1.00  0.00    -0.296 C  
HETATM    7  C   UNL     1     -10.116   5.020  72.518  1.00  0.00    -0.231 C  
HETATM    8  C   UNL     1     -10.020   4.948  70.981  1.00  0.00    -0.282 C  
HETATM    9  C   UNL     1      -9.190   6.131  73.034  1.00  0.00    -0.133 C  
HETATM   10  C   UNL     1     -10.440   6.299  70.334  1.00  0.00    -0.222 C  
HETATM   11  C   UNL     1      -9.493   7.393  70.888  1.00  0.00    -0.165 C  
HETATM   12  C   UNL     1     -11.897   6.598  70.777  1.00  0.00    -0.441 C  
ENDROOT
BRANCH  10  13
HETATM   13  N   UNL     1     -10.327   6.149  68.869  1.00  0.00    -0.186 NA 
HETATM   14  H   UNL     1     -10.470   7.048  68.407  1.00  0.00     0.000 HD 
BRANCH  13  15
HETATM   15  C   UNL     1      -9.067   5.531  68.414  1.00  0.00    -0.111 C  
BRANCH  15  16
HETATM   16  C   UNL     1      -9.253   4.816  67.073  1.00  0.00    -0.126 C  
HETATM   17  O   UNL     1      -9.744   3.685  67.039  1.00  0.00    -0.197 OA 
HETATM   18  N   UNL     1      -8.896   5.479  65.917  1.00  0.00    -0.147 N  
HETATM   19  C   UNL     1      -9.123   4.896  64.611  1.00  0.00    -0.074 C  
HETATM   20  C   UNL     1      -7.968   5.418  63.785  1.00  0.00    -0.107 C  
HETATM   21  C   UNL     1      -7.714   6.816  64.346  1.00  0.00    -0.109 C  
HETATM   22  C   UNL     1      -8.223   6.777  65.801  1.00  0.00    -0.135 C  
HETATM   23  C   UNL     1      -9.134   7.913  66.061  1.00  0.00    -0.132 C  
HETATM   24  N   UNL     1      -9.862   8.801  66.243  1.00  0.00    -0.281 NA 
ENDBRANCH  15  16
ENDBRANCH  13  15
ENDBRANCH  10  13
TORSDOF 3
ENDMDL
MODEL      190
REMARK 921   NORMALIZED FREE ENERGY PREDICTED BY IDOCK:   -3.78 KCAL/MOL
REMARK 922        TOTAL FREE ENERGY PREDICTED BY IDOCK:   -5.08 KCAL/MOL
REMARK 923 INTER-LIGAND FREE ENERGY PREDICTED BY IDOCK:   -4.58 KCAL/MOL
REMARK 924 INTRA-LIGAND FREE ENERGY PREDICTED BY IDOCK:   -0.50 KCAL/MOL
REMARK 927      BINDING AFFINITY PREDICTED BY RF-SCORE:    0.00 PKD
ROOT
HETATM    1  O   UNL     1      -6.869  10.361  70.735  1.00  0.00    -0.369 OA 
HETATM    2  C   UNL     1      -8.072   9.642  70.505  1.00  0.00    -0.109 C  
HETATM    3  H   UNL     1      -6.464  10.585  69.906  1.00  0.00     0.000 HD 
HETATM    4  C   UNL     1      -8.728   9.278  71.848  1.00  0.00     0.510 C  
HETATM    5  C   UNL     1     -10.026   8.492  71.604  1.00  0.00    -0.329 C  
HETATM    6  C   UNL     1      -9.712   7.222  70.800  1.00  0.00    -0.171 C  
HETATM    7  C   UNL     1      -9.077   7.595  69.451  1.00  0.00    -0.142 C  
HETATM    8  C   UNL     1     -10.049   8.492  68.659  1.00  0.00    -0.207 C  
HETATM    9  C   UNL     1      -7.773   8.363  69.709  1.00  0.00    -0.093 C  
HETATM   10  C   UNL     1     -10.375   9.793  69.449  1.00  0.00    -0.217 C  
HETATM   11  C   UNL     1      -9.036  10.530  69.700  1.00  0.00     0.035 C  
HETATM   12  C   UNL     1     -11.001   9.373  70.805  1.00  0.00    -0.371 C  
ENDROOT
BRANCH  10  13
HETATM   13  N   UNL     1     -11.310  10.591  68.631  1.00  0.00    -0.377 NA 
HETATM   14  H   UNL     1     -11.914   9.980  68.082  1.00  0.00     0.000 HD 
BRANCH  13  15
HETATM   15  C   UNL     1     -12.119  11.559  69.398  1.00  0.00    -0.279 C  
BRANCH  15  16
HETATM   16  C   UNL     1     -11.968  12.976  68.836  1.00  0.00    -0.263 C  
HETATM   17  O   UNL     1     -12.014  13.165  67.618  1.00  0.00    -0.357 OA 
HETATM   18  N   UNL     1     -11.820  14.024  69.721  1.00  0.00    -0.305 N  
HETATM   19  C   UNL     1     -11.757  15.396  69.262  1.00  0.00    -0.349 C  
HETATM   20  C   UNL     1     -10.831  16.059  70.259  1.00  0.00    -0.327 C  
HETATM   21  C   UNL     1     -11.127  15.342  71.575  1.00  0.00    -0.272 C  
HETATM   22  C   UNL     1     -11.658  13.950  71.177  1.00  0.00     0.446 C  
HETATM   23  C   UNL     1     -12.930  13.662  71.874  1.00  0.00    -0.341 C  
HETATM   24  N   UNL     1     -13.937  13.459  72.418  1.00  0.00    -0.694 NA 
ENDBRANCH  15  16
ENDBRANCH  13  15
ENDBRANCH  10  13
TORSDOF 3
ENDMDL
MODEL      191
REMARK 921   NORMALIZED FREE ENERGY PREDICTED BY IDOCK:   -3.77 KCAL/MOL
REMARK 922        TOTAL FREE ENERGY PREDICTED BY IDOCK:   -5.08 KCAL/MOL
REMARK 923 INTER-LIGAND FREE ENERGY PREDICTED BY IDOCK:   -4.58 KCAL/MOL
REMARK 924 INTRA-LIGAND FREE ENERGY PREDICTED BY IDOCK:   -0.50 KCAL/MOL
REMARK 927      BINDING AFFINITY PREDICTED BY RF-SCORE:    0.00 PKD
ROOT
HETATM    1  O   UNL     1     -11.249   9.442  67.034  1.00  0.00    -0.130 OA 
HETATM    2  C   UNL     1     -10.111  10.260  67.266  1.00  0.00    -0.203 C  
HETATM    3  H   UNL     1     -12.027   9.868  67.373  1.00  0.00     0.000 HD 
HETATM    4  C   UNL     1      -8.851   9.569  66.717  1.00  0.00    -0.145 C  
HETATM    5  C   UNL     1      -7.616  10.447  66.974  1.00  0.00    -0.101 C  
HETATM    6  C   UNL     1      -7.473  10.699  68.482  1.00  0.00    -0.093 C  
HETATM    7  C   UNL     1      -8.727  11.408  69.019  1.00  0.00     0.079 C  
HETATM    8  C   UNL     1      -8.915  12.747  68.277  1.00  0.00    -0.175 C  
HETATM    9  C   UNL     1      -9.949  10.514  68.772  1.00  0.00    -0.200 C  
HETATM   10  C   UNL     1      -9.073  12.517  66.746  1.00  0.00    -0.214 C  
HETATM   11  C   UNL     1     -10.306  11.601  66.541  1.00  0.00    -0.259 C  
HETATM   12  C   UNL     1      -7.796  11.790  66.247  1.00  0.00     0.193 C  
ENDROOT
BRANCH  10  13
HETATM   13  N   UNL     1      -9.243  13.838  66.110  1.00  0.00    -0.494 NA 
HETATM   14  H   UNL     1     -10.083  13.849  65.532  1.00  0.00     0.000 HD 
BRANCH  13  15
HETATM   15  C   UNL     1      -9.252  14.974  67.052  1.00  0.00    -0.230 C  
BRANCH  15  16
HETATM   16  C   UNL     1      -8.232  16.041  66.644  1.00  0.00    -0.289 C  
HETATM   17  O   UNL     1      -7.033  15.761  66.588  1.00  0.00    -0.177 OA 
HETATM   18  N   UNL     1      -8.693  17.298  66.308  1.00  0.00    -0.248 N  
HETATM   19  C   UNL     1      -7.794  18.328  65.832  1.00  0.00    -0.047 C  
HETATM   20  C   UNL     1      -8.413  19.606  66.357  1.00  0.00    -0.382 C  
HETATM   21  C   UNL     1      -9.916  19.337  66.309  1.00  0.00    -0.484 C  
HETATM   22  C   UNL     1     -10.065  17.806  66.411  1.00  0.00    -0.357 C  
HETATM   23  C   UNL     1     -10.939  17.298  65.330  1.00  0.00     0.078 C  
HETATM   24  N   UNL     1     -11.614  16.914  64.465  1.00  0.00    -0.697 NA 
ENDBRANCH  15  16
ENDBRANCH  13  15
ENDBRANCH  10  13
TORSDOF 3
ENDMDL
MODEL      192
REMARK 921   NORMALIZED FREE ENERGY PREDICTED BY IDOCK:   -3.76 KCAL/MOL
REMARK 922        TOTAL FREE ENERGY PREDICTED BY IDOCK:   -5.06 KCAL/MOL
REMARK 923 INTER-LIGAND FREE ENERGY PREDICTED BY IDOCK:   -4.67 KCAL/MOL
REMARK 924 INTRA-LIGAND FREE ENERGY PREDICTED BY IDOCK:   -0.38 KCAL/MOL
REMARK 927      BINDING AFFINITY PREDICTED BY RF-SCORE:    0.00 PKD
ROOT
HETATM    1  O   UNL     1      -6.165  17.094  65.959  1.00  0.00    -0.187 OA 
HETATM    2  C   UNL     1      -7.007  16.551  66.966  1.00  0.00    -0.215 C  
HETATM    3  H   UNL     1      -6.017  16.448  65.279  1.00  0.00     0.000 HD 
HETATM    4  C   UNL     1      -7.246  17.597  68.068  1.00  0.00    -0.216 C  
HETATM    5  C   UNL     1      -8.150  17.011  69.163  1.00  0.00    -0.052 C  
HETATM    6  C   UNL     1      -7.491  15.755  69.752  1.00  0.00     0.008 C  
HETATM    7  C   UNL     1      -7.275  14.706  68.649  1.00  0.00    -0.122 C  
HETATM    8  C   UNL     1      -8.634  14.340  68.018  1.00  0.00    -0.169 C  
HETATM    9  C   UNL     1      -6.357  15.298  67.571  1.00  0.00    -0.129 C  
HETATM   10  C   UNL     1      -9.317  15.596  67.403  1.00  0.00    -0.210 C  
HETATM   11  C   UNL     1      -8.356  16.170  66.333  1.00  0.00    -0.357 C  
HETATM   12  C   UNL     1      -9.506  16.632  68.543  1.00  0.00    -0.239 C  
ENDROOT
BRANCH  10  13
HETATM   13  N   UNL     1     -10.607  15.167  66.826  1.00  0.00    -0.292 NA 
HETATM   14  H   UNL     1     -10.812  15.697  65.979  1.00  0.00     0.000 HD 
BRANCH  13  15
HETATM   15  C   UNL     1     -10.707  13.718  66.563  1.00  0.00    -0.284 C  
BRANCH  15  16
HETATM   16  C   UNL     1     -10.524  13.411  65.074  1.00  0.00    -0.365 C  
HETATM   17  O   UNL     1     -10.849  14.246  64.227  1.00  0.00    -0.238 OA 
HETATM   18  N   UNL     1      -9.957  12.205  64.715  1.00  0.00    -0.235 N  
HETATM   19  C   UNL     1      -9.678  11.886  63.330  1.00  0.00    -0.270 C  
HETATM   20  C   UNL     1      -9.881  10.388  63.266  1.00  0.00    -0.231 C  
HETATM   21  C   UNL     1      -9.416   9.892  64.634  1.00  0.00    -0.343 C  
HETATM   22  C   UNL     1      -9.605  11.084  65.592  1.00  0.00    -0.226 C  
HETATM   23  C   UNL     1      -8.365  11.333  66.359  1.00  0.00    -0.159 C  
HETATM   24  N   UNL     1      -7.377  11.525  66.941  1.00  0.00    -0.146 NA 
ENDBRANCH  15  16
ENDBRANCH  13  15
ENDBRANCH  10  13
TORSDOF 3
ENDMDL
MODEL      193
REMARK 921   NORMALIZED FREE ENERGY PREDICTED BY IDOCK:   -3.72 KCAL/MOL
REMARK 922        TOTAL FREE ENERGY PREDICTED BY IDOCK:   -5.02 KCAL/MOL
REMARK 923 INTER-LIGAND FREE ENERGY PREDICTED BY IDOCK:   -4.51 KCAL/MOL
REMARK 924 INTRA-LIGAND FREE ENERGY PREDICTED BY IDOCK:   -0.51 KCAL/MOL
REMARK 927      BINDING AFFINITY PREDICTED BY RF-SCORE:    0.00 PKD
ROOT
HETATM    1  O   UNL     1      -5.592   8.761  67.161  1.00  0.00    -0.037 OA 
HETATM    2  C   UNL     1      -6.805   8.485  66.476  1.00  0.00    -0.071 C  
HETATM    3  H   UNL     1      -5.122   9.457  66.718  1.00  0.00     0.000 HD 
HETATM    4  C   UNL     1      -7.567   7.358  67.196  1.00  0.00    -0.107 C  
HETATM    5  C   UNL     1      -8.875   7.050  66.452  1.00  0.00    -0.158 C  
HETATM    6  C   UNL     1      -8.559   6.643  65.006  1.00  0.00     0.074 C  
HETATM    7  C   UNL     1      -7.817   7.782  64.288  1.00  0.00    -0.138 C  
HETATM    8  C   UNL     1      -8.695   9.050  64.297  1.00  0.00    -0.140 C  
HETATM    9  C   UNL     1      -6.504   8.067  65.030  1.00  0.00    -0.048 C  
HETATM   10  C   UNL     1      -9.021   9.489  65.753  1.00  0.00    -0.179 C  
HETATM   11  C   UNL     1      -7.673   9.754  66.470  1.00  0.00    -0.105 C  
HETATM   12  C   UNL     1      -9.756   8.311  66.445  1.00  0.00    -0.300 C  
ENDROOT
BRANCH  10  13
HETATM   13  N   UNL     1      -9.864  10.700  65.678  1.00  0.00    -0.236 NA 
HETATM   14  H   UNL     1     -10.758  10.540  66.142  1.00  0.00     0.000 HD 
BRANCH  13  15
HETATM   15  C   UNL     1      -9.224  11.923  66.201  1.00  0.00    -0.199 C  
BRANCH  15  16
HETATM   16  C   UNL     1     -10.146  13.137  66.053  1.00  0.00    -0.286 C  
HETATM   17  O   UNL     1     -10.304  13.662  64.948  1.00  0.00    -0.377 OA 
HETATM   18  N   UNL     1     -10.816  13.595  67.168  1.00  0.00    -0.283 N  
HETATM   19  C   UNL     1     -11.767  14.684  67.083  1.00  0.00    -0.373 C  
HETATM   20  C   UNL     1     -11.624  15.383  68.418  1.00  0.00    -0.368 C  
HETATM   21  C   UNL     1     -11.319  14.251  69.398  1.00  0.00    -0.325 C  
HETATM   22  C   UNL     1     -10.666  13.138  68.554  1.00  0.00    -0.259 C  
HETATM   23  C   UNL     1     -11.336  11.843  68.799  1.00  0.00    -0.274 C  
HETATM   24  N   UNL     1     -11.884  10.836  68.990  1.00  0.00    -0.323 NA 
ENDBRANCH  15  16
ENDBRANCH  13  15
ENDBRANCH  10  13
TORSDOF 3
ENDMDL
MODEL      194
REMARK 921   NORMALIZED FREE ENERGY PREDICTED BY IDOCK:   -3.72 KCAL/MOL
REMARK 922        TOTAL FREE ENERGY PREDICTED BY IDOCK:   -5.02 KCAL/MOL
REMARK 923 INTER-LIGAND FREE ENERGY PREDICTED BY IDOCK:   -4.57 KCAL/MOL
REMARK 924 INTRA-LIGAND FREE ENERGY PREDICTED BY IDOCK:   -0.45 KCAL/MOL
REMARK 927      BINDING AFFINITY PREDICTED BY RF-SCORE:    0.00 PKD
ROOT
HETATM    1  O   UNL     1      -7.809   9.816  65.054  1.00  0.00    -0.117 OA 
HETATM    2  C   UNL     1      -8.642  10.410  66.040  1.00  0.00    -0.151 C  
HETATM    3  H   UNL     1      -7.001   9.515  65.453  1.00  0.00     0.000 HD 
HETATM    4  C   UNL     1      -9.950  10.898  65.394  1.00  0.00    -0.319 C  
HETATM    5  C   UNL     1     -10.849  11.549  66.456  1.00  0.00    -0.335 C  
HETATM    6  C   UNL     1     -10.104  12.723  67.108  1.00  0.00    -0.234 C  
HETATM    7  C   UNL     1      -8.810  12.224  67.769  1.00  0.00    -0.174 C  
HETATM    8  C   UNL     1      -9.155  11.163  68.835  1.00  0.00    -0.098 C  
HETATM    9  C   UNL     1      -7.913  11.592  66.696  1.00  0.00    -0.098 C  
HETATM   10  C   UNL     1      -9.902   9.957  68.196  1.00  0.00    -0.147 C  
HETATM   11  C   UNL     1      -8.972   9.358  67.112  1.00  0.00    -0.144 C  
HETATM   12  C   UNL     1     -11.192  10.503  67.531  1.00  0.00    -0.299 C  
ENDROOT
BRANCH  10  13
HETATM   13  N   UNL     1     -10.200   8.993  69.274  1.00  0.00    -0.199 NA 
HETATM   14  H   UNL     1     -10.864   8.290  68.949  1.00  0.00     0.000 HD 
BRANCH  13  15
HETATM   15  C   UNL     1      -9.011   8.345  69.861  1.00  0.00    -0.142 C  
BRANCH  15  16
HETATM   16  C   UNL     1      -9.287   6.876  70.195  1.00  0.00    -0.159 C  
HETATM   17  O   UNL     1      -9.085   6.003  69.349  1.00  0.00    -0.131 OA 
HETATM   18  N   UNL     1      -9.726   6.560  71.464  1.00  0.00    -0.168 N  
HETATM   19  C   UNL     1      -9.925   5.185  71.872  1.00  0.00    -0.184 C  
HETATM   20  C   UNL     1     -11.083   5.270  72.844  1.00  0.00    -0.365 C  
HETATM   21  C   UNL     1     -10.885   6.616  73.539  1.00  0.00    -0.224 C  
HETATM   22  C   UNL     1     -10.095   7.485  72.540  1.00  0.00    -0.211 C  
HETATM   23  C   UNL     1      -8.916   8.088  73.199  1.00  0.00    -0.267 C  
HETATM   24  N   UNL     1      -7.984   8.539  73.727  1.00  0.00    -0.404 NA 
ENDBRANCH  15  16
ENDBRANCH  13  15
ENDBRANCH  10  13
TORSDOF 3
ENDMDL
MODEL      195
REMARK 921   NORMALIZED FREE ENERGY PREDICTED BY IDOCK:   -3.69 KCAL/MOL
REMARK 922        TOTAL FREE ENERGY PREDICTED BY IDOCK:   -4.98 KCAL/MOL
REMARK 923 INTER-LIGAND FREE ENERGY PREDICTED BY IDOCK:   -4.32 KCAL/MOL
REMARK 924 INTRA-LIGAND FREE ENERGY PREDICTED BY IDOCK:   -0.66 KCAL/MOL
REMARK 927      BINDING AFFINITY PREDICTED BY RF-SCORE:    0.00 PKD
ROOT
HETATM    1  O   UNL     1      -8.636   8.852  71.724  1.00  0.00    -0.318 OA 
HETATM    2  C   UNL     1      -9.552   7.773  71.612  1.00  0.00    -0.155 C  
HETATM    3  H   UNL     1      -7.941   8.624  72.329  1.00  0.00     0.000 HD 
HETATM    4  C   UNL     1     -10.678   8.142  70.632  1.00  0.00    -0.238 C  
HETATM    5  C   UNL     1     -11.676   6.980  70.515  1.00  0.00    -0.359 C  
HETATM    6  C   UNL     1     -12.256   6.662  71.901  1.00  0.00    -0.381 C  
HETATM    7  C   UNL     1     -11.127   6.273  72.868  1.00  0.00    -0.268 C  
HETATM    8  C   UNL     1     -10.381   5.042  72.315  1.00  0.00    -0.267 C  
HETATM    9  C   UNL     1     -10.148   7.448  72.990  1.00  0.00    -0.323 C  
HETATM   10  C   UNL     1      -9.773   5.343  70.915  1.00  0.00    -0.180 C  
HETATM   11  C   UNL     1      -8.804   6.540  71.077  1.00  0.00    -0.139 C  
HETATM   12  C   UNL     1     -10.941   5.742  69.974  1.00  0.00    -0.382 C  
ENDROOT
BRANCH  10  13
HETATM   13  N   UNL     1      -9.084   4.121  70.453  1.00  0.00    -0.099 NA 
HETATM   14  H   UNL     1      -9.412   3.308  70.976  1.00  0.00     0.000 HD 
BRANCH  13  15
HETATM   15  C   UNL     1      -9.185   3.873  69.002  1.00  0.00    -0.153 C  
BRANCH  15  16
HETATM   16  C   UNL     1      -7.920   4.333  68.272  1.00  0.00    -0.078 C  
HETATM   17  O   UNL     1      -6.827   3.838  68.557  1.00  0.00    -0.045 OA 
HETATM   18  N   UNL     1      -8.042   5.277  67.272  1.00  0.00    -0.101 N  
HETATM   19  C   UNL     1      -6.900   5.694  66.485  1.00  0.00    -0.059 C  
HETATM   20  C   UNL     1      -7.196   7.146  66.177  1.00  0.00    -0.074 C  
HETATM   21  C   UNL     1      -8.716   7.193  66.037  1.00  0.00    -0.162 C  
HETATM   22  C   UNL     1      -9.246   6.018  66.883  1.00  0.00    -0.126 C  
HETATM   23  C   UNL     1     -10.187   5.194  66.092  1.00  0.00    -0.222 C  
HETATM   24  N   UNL     1     -10.910   4.548  65.451  1.00  0.00    -0.195 NA 
ENDBRANCH  15  16
ENDBRANCH  13  15
ENDBRANCH  10  13
TORSDOF 3
ENDMDL
MODEL      196
REMARK 921   NORMALIZED FREE ENERGY PREDICTED BY IDOCK:   -3.69 KCAL/MOL
REMARK 922        TOTAL FREE ENERGY PREDICTED BY IDOCK:   -4.98 KCAL/MOL
REMARK 923 INTER-LIGAND FREE ENERGY PREDICTED BY IDOCK:   -4.49 KCAL/MOL
REMARK 924 INTRA-LIGAND FREE ENERGY PREDICTED BY IDOCK:   -0.49 KCAL/MOL
REMARK 927      BINDING AFFINITY PREDICTED BY RF-SCORE:    0.00 PKD
ROOT
HETATM    1  O   UNL     1     -12.678   9.556  70.461  1.00  0.00    -0.504 OA 
HETATM    2  C   UNL     1     -11.806   8.533  70.920  1.00  0.00    -0.217 C  
HETATM    3  H   UNL     1     -12.172  10.300  70.158  1.00  0.00     0.000 HD 
HETATM    4  C   UNL     1     -12.625   7.328  71.409  1.00  0.00    -0.423 C  
HETATM    5  C   UNL     1     -11.685   6.223  71.915  1.00  0.00    -0.370 C  
HETATM    6  C   UNL     1     -10.812   6.774  73.052  1.00  0.00    -0.314 C  
HETATM    7  C   UNL     1      -9.980   7.965  72.548  1.00  0.00    -0.312 C  
HETATM    8  C   UNL     1      -9.089   7.507  71.376  1.00  0.00    -0.145 C  
HETATM    9  C   UNL     1     -10.932   9.067  72.063  1.00  0.00    -0.355 C  
HETATM   10  C   UNL     1      -9.952   6.954  70.205  1.00  0.00    -0.178 C  
HETATM   11  C   UNL     1     -10.905   8.089  69.755  1.00  0.00    -0.194 C  
HETATM   12  C   UNL     1     -10.783   5.765  70.756  1.00  0.00    -0.342 C  
ENDROOT
BRANCH  10  13
HETATM   13  N   UNL     1      -9.031   6.534  69.129  1.00  0.00    -0.130 NA 
HETATM   14  H   UNL     1      -9.140   5.538  68.936  1.00  0.00     0.000 HD 
BRANCH  13  15
HETATM   15  C   UNL     1      -9.152   7.316  67.883  1.00  0.00    -0.132 C  
BRANCH  15  16
HETATM   16  C   UNL     1      -7.832   8.009  67.534  1.00  0.00    -0.118 C  
HETATM   17  O   UNL     1      -7.136   8.498  68.426  1.00  0.00    -0.080 OA 
HETATM   18  N   UNL     1      -7.430   8.036  66.213  1.00  0.00    -0.081 N  
HETATM   19  C   UNL     1      -6.155   8.599  65.824  1.00  0.00    -0.052 C  
HETATM   20  C   UNL     1      -6.429   9.180  64.454  1.00  0.00    -0.079 C  
HETATM   21  C   UNL     1      -7.452   8.224  63.844  1.00  0.00    -0.114 C  
HETATM   22  C   UNL     1      -8.183   7.582  65.039  1.00  0.00    -0.103 C  
HETATM   23  C   UNL     1      -8.195   6.109  64.909  1.00  0.00    -0.125 C  
HETATM   24  N   UNL     1      -8.181   4.952  64.800  1.00  0.00    -0.119 NA 
ENDBRANCH  15  16
ENDBRANCH  13  15
ENDBRANCH  10  13
TORSDOF 3
ENDMDL
MODEL      197
REMARK 921   NORMALIZED FREE ENERGY PREDICTED BY IDOCK:   -3.66 KCAL/MOL
REMARK 922        TOTAL FREE ENERGY PREDICTED BY IDOCK:   -4.94 KCAL/MOL
REMARK 923 INTER-LIGAND FREE ENERGY PREDICTED BY IDOCK:   -4.49 KCAL/MOL
REMARK 924 INTRA-LIGAND FREE ENERGY PREDICTED BY IDOCK:   -0.45 KCAL/MOL
REMARK 927      BINDING AFFINITY PREDICTED BY RF-SCORE:    0.00 PKD
ROOT
HETATM    1  O   UNL     1     -11.251   4.943  65.811  1.00  0.00    -0.844 OA 
HETATM    2  C   UNL     1      -9.916   5.245  66.190  1.00  0.00    -0.165 C  
HETATM    3  H   UNL     1     -11.788   4.823  66.585  1.00  0.00     0.000 HD 
HETATM    4  C   UNL     1      -9.048   5.440  64.936  1.00  0.00     0.062 C  
HETATM    5  C   UNL     1      -7.601   5.759  65.342  1.00  0.00    -0.084 C  
HETATM    6  C   UNL     1      -7.047   4.615  66.204  1.00  0.00    -0.075 C  
HETATM    7  C   UNL     1      -7.908   4.441  67.466  1.00  0.00    -0.085 C  
HETATM    8  C   UNL     1      -7.905   5.755  68.272  1.00  0.00    -0.100 C  
HETATM    9  C   UNL     1      -9.346   4.106  67.046  1.00  0.00    -0.195 C  
HETATM   10  C   UNL     1      -8.473   6.930  67.423  1.00  0.00    -0.121 C  
HETATM   11  C   UNL     1      -9.915   6.547  67.009  1.00  0.00    -0.216 C  
HETATM   12  C   UNL     1      -7.586   7.063  66.157  1.00  0.00    -0.095 C  
ENDROOT
BRANCH  10  13
HETATM   13  N   UNL     1      -8.432   8.147  68.258  1.00  0.00    -0.129 NA 
HETATM   14  H   UNL     1      -8.456   8.981  67.672  1.00  0.00     0.000 HD 
BRANCH  13  15
HETATM   15  C   UNL     1      -9.484   8.214  69.292  1.00  0.00    -0.159 C  
BRANCH  15  16
HETATM   16  C   UNL     1     -10.352   9.463  69.119  1.00  0.00    -0.211 C  
HETATM   17  O   UNL     1     -10.169  10.215  68.159  1.00  0.00    -0.157 OA 
HETATM   18  N   UNL     1     -11.358   9.698  70.034  1.00  0.00    -0.226 N  
HETATM   19  C   UNL     1     -12.269  10.813  69.883  1.00  0.00    -0.313 C  
HETATM   20  C   UNL     1     -12.582  11.208  71.311  1.00  0.00    -0.503 C  
HETATM   21  C   UNL     1     -12.565   9.885  72.074  1.00  0.00    -0.410 C  
HETATM   22  C   UNL     1     -11.639   8.954  71.266  1.00  0.00    -0.304 C  
HETATM   23  C   UNL     1     -12.307   7.660  71.005  1.00  0.00    -0.208 C  
HETATM   24  N   UNL     1     -12.853   6.656  70.795  1.00  0.00     0.047 NA 
ENDBRANCH  15  16
ENDBRANCH  13  15
ENDBRANCH  10  13
TORSDOF 3
ENDMDL
MODEL      198
REMARK 921   NORMALIZED FREE ENERGY PREDICTED BY IDOCK:   -3.65 KCAL/MOL
REMARK 922        TOTAL FREE ENERGY PREDICTED BY IDOCK:   -4.93 KCAL/MOL
REMARK 923 INTER-LIGAND FREE ENERGY PREDICTED BY IDOCK:   -4.46 KCAL/MOL
REMARK 924 INTRA-LIGAND FREE ENERGY PREDICTED BY IDOCK:   -0.47 KCAL/MOL
REMARK 927      BINDING AFFINITY PREDICTED BY RF-SCORE:    0.00 PKD
ROOT
HETATM    1  O   UNL     1      -8.840   8.574  73.437  1.00  0.00    -0.301 OA 
HETATM    2  C   UNL     1      -9.696   7.873  72.547  1.00  0.00    -0.227 C  
HETATM    3  H   UNL     1      -8.117   8.016  73.697  1.00  0.00     0.000 HD 
HETATM    4  C   UNL     1     -10.866   8.779  72.126  1.00  0.00    -0.400 C  
HETATM    5  C   UNL     1     -11.799   8.021  71.169  1.00  0.00    -0.307 C  
HETATM    6  C   UNL     1     -12.325   6.755  71.862  1.00  0.00    -0.369 C  
HETATM    7  C   UNL     1     -11.151   5.846  72.261  1.00  0.00    -0.330 C  
HETATM    8  C   UNL     1     -10.351   5.462  71.000  1.00  0.00    -0.307 C  
HETATM    9  C   UNL     1     -10.237   6.609  73.229  1.00  0.00    -0.256 C  
HETATM   10  C   UNL     1      -9.798   6.728  70.284  1.00  0.00    -0.174 C  
HETATM   11  C   UNL     1      -8.894   7.475  71.297  1.00  0.00    -0.137 C  
HETATM   12  C   UNL     1     -11.010   7.622  69.911  1.00  0.00    -0.208 C  
ENDROOT
BRANCH  10  13
HETATM   13  N   UNL     1      -9.053   6.279  69.091  1.00  0.00    -0.130 NA 
HETATM   14  H   UNL     1      -9.030   5.260  69.048  1.00  0.00     0.000 HD 
BRANCH  13  15
HETATM   15  C   UNL     1      -9.547   6.836  67.817  1.00  0.00    -0.124 C  
BRANCH  15  16
HETATM   16  C   UNL     1      -8.439   6.871  66.760  1.00  0.00    -0.118 C  
HETATM   17  O   UNL     1      -7.556   7.730  66.818  1.00  0.00    -0.094 OA 
HETATM   18  N   UNL     1      -8.436   5.903  65.777  1.00  0.00    -0.142 N  
HETATM   19  C   UNL     1      -7.372   5.826  64.798  1.00  0.00    -0.069 C  
HETATM   20  C   UNL     1      -8.071   5.313  63.557  1.00  0.00    -0.115 C  
HETATM   21  C   UNL     1      -9.149   4.376  64.099  1.00  0.00    -0.149 C  
HETATM   22  C   UNL     1      -9.457   4.880  65.524  1.00  0.00    -0.145 C  
HETATM   23  C   UNL     1      -9.393   3.765  66.492  1.00  0.00    -0.190 C  
HETATM   24  N   UNL     1      -9.321   2.880  67.243  1.00  0.00    -0.170 NA 
ENDBRANCH  15  16
ENDBRANCH  13  15
ENDBRANCH  10  13
TORSDOF 3
ENDMDL
MODEL      199
REMARK 921   NORMALIZED FREE ENERGY PREDICTED BY IDOCK:   -3.64 KCAL/MOL
REMARK 922        TOTAL FREE ENERGY PREDICTED BY IDOCK:   -4.93 KCAL/MOL
REMARK 923 INTER-LIGAND FREE ENERGY PREDICTED BY IDOCK:   -4.50 KCAL/MOL
REMARK 924 INTRA-LIGAND FREE ENERGY PREDICTED BY IDOCK:   -0.43 KCAL/MOL
REMARK 927      BINDING AFFINITY PREDICTED BY RF-SCORE:    0.00 PKD
ROOT
HETATM    1  O   UNL     1      -7.855   7.835  68.408  1.00  0.00    -0.116 OA 
HETATM    2  C   UNL     1      -7.929   8.566  67.192  1.00  0.00    -0.101 C  
HETATM    3  H   UNL     1      -7.148   8.172  68.944  1.00  0.00     0.000 HD 
HETATM    4  C   UNL     1      -9.075   8.019  66.323  1.00  0.00    -0.232 C  
HETATM    5  C   UNL     1      -9.153   8.802  65.003  1.00  0.00    -0.047 C  
HETATM    6  C   UNL     1      -7.815   8.685  64.259  1.00  0.00    -0.140 C  
HETATM    7  C   UNL     1      -6.679   9.252  65.125  1.00  0.00    -0.077 C  
HETATM    8  C   UNL     1      -6.973  10.731  65.450  1.00  0.00     0.070 C  
HETATM    9  C   UNL     1      -6.600   8.451  66.432  1.00  0.00    -0.058 C  
HETATM   10  C   UNL     1      -8.320  10.875  66.215  1.00  0.00    -0.164 C  
HETATM   11  C   UNL     1      -8.205  10.043  67.516  1.00  0.00    -0.114 C  
HETATM   12  C   UNL     1      -9.436  10.281  65.314  1.00  0.00    -0.296 C  
ENDROOT
BRANCH  10  13
HETATM   13  N   UNL     1      -8.532  12.312  66.483  1.00  0.00    -0.393 NA 
HETATM   14  H   UNL     1      -7.991  12.879  65.831  1.00  0.00     0.000 HD 
BRANCH  13  15
HETATM   15  C   UNL     1      -9.947  12.732  66.479  1.00  0.00    -0.253 C  
BRANCH  15  16
HETATM   16  C   UNL     1     -10.079  14.229  66.184  1.00  0.00    -0.313 C  
HETATM   17  O   UNL     1     -10.177  14.623  65.020  1.00  0.00    -0.401 OA 
HETATM   18  N   UNL     1     -10.125  15.108  67.247  1.00  0.00    -0.234 N  
HETATM   19  C   UNL     1     -10.333  16.527  67.044  1.00  0.00    -0.301 C  
HETATM   20  C   UNL     1      -9.539  17.164  68.164  1.00  0.00    -0.270 C  
HETATM   21  C   UNL     1      -9.675  16.177  69.322  1.00  0.00    -0.242 C  
HETATM   22  C   UNL     1      -9.932  14.805  68.669  1.00  0.00    -0.232 C  
HETATM   23  C   UNL     1     -11.115  14.157  69.275  1.00  0.00    -0.250 C  
HETATM   24  N   UNL     1     -12.058  13.670  69.750  1.00  0.00    -0.336 NA 
ENDBRANCH  15  16
ENDBRANCH  13  15
ENDBRANCH  10  13
TORSDOF 3
ENDMDL
MODEL      200
REMARK 921   NORMALIZED FREE ENERGY PREDICTED BY IDOCK:   -3.64 KCAL/MOL
REMARK 922        TOTAL FREE ENERGY PREDICTED BY IDOCK:   -4.92 KCAL/MOL
REMARK 923 INTER-LIGAND FREE ENERGY PREDICTED BY IDOCK:   -4.45 KCAL/MOL
REMARK 924 INTRA-LIGAND FREE ENERGY PREDICTED BY IDOCK:   -0.47 KCAL/MOL
REMARK 927      BINDING AFFINITY PREDICTED BY RF-SCORE:    0.00 PKD
ROOT
HETATM    1  O   UNL     1     -11.961  12.444  69.581  1.00  0.00    -0.304 OA 
HETATM    2  C   UNL     1     -10.948  12.040  68.670  1.00  0.00    -0.240 C  
HETATM    3  H   UNL     1     -12.549  11.718  69.752  1.00  0.00     0.000 HD 
HETATM    4  C   UNL     1      -9.996  13.216  68.393  1.00  0.00    -0.223 C  
HETATM    5  C   UNL     1      -8.904  12.785  67.402  1.00  0.00    -0.190 C  
HETATM    6  C   UNL     1      -9.557  12.306  66.097  1.00  0.00    -0.248 C  
HETATM    7  C   UNL     1     -10.490  11.118  66.379  1.00  0.00    -0.311 C  
HETATM    8  C   UNL     1      -9.679   9.970  67.014  1.00  0.00    -0.227 C  
HETATM    9  C   UNL     1     -11.586  11.566  67.356  1.00  0.00    -0.307 C  
HETATM   10  C   UNL     1      -9.016  10.428  68.345  1.00  0.00    -0.137 C  
HETATM   11  C   UNL     1     -10.150  10.883  69.296  1.00  0.00    -0.164 C  
HETATM   12  C   UNL     1      -8.094  11.632  68.019  1.00  0.00    -0.139 C  
ENDROOT
BRANCH  10  13
HETATM   13  N   UNL     1      -8.258   9.281  68.885  1.00  0.00    -0.110 NA 
HETATM   14  H   UNL     1      -8.210   9.333  69.902  1.00  0.00     0.000 HD 
BRANCH  13  15
HETATM   15  C   UNL     1      -8.763   7.960  68.461  1.00  0.00    -0.131 C  
BRANCH  15  16
HETATM   16  C   UNL     1      -9.392   7.205  69.635  1.00  0.00    -0.149 C  
HETATM   17  O   UNL     1      -9.703   7.809  70.663  1.00  0.00    -0.177 OA 
HETATM   18  N   UNL     1      -9.633   5.853  69.495  1.00  0.00    -0.137 N  
HETATM   19  C   UNL     1     -10.301   5.095  70.532  1.00  0.00    -0.243 C  
HETATM   20  C   UNL     1      -9.667   3.724  70.431  1.00  0.00    -0.225 C  
HETATM   21  C   UNL     1      -9.387   3.555  68.939  1.00  0.00    -0.236 C  
HETATM   22  C   UNL     1      -9.241   4.984  68.380  1.00  0.00    -0.120 C  
HETATM   23  C   UNL     1     -10.102   5.165  67.192  1.00  0.00    -0.206 C  
HETATM   24  N   UNL     1     -10.797   5.296  66.269  1.00  0.00    -0.227 NA 
ENDBRANCH  15  16
ENDBRANCH  13  15
ENDBRANCH  10  13
TORSDOF 3
ENDMDL
MODEL      201
REMARK 921   NORMALIZED FREE ENERGY PREDICTED BY IDOCK:   -3.62 KCAL/MOL
REMARK 922        TOTAL FREE ENERGY PREDICTED BY IDOCK:   -4.89 KCAL/MOL
REMARK 923 INTER-LIGAND FREE ENERGY PREDICTED BY IDOCK:   -4.80 KCAL/MOL
REMARK 924 INTRA-LIGAND FREE ENERGY PREDICTED BY IDOCK:   -0.09 KCAL/MOL
REMARK 927      BINDING AFFINITY PREDICTED BY RF-SCORE:    0.00 PKD
ROOT
HETATM    1  O   UNL     1     -10.850   7.170  73.034  1.00  0.00    -0.280 OA 
HETATM    2  C   UNL     1     -10.366   7.784  71.848  1.00  0.00    -0.207 C  
HETATM    3  H   UNL     1     -11.084   7.836  73.669  1.00  0.00     0.000 HD 
HETATM    4  C   UNL     1      -9.988   6.706  70.819  1.00  0.00    -0.201 C  
HETATM    5  C   UNL     1      -9.455   7.365  69.537  1.00  0.00    -0.155 C  
HETATM    6  C   UNL     1      -8.234   8.233  69.877  1.00  0.00    -0.123 C  
HETATM    7  C   UNL     1      -8.626   9.321  70.890  1.00  0.00    -0.220 C  
HETATM    8  C   UNL     1      -9.743  10.198  70.291  1.00  0.00     0.021 C  
HETATM    9  C   UNL     1      -9.139   8.648  72.171  1.00  0.00    -0.301 C  
HETATM   10  C   UNL     1     -10.998   9.343  69.948  1.00  0.00    -0.229 C  
HETATM   11  C   UNL     1     -11.475   8.673  71.260  1.00  0.00    -0.341 C  
HETATM   12  C   UNL     1     -10.558   8.253  68.935  1.00  0.00    -0.160 C  
ENDROOT
BRANCH  10  13
HETATM   13  N   UNL     1     -12.015  10.249  69.378  1.00  0.00    -0.513 NA 
HETATM   14  H   UNL     1     -12.938  10.029  69.752  1.00  0.00     0.000 HD 
BRANCH  13  15
HETATM   15  C   UNL     1     -11.720  11.685  69.551  1.00  0.00    -0.344 C  
BRANCH  15  16
HETATM   16  C   UNL     1     -12.370  12.235  70.825  1.00  0.00    -0.290 C  
HETATM   17  O   UNL     1     -12.891  11.465  71.634  1.00  0.00    -0.420 OA 
HETATM   18  N   UNL     1     -12.323  13.595  71.054  1.00  0.00    -0.368 N  
HETATM   19  C   UNL     1     -12.842  14.172  72.276  1.00  0.00    -0.331 C  
HETATM   20  C   UNL     1     -13.358  15.525  71.836  1.00  0.00    -0.569 C  
HETATM   21  C   UNL     1     -12.391  15.949  70.733  1.00  0.00    -0.342 C  
HETATM   22  C   UNL     1     -11.824  14.638  70.152  1.00  0.00    -0.307 C  
HETATM   23  C   UNL     1     -10.347  14.689  70.106  1.00  0.00     0.302 C  
HETATM   24  N   UNL     1      -9.186  14.738  70.093  1.00  0.00     0.577 NA 
ENDBRANCH  15  16
ENDBRANCH  13  15
ENDBRANCH  10  13
TORSDOF 3
ENDMDL
MODEL      202
REMARK 921   NORMALIZED FREE ENERGY PREDICTED BY IDOCK:   -3.59 KCAL/MOL
REMARK 922        TOTAL FREE ENERGY PREDICTED BY IDOCK:   -4.86 KCAL/MOL
REMARK 923 INTER-LIGAND FREE ENERGY PREDICTED BY IDOCK:   -4.25 KCAL/MOL
REMARK 924 INTRA-LIGAND FREE ENERGY PREDICTED BY IDOCK:   -0.61 KCAL/MOL
REMARK 927      BINDING AFFINITY PREDICTED BY RF-SCORE:    0.00 PKD
ROOT
HETATM    1  O   UNL     1     -10.940  12.803  69.583  1.00  0.00    -0.458 OA 
HETATM    2  C   UNL     1     -10.340  12.113  68.496  1.00  0.00    -0.221 C  
HETATM    3  H   UNL     1     -11.411  12.190  70.134  1.00  0.00     0.000 HD 
HETATM    4  C   UNL     1      -9.576  13.106  67.604  1.00  0.00    -0.210 C  
HETATM    5  C   UNL     1      -8.933  12.365  66.422  1.00  0.00    -0.101 C  
HETATM    6  C   UNL     1     -10.024  11.648  65.613  1.00  0.00    -0.274 C  
HETATM    7  C   UNL     1     -10.768  10.642  66.506  1.00  0.00    -0.218 C  
HETATM    8  C   UNL     1      -9.764   9.612  67.063  1.00  0.00    -0.232 C  
HETATM    9  C   UNL     1     -11.420  11.398  67.672  1.00  0.00    -0.348 C  
HETATM   10  C   UNL     1      -8.653  10.314  67.897  1.00  0.00    -0.118 C  
HETATM   11  C   UNL     1      -9.352  11.074  69.052  1.00  0.00    -0.105 C  
HETATM   12  C   UNL     1      -7.937  11.326  66.966  1.00  0.00    -0.150 C  
ENDROOT
BRANCH  10  13
HETATM   13  N   UNL     1      -7.734   9.268  68.389  1.00  0.00    -0.089 NA 
HETATM   14  H   UNL     1      -7.325   9.544  69.282  1.00  0.00     0.000 HD 
BRANCH  13  15
HETATM   15  C   UNL     1      -8.338   7.925  68.494  1.00  0.00    -0.128 C  
BRANCH  15  16
HETATM   16  C   UNL     1      -7.866   7.202  69.760  1.00  0.00    -0.118 C  
HETATM   17  O   UNL     1      -6.667   7.173  70.043  1.00  0.00    -0.049 OA 
HETATM   18  N   UNL     1      -8.814   6.628  70.582  1.00  0.00    -0.147 N  
HETATM   19  C   UNL     1      -8.446   6.003  71.835  1.00  0.00    -0.133 C  
HETATM   20  C   UNL     1      -9.450   4.879  71.977  1.00  0.00    -0.185 C  
HETATM   21  C   UNL     1     -10.725   5.439  71.349  1.00  0.00    -0.258 C  
HETATM   22  C   UNL     1     -10.255   6.502  70.336  1.00  0.00    -0.193 C  
HETATM   23  C   UNL     1     -10.978   7.774  70.548  1.00  0.00    -0.245 C  
HETATM   24  N   UNL     1     -11.543   8.772  70.740  1.00  0.00    -0.275 NA 
ENDBRANCH  15  16
ENDBRANCH  13  15
ENDBRANCH  10  13
TORSDOF 3
ENDMDL
MODEL      203
REMARK 921   NORMALIZED FREE ENERGY PREDICTED BY IDOCK:   -3.59 KCAL/MOL
REMARK 922        TOTAL FREE ENERGY PREDICTED BY IDOCK:   -4.86 KCAL/MOL
REMARK 923 INTER-LIGAND FREE ENERGY PREDICTED BY IDOCK:   -4.34 KCAL/MOL
REMARK 924 INTRA-LIGAND FREE ENERGY PREDICTED BY IDOCK:   -0.51 KCAL/MOL
REMARK 927      BINDING AFFINITY PREDICTED BY RF-SCORE:    0.00 PKD
ROOT
HETATM    1  O   UNL     1      -7.757   4.694  67.620  1.00  0.00    -0.084 OA 
HETATM    2  C   UNL     1      -8.283   5.174  68.849  1.00  0.00    -0.088 C  
HETATM    3  H   UNL     1      -8.373   4.861  66.918  1.00  0.00     0.000 HD 
HETATM    4  C   UNL     1      -7.284   4.903  69.987  1.00  0.00    -0.054 C  
HETATM    5  C   UNL     1      -7.853   5.413  71.319  1.00  0.00    -0.109 C  
HETATM    6  C   UNL     1      -9.192   4.717  71.605  1.00  0.00    -0.183 C  
HETATM    7  C   UNL     1     -10.191   5.010  70.474  1.00  0.00    -0.316 C  
HETATM    8  C   UNL     1     -10.404   6.534  70.363  1.00  0.00    -0.237 C  
HETATM    9  C   UNL     1      -9.618   4.480  69.153  1.00  0.00    -0.251 C  
HETATM   10  C   UNL     1      -9.062   7.262  70.063  1.00  0.00    -0.148 C  
HETATM   11  C   UNL     1      -8.512   6.691  68.733  1.00  0.00    -0.123 C  
HETATM   12  C   UNL     1      -8.081   6.931  71.218  1.00  0.00    -0.110 C  
ENDROOT
BRANCH  10  13
HETATM   13  N   UNL     1      -9.348   8.709  69.977  1.00  0.00    -0.158 NA 
HETATM   14  H   UNL     1      -8.575   9.198  69.524  1.00  0.00     0.000 HD 
BRANCH  13  15
HETATM   15  C   UNL     1     -10.625   9.041  69.315  1.00  0.00    -0.213 C  
BRANCH  15  16
HETATM   16  C   UNL     1     -11.229  10.326  69.889  1.00  0.00    -0.299 C  
HETATM   17  O   UNL     1     -11.798  10.305  70.983  1.00  0.00    -0.336 OA 
HETATM   18  N   UNL     1     -11.085  11.498  69.175  1.00  0.00    -0.246 N  
HETATM   19  C   UNL     1     -11.558  12.762  69.699  1.00  0.00    -0.252 C  
HETATM   20  C   UNL     1     -11.980  13.522  68.460  1.00  0.00    -0.379 C  
HETATM   21  C   UNL     1     -10.990  13.065  67.390  1.00  0.00    -0.284 C  
HETATM   22  C   UNL     1     -10.519  11.665  67.833  1.00  0.00    -0.192 C  
HETATM   23  C   UNL     1      -9.042  11.590  67.828  1.00  0.00    -0.165 C  
HETATM   24  N   UNL     1      -7.880  11.554  67.835  1.00  0.00    -0.117 NA 
ENDBRANCH  15  16
ENDBRANCH  13  15
ENDBRANCH  10  13
TORSDOF 3
ENDMDL
MODEL      204
REMARK 921   NORMALIZED FREE ENERGY PREDICTED BY IDOCK:   -3.57 KCAL/MOL
REMARK 922        TOTAL FREE ENERGY PREDICTED BY IDOCK:   -4.83 KCAL/MOL
REMARK 923 INTER-LIGAND FREE ENERGY PREDICTED BY IDOCK:   -4.12 KCAL/MOL
REMARK 924 INTRA-LIGAND FREE ENERGY PREDICTED BY IDOCK:   -0.72 KCAL/MOL
REMARK 927      BINDING AFFINITY PREDICTED BY RF-SCORE:    0.00 PKD
ROOT
HETATM    1  O   UNL     1     -11.297   4.469  65.402  1.00  0.00    -0.937 OA 
HETATM    2  C   UNL     1     -10.378   5.199  66.202  1.00  0.00    -0.236 C  
HETATM    3  H   UNL     1     -12.086   4.290  65.900  1.00  0.00     0.000 HD 
HETATM    4  C   UNL     1      -9.100   5.488  65.396  1.00  0.00    -0.064 C  
HETATM    5  C   UNL     1      -8.099   6.271  66.260  1.00  0.00    -0.114 C  
HETATM    6  C   UNL     1      -7.765   5.458  67.520  1.00  0.00    -0.092 C  
HETATM    7  C   UNL     1      -9.044   5.192  68.330  1.00  0.00    -0.131 C  
HETATM    8  C   UNL     1      -9.688   6.537  68.727  1.00  0.00    -0.131 C  
HETATM    9  C   UNL     1     -10.028   4.395  67.462  1.00  0.00    -0.126 C  
HETATM   10  C   UNL     1     -10.046   7.375  67.465  1.00  0.00    -0.192 C  
HETATM   11  C   UNL     1     -11.026   6.532  66.612  1.00  0.00    -0.163 C  
HETATM   12  C   UNL     1      -8.734   7.610  66.671  1.00  0.00    -0.150 C  
ENDROOT
BRANCH  10  13
HETATM   13  N   UNL     1     -10.649   8.642  67.926  1.00  0.00    -0.404 NA 
HETATM   14  H   UNL     1     -11.665   8.558  67.968  1.00  0.00     0.000 HD 
BRANCH  13  15
HETATM   15  C   UNL     1     -10.120   9.138  69.211  1.00  0.00    -0.194 C  
BRANCH  15  16
HETATM   16  C   UNL     1      -9.144  10.299  68.998  1.00  0.00    -0.183 C  
HETATM   17  O   UNL     1      -9.537  11.350  68.485  1.00  0.00    -0.185 OA 
HETATM   18  N   UNL     1      -7.841  10.152  69.426  1.00  0.00    -0.135 N  
HETATM   19  C   UNL     1      -6.889  11.239  69.332  1.00  0.00    -0.121 C  
HETATM   20  C   UNL     1      -5.572  10.534  69.085  1.00  0.00    -0.041 C  
HETATM   21  C   UNL     1      -5.695   9.232  69.874  1.00  0.00    -0.031 C  
HETATM   22  C   UNL     1      -7.207   8.944  69.966  1.00  0.00    -0.054 C  
HETATM   23  C   UNL     1      -7.599   8.677  71.366  1.00  0.00    -0.112 C  
HETATM   24  N   UNL     1      -7.893   8.487  72.475  1.00  0.00    -0.323 NA 
ENDBRANCH  15  16
ENDBRANCH  13  15
ENDBRANCH  10  13
TORSDOF 3
ENDMDL
MODEL      205
REMARK 921   NORMALIZED FREE ENERGY PREDICTED BY IDOCK:   -3.56 KCAL/MOL
REMARK 922        TOTAL FREE ENERGY PREDICTED BY IDOCK:   -4.82 KCAL/MOL
REMARK 923 INTER-LIGAND FREE ENERGY PREDICTED BY IDOCK:   -4.51 KCAL/MOL
REMARK 924 INTRA-LIGAND FREE ENERGY PREDICTED BY IDOCK:   -0.32 KCAL/MOL
REMARK 927      BINDING AFFINITY PREDICTED BY RF-SCORE:    0.00 PKD
ROOT
HETATM    1  O   UNL     1      -5.311   8.300  67.537  1.00  0.00    -0.032 OA 
HETATM    2  C   UNL     1      -6.640   8.012  67.128  1.00  0.00    -0.057 C  
HETATM    3  H   UNL     1      -4.929   8.950  66.960  1.00  0.00     0.000 HD 
HETATM    4  C   UNL     1      -7.259   6.959  68.063  1.00  0.00    -0.091 C  
HETATM    5  C   UNL     1      -8.694   6.639  67.619  1.00  0.00    -0.118 C  
HETATM    6  C   UNL     1      -8.678   6.125  66.171  1.00  0.00    -0.149 C  
HETATM    7  C   UNL     1      -8.079   7.190  65.240  1.00  0.00    -0.134 C  
HETATM    8  C   UNL     1      -8.919   8.480  65.331  1.00  0.00    -0.150 C  
HETATM    9  C   UNL     1      -6.640   7.488  65.684  1.00  0.00    -0.045 C  
HETATM   10  C   UNL     1      -8.941   9.028  66.787  1.00  0.00    -0.135 C  
HETATM   11  C   UNL     1      -7.474   9.302  67.202  1.00  0.00    -0.091 C  
HETATM   12  C   UNL     1      -9.540   7.921  67.694  1.00  0.00    -0.183 C  
ENDROOT
BRANCH  10  13
HETATM   13  N   UNL     1      -9.764  10.254  66.792  1.00  0.00    -0.179 NA 
HETATM   14  H   UNL     1     -10.247  10.355  67.685  1.00  0.00     0.000 HD 
BRANCH  13  15
HETATM   15  C   UNL     1      -9.024  11.488  66.466  1.00  0.00    -0.189 C  
BRANCH  15  16
HETATM   16  C   UNL     1      -9.979  12.663  66.233  1.00  0.00    -0.258 C  
HETATM   17  O   UNL     1      -9.960  13.634  66.992  1.00  0.00    -0.239 OA 
HETATM   18  N   UNL     1     -10.823  12.619  65.142  1.00  0.00    -0.283 N  
HETATM   19  C   UNL     1     -11.691  13.731  64.816  1.00  0.00    -0.381 C  
HETATM   20  C   UNL     1     -12.907  13.064  64.212  1.00  0.00    -0.125 C  
HETATM   21  C   UNL     1     -12.339  11.849  63.481  1.00  0.00    -0.603 C  
HETATM   22  C   UNL     1     -11.024  11.506  64.209  1.00  0.00    -0.341 C  
HETATM   23  C   UNL     1      -9.916  11.372  63.240  1.00  0.00    -0.401 C  
HETATM   24  N   UNL     1      -9.052  11.287  62.466  1.00  0.00    -0.320 NA 
ENDBRANCH  15  16
ENDBRANCH  13  15
ENDBRANCH  10  13
TORSDOF 3
ENDMDL
MODEL      206
REMARK 921   NORMALIZED FREE ENERGY PREDICTED BY IDOCK:   -3.54 KCAL/MOL
REMARK 922        TOTAL FREE ENERGY PREDICTED BY IDOCK:   -4.80 KCAL/MOL
REMARK 923 INTER-LIGAND FREE ENERGY PREDICTED BY IDOCK:   -4.33 KCAL/MOL
REMARK 924 INTRA-LIGAND FREE ENERGY PREDICTED BY IDOCK:   -0.47 KCAL/MOL
REMARK 927      BINDING AFFINITY PREDICTED BY RF-SCORE:    0.00 PKD
ROOT
HETATM    1  O   UNL     1     -12.769   9.407  70.541  1.00  0.00    -0.500 OA 
HETATM    2  C   UNL     1     -11.834   8.415  70.944  1.00  0.00    -0.217 C  
HETATM    3  H   UNL     1     -12.309  10.193  70.271  1.00  0.00     0.000 HD 
HETATM    4  C   UNL     1     -12.579   7.142  71.380  1.00  0.00    -0.432 C  
HETATM    5  C   UNL     1     -11.572   6.071  71.825  1.00  0.00    -0.288 C  
HETATM    6  C   UNL     1     -10.721   6.616  72.981  1.00  0.00    -0.299 C  
HETATM    7  C   UNL     1      -9.964   7.876  72.531  1.00  0.00    -0.312 C  
HETATM    8  C   UNL     1      -9.059   7.527  71.332  1.00  0.00    -0.145 C  
HETATM    9  C   UNL     1     -10.982   8.943  72.106  1.00  0.00    -0.349 C  
HETATM   10  C   UNL     1      -9.900   6.982  70.141  1.00  0.00    -0.175 C  
HETATM   11  C   UNL     1     -10.921   8.080  69.753  1.00  0.00    -0.138 C  
HETATM   12  C   UNL     1     -10.656   5.722  70.639  1.00  0.00    -0.346 C  
ENDROOT
BRANCH  10  13
HETATM   13  N   UNL     1      -8.967   6.668  69.040  1.00  0.00    -0.131 NA 
HETATM   14  H   UNL     1      -8.022   6.972  69.277  1.00  0.00     0.000 HD 
BRANCH  13  15
HETATM   15  C   UNL     1      -8.962   5.251  68.628  1.00  0.00    -0.107 C  
BRANCH  15  16
HETATM   16  C   UNL     1      -9.313   5.104  67.145  1.00  0.00    -0.124 C  
HETATM   17  O   UNL     1     -10.491   5.007  66.795  1.00  0.00    -0.251 OA 
HETATM   18  N   UNL     1      -8.288   5.122  66.221  1.00  0.00    -0.112 N  
HETATM   19  C   UNL     1      -8.554   5.073  64.798  1.00  0.00    -0.150 C  
HETATM   20  C   UNL     1      -7.367   4.314  64.244  1.00  0.00    -0.070 C  
HETATM   21  C   UNL     1      -6.205   4.736  65.141  1.00  0.00    -0.034 C  
HETATM   22  C   UNL     1      -6.845   5.140  66.484  1.00  0.00    -0.062 C  
HETATM   23  C   UNL     1      -6.363   6.473  66.906  1.00  0.00    -0.041 C  
HETATM   24  N   UNL     1      -5.987   7.529  67.215  1.00  0.00    -0.045 NA 
ENDBRANCH  15  16
ENDBRANCH  13  15
ENDBRANCH  10  13
TORSDOF 3
ENDMDL
MODEL      207
REMARK 921   NORMALIZED FREE ENERGY PREDICTED BY IDOCK:   -3.54 KCAL/MOL
REMARK 922        TOTAL FREE ENERGY PREDICTED BY IDOCK:   -4.80 KCAL/MOL
REMARK 923 INTER-LIGAND FREE ENERGY PREDICTED BY IDOCK:   -4.23 KCAL/MOL
REMARK 924 INTRA-LIGAND FREE ENERGY PREDICTED BY IDOCK:   -0.57 KCAL/MOL
REMARK 927      BINDING AFFINITY PREDICTED BY RF-SCORE:    0.00 PKD
ROOT
HETATM    1  O   UNL     1     -11.336  15.692  67.544  1.00  0.00    -0.300 OA 
HETATM    2  C   UNL     1     -10.122  16.428  67.569  1.00  0.00    -0.261 C  
HETATM    3  H   UNL     1     -11.349  15.115  66.790  1.00  0.00     0.000 HD 
HETATM    4  C   UNL     1     -10.101  17.362  68.791  1.00  0.00    -0.346 C  
HETATM    5  C   UNL     1      -8.793  18.166  68.816  1.00  0.00    -0.227 C  
HETATM    6  C   UNL     1      -8.666  18.979  67.519  1.00  0.00    -0.315 C  
HETATM    7  C   UNL     1      -8.666  18.037  66.305  1.00  0.00    -0.194 C  
HETATM    8  C   UNL     1      -7.487  17.050  66.423  1.00  0.00    -0.336 C  
HETATM    9  C   UNL     1      -9.985  17.253  66.281  1.00  0.00    -0.311 C  
HETATM   10  C   UNL     1      -7.598  16.205  67.726  1.00  0.00    -0.138 C  
HETATM   11  C   UNL     1      -8.945  15.442  67.670  1.00  0.00    -0.185 C  
HETATM   12  C   UNL     1      -7.608  17.191  68.924  1.00  0.00    -0.234 C  
ENDROOT
BRANCH  10  13
HETATM   13  N   UNL     1      -6.438  15.293  67.769  1.00  0.00    -0.147 NA 
HETATM   14  H   UNL     1      -5.909  15.430  68.630  1.00  0.00     0.000 HD 
BRANCH  13  15
HETATM   15  C   UNL     1      -6.775  13.867  67.594  1.00  0.00    -0.175 C  
BRANCH  15  16
HETATM   16  C   UNL     1      -6.281  13.031  68.779  1.00  0.00    -0.079 C  
HETATM   17  O   UNL     1      -5.376  13.457  69.500  1.00  0.00    -0.082 OA 
HETATM   18  N   UNL     1      -6.895  11.822  69.034  1.00  0.00    -0.099 N  
HETATM   19  C   UNL     1      -6.535  11.022  70.186  1.00  0.00    -0.128 C  
HETATM   20  C   UNL     1      -6.729   9.601  69.702  1.00  0.00    -0.054 C  
HETATM   21  C   UNL     1      -7.915   9.694  68.744  1.00  0.00    -0.089 C  
HETATM   22  C   UNL     1      -7.912  11.145  68.222  1.00  0.00    -0.127 C  
HETATM   23  C   UNL     1      -9.252  11.752  68.373  1.00  0.00    -0.175 C  
HETATM   24  N   UNL     1     -10.307  12.219  68.514  1.00  0.00    -0.230 NA 
ENDBRANCH  15  16
ENDBRANCH  13  15
ENDBRANCH  10  13
TORSDOF 3
ENDMDL
MODEL      208
REMARK 921   NORMALIZED FREE ENERGY PREDICTED BY IDOCK:   -3.50 KCAL/MOL
REMARK 922        TOTAL FREE ENERGY PREDICTED BY IDOCK:   -4.75 KCAL/MOL
REMARK 923 INTER-LIGAND FREE ENERGY PREDICTED BY IDOCK:   -4.22 KCAL/MOL
REMARK 924 INTRA-LIGAND FREE ENERGY PREDICTED BY IDOCK:   -0.53 KCAL/MOL
REMARK 927      BINDING AFFINITY PREDICTED BY RF-SCORE:    0.00 PKD
ROOT
HETATM    1  O   UNL     1     -13.300   9.199  71.117  1.00  0.00    -0.518 OA 
HETATM    2  C   UNL     1     -12.240   8.299  71.407  1.00  0.00    -0.299 C  
HETATM    3  H   UNL     1     -12.947  10.036  70.841  1.00  0.00     0.000 HD 
HETATM    4  C   UNL     1     -12.812   6.943  71.853  1.00  0.00    -0.290 C  
HETATM    5  C   UNL     1     -11.668   5.970  72.176  1.00  0.00    -0.335 C  
HETATM    6  C   UNL     1     -10.784   6.567  73.280  1.00  0.00    -0.300 C  
HETATM    7  C   UNL     1     -10.199   7.911  72.818  1.00  0.00    -0.380 C  
HETATM    8  C   UNL     1      -9.366   7.694  71.538  1.00  0.00    -0.157 C  
HETATM    9  C   UNL     1     -11.351   8.879  72.516  1.00  0.00    -0.011 C  
HETATM   10  C   UNL     1     -10.244   7.098  70.399  1.00  0.00    -0.193 C  
HETATM   11  C   UNL     1     -11.399   8.095  70.135  1.00  0.00    -0.071 C  
HETATM   12  C   UNL     1     -10.823   5.752  70.909  1.00  0.00    -0.326 C  
ENDROOT
BRANCH  10  13
HETATM   13  N   UNL     1      -9.379   6.915  69.216  1.00  0.00    -0.145 NA 
HETATM   14  H   UNL     1      -9.921   7.021  68.359  1.00  0.00     0.000 HD 
BRANCH  13  15
HETATM   15  C   UNL     1      -8.193   7.793  69.185  1.00  0.00    -0.129 C  
BRANCH  15  16
HETATM   16  C   UNL     1      -8.335   8.880  68.115  1.00  0.00    -0.125 C  
HETATM   17  O   UNL     1      -9.355   8.937  67.425  1.00  0.00    -0.133 OA 
HETATM   18  N   UNL     1      -7.320   9.804  67.976  1.00  0.00    -0.081 N  
HETATM   19  C   UNL     1      -7.427  10.907  67.044  1.00  0.00    -0.122 C  
HETATM   20  C   UNL     1      -6.000  11.125  66.590  1.00  0.00    -0.130 C  
HETATM   21  C   UNL     1      -5.164  10.794  67.825  1.00  0.00    -0.039 C  
HETATM   22  C   UNL     1      -6.019   9.815  68.654  1.00  0.00    -0.042 C  
HETATM   23  C   UNL     1      -6.116  10.272  70.057  1.00  0.00    -0.071 C  
HETATM   24  N   UNL     1      -6.196  10.654  71.152  1.00  0.00    -0.326 NA 
ENDBRANCH  15  16
ENDBRANCH  13  15
ENDBRANCH  10  13
TORSDOF 3
ENDMDL
MODEL      209
REMARK 921   NORMALIZED FREE ENERGY PREDICTED BY IDOCK:   -3.47 KCAL/MOL
REMARK 922        TOTAL FREE ENERGY PREDICTED BY IDOCK:   -4.72 KCAL/MOL
REMARK 923 INTER-LIGAND FREE ENERGY PREDICTED BY IDOCK:   -4.33 KCAL/MOL
REMARK 924 INTRA-LIGAND FREE ENERGY PREDICTED BY IDOCK:   -0.39 KCAL/MOL
REMARK 927      BINDING AFFINITY PREDICTED BY RF-SCORE:    0.00 PKD
ROOT
HETATM    1  O   UNL     1     -14.303   6.555  72.371  1.00  0.00    -0.701 OA 
HETATM    2  C   UNL     1     -12.978   6.963  72.060  1.00  0.00    -0.133 C  
HETATM    3  H   UNL     1     -14.926   7.097  71.903  1.00  0.00     0.000 HD 
HETATM    4  C   UNL     1     -11.969   6.084  72.819  1.00  0.00     0.001 C  
HETATM    5  C   UNL     1     -10.535   6.528  72.492  1.00  0.00    -0.229 C  
HETATM    6  C   UNL     1     -10.355   8.004  72.878  1.00  0.00    -0.397 C  
HETATM    7  C   UNL     1     -11.353   8.877  72.101  1.00  0.00    -0.369 C  
HETATM    8  C   UNL     1     -11.118   8.698  70.587  1.00  0.00    -0.282 C  
HETATM    9  C   UNL     1     -12.781   8.435  72.449  1.00  0.00    -0.346 C  
HETATM   10  C   UNL     1     -11.305   7.211  70.168  1.00  0.00    -0.241 C  
HETATM   11  C   UNL     1     -12.750   6.800  70.548  1.00  0.00     0.202 C  
HETATM   12  C   UNL     1     -10.292   6.364  70.982  1.00  0.00    -0.247 C  
ENDROOT
BRANCH  10  13
HETATM   13  N   UNL     1     -11.061   7.121  68.714  1.00  0.00    -0.462 NA 
HETATM   14  H   UNL     1     -11.392   7.963  68.245  1.00  0.00     0.000 HD 
BRANCH  13  15
HETATM   15  C   UNL     1      -9.658   6.846  68.347  1.00  0.00    -0.126 C  
BRANCH  15  16
HETATM   16  C   UNL     1      -9.441   6.992  66.838  1.00  0.00    -0.160 C  
HETATM   17  O   UNL     1      -9.769   8.033  66.265  1.00  0.00    -0.202 OA 
HETATM   18  N   UNL     1      -8.840   5.954  66.155  1.00  0.00    -0.143 N  
HETATM   19  C   UNL     1      -8.529   6.059  64.745  1.00  0.00    -0.031 C  
HETATM   20  C   UNL     1      -8.697   4.642  64.240  1.00  0.00    -0.148 C  
HETATM   21  C   UNL     1      -8.246   3.774  65.414  1.00  0.00    -0.101 C  
HETATM   22  C   UNL     1      -8.479   4.631  66.675  1.00  0.00    -0.105 C  
HETATM   23  C   UNL     1      -7.259   4.664  67.510  1.00  0.00    -0.069 C  
HETATM   24  N   UNL     1      -6.286   4.694  68.146  1.00  0.00    -0.036 NA 
ENDBRANCH  15  16
ENDBRANCH  13  15
ENDBRANCH  10  13
TORSDOF 3
ENDMDL
MODEL      210
REMARK 921   NORMALIZED FREE ENERGY PREDICTED BY IDOCK:   -3.46 KCAL/MOL
REMARK 922        TOTAL FREE ENERGY PREDICTED BY IDOCK:   -4.71 KCAL/MOL
REMARK 923 INTER-LIGAND FREE ENERGY PREDICTED BY IDOCK:   -4.26 KCAL/MOL
REMARK 924 INTRA-LIGAND FREE ENERGY PREDICTED BY IDOCK:   -0.44 KCAL/MOL
REMARK 927      BINDING AFFINITY PREDICTED BY RF-SCORE:    0.00 PKD
ROOT
HETATM    1  O   UNL     1      -9.656   2.993  68.667  1.00  0.00    -0.164 OA 
HETATM    2  C   UNL     1      -9.213   4.235  68.138  1.00  0.00    -0.142 C  
HETATM    3  H   UNL     1      -9.494   2.964  69.602  1.00  0.00     0.000 HD 
HETATM    4  C   UNL     1      -9.476   4.281  66.623  1.00  0.00    -0.201 C  
HETATM    5  C   UNL     1      -8.991   5.620  66.046  1.00  0.00    -0.158 C  
HETATM    6  C   UNL     1      -7.491   5.788  66.335  1.00  0.00    -0.086 C  
HETATM    7  C   UNL     1      -7.240   5.761  67.851  1.00  0.00    -0.072 C  
HETATM    8  C   UNL     1      -8.035   6.900  68.521  1.00  0.00    -0.120 C  
HETATM    9  C   UNL     1      -7.713   4.413  68.411  1.00  0.00    -0.075 C  
HETATM   10  C   UNL     1      -9.560   6.746  68.253  1.00  0.00    -0.127 C  
HETATM   11  C   UNL     1      -9.994   5.371  68.819  1.00  0.00    -0.235 C  
HETATM   12  C   UNL     1      -9.769   6.766  66.715  1.00  0.00    -0.222 C  
ENDROOT
BRANCH  10  13
HETATM   13  N   UNL     1     -10.248   7.870  68.919  1.00  0.00    -0.202 NA 
HETATM   14  H   UNL     1      -9.660   8.261  69.656  1.00  0.00     0.000 HD 
BRANCH  13  15
HETATM   15  C   UNL     1     -10.702   8.937  68.005  1.00  0.00    -0.108 C  
BRANCH  15  16
HETATM   16  C   UNL     1     -10.411  10.324  68.584  1.00  0.00    -0.184 C  
HETATM   17  O   UNL     1      -9.931  10.434  69.715  1.00  0.00    -0.213 OA 
HETATM   18  N   UNL     1     -10.661  11.431  67.799  1.00  0.00    -0.187 N  
HETATM   19  C   UNL     1     -10.330  12.767  68.251  1.00  0.00    -0.243 C  
HETATM   20  C   UNL     1     -11.406  13.628  67.625  1.00  0.00    -0.328 C  
HETATM   21  C   UNL     1     -11.691  12.949  66.286  1.00  0.00    -0.457 C  
HETATM   22  C   UNL     1     -11.307  11.469  66.483  1.00  0.00    -0.193 C  
HETATM   23  C   UNL     1     -10.409  11.018  65.398  1.00  0.00    -0.268 C  
HETATM   24  N   UNL     1      -9.690  10.686  64.548  1.00  0.00    -0.280 NA 
ENDBRANCH  15  16
ENDBRANCH  13  15
ENDBRANCH  10  13
TORSDOF 3
ENDMDL
MODEL      211
REMARK 921   NORMALIZED FREE ENERGY PREDICTED BY IDOCK:   -3.44 KCAL/MOL
REMARK 922        TOTAL FREE ENERGY PREDICTED BY IDOCK:   -4.69 KCAL/MOL
REMARK 923 INTER-LIGAND FREE ENERGY PREDICTED BY IDOCK:   -4.11 KCAL/MOL
REMARK 924 INTRA-LIGAND FREE ENERGY PREDICTED BY IDOCK:   -0.58 KCAL/MOL
REMARK 927      BINDING AFFINITY PREDICTED BY RF-SCORE:    0.00 PKD
ROOT
HETATM    1  O   UNL     1     -13.056   6.363  72.359  1.00  0.00    -0.527 OA 
HETATM    2  C   UNL     1     -12.374   7.468  71.784  1.00  0.00    -0.326 C  
HETATM    3  H   UNL     1     -13.795   6.120  71.814  1.00  0.00     0.000 HD 
HETATM    4  C   UNL     1     -11.178   7.861  72.667  1.00  0.00    -0.459 C  
HETATM    5  C   UNL     1     -10.442   9.062  72.053  1.00  0.00    -0.309 C  
HETATM    6  C   UNL     1     -11.416  10.242  71.914  1.00  0.00     0.881 C  
HETATM    7  C   UNL     1     -12.597   9.848  71.013  1.00  0.00    -0.431 C  
HETATM    8  C   UNL     1     -12.066   9.438  69.624  1.00  0.00     0.676 C  
HETATM    9  C   UNL     1     -13.333   8.659  71.647  1.00  0.00    -0.386 C  
HETATM   10  C   UNL     1     -11.085   8.235  69.737  1.00  0.00    -0.052 C  
HETATM   11  C   UNL     1     -11.860   7.065  70.392  1.00  0.00    -0.295 C  
HETATM   12  C   UNL     1      -9.917   8.669  70.662  1.00  0.00    -0.230 C  
ENDROOT
BRANCH  10  13
HETATM   13  N   UNL     1     -10.619   7.907  68.374  1.00  0.00    -0.367 NA 
HETATM   14  H   UNL     1     -11.106   7.084  68.020  1.00  0.00     0.000 HD 
BRANCH  13  15
HETATM   15  C   UNL     1     -10.722   9.020  67.410  1.00  0.00    -0.161 C  
BRANCH  15  16
HETATM   16  C   UNL     1      -9.372   9.717  67.222  1.00  0.00    -0.138 C  
HETATM   17  O   UNL     1      -8.368   9.056  66.950  1.00  0.00    -0.117 OA 
HETATM   18  N   UNL     1      -9.320  11.092  67.325  1.00  0.00    -0.160 N  
HETATM   19  C   UNL     1      -8.095  11.822  67.076  1.00  0.00    -0.169 C  
HETATM   20  C   UNL     1      -8.188  13.001  68.021  1.00  0.00    -0.161 C  
HETATM   21  C   UNL     1      -9.680  13.322  68.066  1.00  0.00    -0.223 C  
HETATM   22  C   UNL     1     -10.399  12.001  67.728  1.00  0.00    -0.197 C  
HETATM   23  C   UNL     1     -11.392  12.213  66.653  1.00  0.00    -0.350 C  
HETATM   24  N   UNL     1     -12.155  12.393  65.795  1.00  0.00    -0.610 NA 
ENDBRANCH  15  16
ENDBRANCH  13  15
ENDBRANCH  10  13
TORSDOF 3
ENDMDL
MODEL      212
REMARK 921   NORMALIZED FREE ENERGY PREDICTED BY IDOCK:   -3.44 KCAL/MOL
REMARK 922        TOTAL FREE ENERGY PREDICTED BY IDOCK:   -4.69 KCAL/MOL
REMARK 923 INTER-LIGAND FREE ENERGY PREDICTED BY IDOCK:   -4.10 KCAL/MOL
REMARK 924 INTRA-LIGAND FREE ENERGY PREDICTED BY IDOCK:   -0.59 KCAL/MOL
REMARK 927      BINDING AFFINITY PREDICTED BY RF-SCORE:    0.00 PKD
ROOT
HETATM    1  O   UNL     1     -11.643   6.697  73.113  1.00  0.00    -0.469 OA 
HETATM    2  C   UNL     1     -10.585   6.111  72.368  1.00  0.00    -0.210 C  
HETATM    3  H   UNL     1     -11.601   7.643  73.044  1.00  0.00     0.000 HD 
HETATM    4  C   UNL     1     -10.653   4.579  72.480  1.00  0.00    -0.225 C  
HETATM    5  C   UNL     1      -9.505   3.942  71.682  1.00  0.00    -0.220 C  
HETATM    6  C   UNL     1      -8.162   4.458  72.217  1.00  0.00    -0.108 C  
HETATM    7  C   UNL     1      -8.093   5.988  72.082  1.00  0.00    -0.107 C  
HETATM    8  C   UNL     1      -8.253   6.378  70.598  1.00  0.00    -0.125 C  
HETATM    9  C   UNL     1      -9.234   6.612  72.897  1.00  0.00    -0.147 C  
HETATM   10  C   UNL     1      -9.614   5.875  70.035  1.00  0.00    -0.163 C  
HETATM   11  C   UNL     1     -10.735   6.514  70.891  1.00  0.00    -0.289 C  
HETATM   12  C   UNL     1      -9.648   4.332  70.201  1.00  0.00    -0.269 C  
ENDROOT
BRANCH  10  13
HETATM   13  N   UNL     1      -9.689   6.281  68.617  1.00  0.00    -0.126 NA 
HETATM   14  H   UNL     1     -10.656   6.471  68.352  1.00  0.00     0.000 HD 
BRANCH  13  15
HETATM   15  C   UNL     1      -8.824   7.423  68.262  1.00  0.00    -0.128 C  
BRANCH  15  16
HETATM   16  C   UNL     1      -9.655   8.632  67.822  1.00  0.00    -0.148 C  
HETATM   17  O   UNL     1     -10.820   8.477  67.447  1.00  0.00    -0.209 OA 
HETATM   18  N   UNL     1      -9.083   9.885  67.894  1.00  0.00    -0.131 N  
HETATM   19  C   UNL     1      -9.839  11.078  67.575  1.00  0.00    -0.169 C  
HETATM   20  C   UNL     1      -8.801  12.006  66.982  1.00  0.00    -0.197 C  
HETATM   21  C   UNL     1      -7.524  11.675  67.754  1.00  0.00    -0.111 C  
HETATM   22  C   UNL     1      -7.695  10.218  68.230  1.00  0.00    -0.092 C  
HETATM   23  C   UNL     1      -7.423  10.113  69.680  1.00  0.00    -0.147 C  
HETATM   24  N   UNL     1      -7.222  10.051  70.823  1.00  0.00    -0.314 NA 
ENDBRANCH  15  16
ENDBRANCH  13  15
ENDBRANCH  10  13
TORSDOF 3
ENDMDL
MODEL      213
REMARK 921   NORMALIZED FREE ENERGY PREDICTED BY IDOCK:   -3.43 KCAL/MOL
REMARK 922        TOTAL FREE ENERGY PREDICTED BY IDOCK:   -4.67 KCAL/MOL
REMARK 923 INTER-LIGAND FREE ENERGY PREDICTED BY IDOCK:   -4.23 KCAL/MOL
REMARK 924 INTRA-LIGAND FREE ENERGY PREDICTED BY IDOCK:   -0.44 KCAL/MOL
REMARK 927      BINDING AFFINITY PREDICTED BY RF-SCORE:    0.00 PKD
ROOT
HETATM    1  O   UNL     1     -11.587  16.734  73.828  1.00  0.00    -0.029 OA 
HETATM    2  C   UNL     1     -12.238  15.895  72.885  1.00  0.00    -0.500 C  
HETATM    3  H   UNL     1     -10.684  16.459  73.935  1.00  0.00     0.000 HD 
HETATM    4  C   UNL     1     -13.700  16.340  72.711  1.00  0.00     0.036 C  
HETATM    5  C   UNL     1     -14.410  15.429  71.698  1.00  0.00    -0.615 C  
HETATM    6  C   UNL     1     -14.348  13.974  72.186  1.00  0.00    -0.577 C  
HETATM    7  C   UNL     1     -12.884  13.530  72.336  1.00  0.00    -0.292 C  
HETATM    8  C   UNL     1     -12.168  13.660  70.976  1.00  0.00    -0.374 C  
HETATM    9  C   UNL     1     -12.191  14.437  73.363  1.00  0.00    -0.064 C  
HETATM   10  C   UNL     1     -12.208  15.129  70.465  1.00  0.00    -0.341 C  
HETATM   11  C   UNL     1     -11.513  16.011  71.533  1.00  0.00    -0.459 C  
HETATM   12  C   UNL     1     -13.698  15.541  70.339  1.00  0.00     0.478 C  
ENDROOT
BRANCH  10  13
HETATM   13  N   UNL     1     -11.510  15.170  69.164  1.00  0.00    -0.287 NA 
HETATM   14  H   UNL     1     -11.788  15.998  68.637  1.00  0.00     0.000 HD 
BRANCH  13  15
HETATM   15  C   UNL     1     -10.039  15.088  69.256  1.00  0.00    -0.233 C  
BRANCH  15  16
HETATM   16  C   UNL     1      -9.457  14.263  68.105  1.00  0.00    -0.204 C  
HETATM   17  O   UNL     1     -10.102  14.113  67.065  1.00  0.00    -0.255 OA 
HETATM   18  N   UNL     1      -8.191  13.734  68.249  1.00  0.00    -0.150 N  
HETATM   19  C   UNL     1      -7.547  13.016  67.169  1.00  0.00    -0.012 C  
HETATM   20  C   UNL     1      -6.707  11.980  67.885  1.00  0.00    -0.080 C  
HETATM   21  C   UNL     1      -6.267  12.682  69.168  1.00  0.00    -0.098 C  
HETATM   22  C   UNL     1      -7.344  13.749  69.446  1.00  0.00     0.182 C  
HETATM   23  C   UNL     1      -6.718  15.068  69.679  1.00  0.00    -0.177 C  
HETATM   24  N   UNL     1      -6.210  16.101  69.843  1.00  0.00    -0.181 NA 
ENDBRANCH  15  16
ENDBRANCH  13  15
ENDBRANCH  10  13
TORSDOF 3
ENDMDL
MODEL      214
REMARK 921   NORMALIZED FREE ENERGY PREDICTED BY IDOCK:   -3.42 KCAL/MOL
REMARK 922        TOTAL FREE ENERGY PREDICTED BY IDOCK:   -4.66 KCAL/MOL
REMARK 923 INTER-LIGAND FREE ENERGY PREDICTED BY IDOCK:   -4.22 KCAL/MOL
REMARK 924 INTRA-LIGAND FREE ENERGY PREDICTED BY IDOCK:   -0.44 KCAL/MOL
REMARK 927      BINDING AFFINITY PREDICTED BY RF-SCORE:    0.00 PKD
ROOT
HETATM    1  O   UNL     1      -8.890   7.819  73.274  1.00  0.00    -0.171 OA 
HETATM    2  C   UNL     1      -9.863   7.936  72.245  1.00  0.00    -0.215 C  
HETATM    3  H   UNL     1      -9.076   7.057  73.809  1.00  0.00     0.000 HD 
HETATM    4  C   UNL     1      -9.562   9.171  71.380  1.00  0.00    -0.316 C  
HETATM    5  C   UNL     1     -10.617   9.305  70.271  1.00  0.00    -0.278 C  
HETATM    6  C   UNL     1     -12.012   9.421  70.902  1.00  0.00    -0.351 C  
HETATM    7  C   UNL     1     -12.313   8.173  71.748  1.00  0.00    -0.357 C  
HETATM    8  C   UNL     1     -12.243   6.919  70.853  1.00  0.00    -0.404 C  
HETATM    9  C   UNL     1     -11.263   8.061  72.862  1.00  0.00    -0.389 C  
HETATM   10  C   UNL     1     -10.834   6.774  70.209  1.00  0.00    -0.270 C  
HETATM   11  C   UNL     1      -9.805   6.677  71.363  1.00  0.00    -0.191 C  
HETATM   12  C   UNL     1     -10.565   8.055  69.377  1.00  0.00    -0.210 C  
ENDROOT
BRANCH  10  13
HETATM   13  N   UNL     1     -10.849   5.560  69.368  1.00  0.00    -0.260 NA 
HETATM   14  H   UNL     1     -11.653   5.573  68.739  1.00  0.00     0.000 HD 
BRANCH  13  15
HETATM   15  C   UNL     1      -9.605   5.328  68.608  1.00  0.00    -0.136 C  
BRANCH  15  16
HETATM   16  C   UNL     1      -8.918   4.033  69.052  1.00  0.00    -0.115 C  
HETATM   17  O   UNL     1      -9.446   3.315  69.904  1.00  0.00    -0.163 OA 
HETATM   18  N   UNL     1      -7.727   3.680  68.452  1.00  0.00    -0.060 N  
HETATM   19  C   UNL     1      -7.067   2.430  68.763  1.00  0.00    -0.044 C  
HETATM   20  C   UNL     1      -5.597   2.763  68.629  1.00  0.00    -0.022 C  
HETATM   21  C   UNL     1      -5.552   3.790  67.499  1.00  0.00    -0.021 C  
HETATM   22  C   UNL     1      -6.937   4.467  67.499  1.00  0.00    -0.063 C  
HETATM   23  C   UNL     1      -7.517   4.458  66.139  1.00  0.00    -0.085 C  
HETATM   24  N   UNL     1      -7.966   4.427  65.067  1.00  0.00    -0.096 NA 
ENDBRANCH  15  16
ENDBRANCH  13  15
ENDBRANCH  10  13
TORSDOF 3
ENDMDL
MODEL      215
REMARK 921   NORMALIZED FREE ENERGY PREDICTED BY IDOCK:   -3.41 KCAL/MOL
REMARK 922        TOTAL FREE ENERGY PREDICTED BY IDOCK:   -4.65 KCAL/MOL
REMARK 923 INTER-LIGAND FREE ENERGY PREDICTED BY IDOCK:   -4.18 KCAL/MOL
REMARK 924 INTRA-LIGAND FREE ENERGY PREDICTED BY IDOCK:   -0.47 KCAL/MOL
REMARK 927      BINDING AFFINITY PREDICTED BY RF-SCORE:    0.00 PKD
ROOT
HETATM    1  O   UNL     1      -7.694   6.958  73.557  1.00  0.00    -0.084 OA 
HETATM    2  C   UNL     1      -8.792   7.225  72.696  1.00  0.00    -0.126 C  
HETATM    3  H   UNL     1      -7.880   6.195  74.091  1.00  0.00     0.000 HD 
HETATM    4  C   UNL     1      -8.490   8.460  71.831  1.00  0.00    -0.237 C  
HETATM    5  C   UNL     1      -9.678   8.757  70.904  1.00  0.00    -0.277 C  
HETATM    6  C   UNL     1     -10.940   8.990  71.748  1.00  0.00    -0.443 C  
HETATM    7  C   UNL     1     -11.247   7.743  72.593  1.00  0.00    -0.438 C  
HETATM    8  C   UNL     1     -11.454   6.532  71.661  1.00  0.00    -0.345 C  
HETATM    9  C   UNL     1     -10.060   7.468  73.526  1.00  0.00    -0.378 C  
HETATM   10  C   UNL     1     -10.184   6.268  70.801  1.00  0.00    -0.193 C  
HETATM   11  C   UNL     1      -9.010   6.010  71.778  1.00  0.00    -0.138 C  
HETATM   12  C   UNL     1      -9.902   7.551  69.976  1.00  0.00    -0.180 C  
ENDROOT
BRANCH  10  13
HETATM   13  N   UNL     1     -10.462   5.103  69.937  1.00  0.00    -0.281 NA 
HETATM   14  H   UNL     1     -11.467   4.950  69.858  1.00  0.00     0.000 HD 
BRANCH  13  15
HETATM   15  C   UNL     1      -9.846   5.176  68.598  1.00  0.00    -0.160 C  
BRANCH  15  16
HETATM   16  C   UNL     1      -8.655   4.220  68.482  1.00  0.00    -0.093 C  
HETATM   17  O   UNL     1      -8.299   3.556  69.458  1.00  0.00    -0.055 OA 
HETATM   18  N   UNL     1      -8.027   4.095  67.260  1.00  0.00    -0.095 N  
HETATM   19  C   UNL     1      -6.950   3.148  67.059  1.00  0.00    -0.053 C  
HETATM   20  C   UNL     1      -6.062   3.834  66.043  1.00  0.00    -0.028 C  
HETATM   21  C   UNL     1      -7.038   4.607  65.159  1.00  0.00    -0.063 C  
HETATM   22  C   UNL     1      -8.274   4.875  66.042  1.00  0.00    -0.112 C  
HETATM   23  C   UNL     1      -9.509   4.458  65.344  1.00  0.00    -0.175 C  
HETATM   24  N   UNL     1     -10.468   4.109  64.788  1.00  0.00    -0.224 NA 
ENDBRANCH  15  16
ENDBRANCH  13  15
ENDBRANCH  10  13
TORSDOF 3
ENDMDL
MODEL      216
REMARK 921   NORMALIZED FREE ENERGY PREDICTED BY IDOCK:   -3.40 KCAL/MOL
REMARK 922        TOTAL FREE ENERGY PREDICTED BY IDOCK:   -4.63 KCAL/MOL
REMARK 923 INTER-LIGAND FREE ENERGY PREDICTED BY IDOCK:   -4.68 KCAL/MOL
REMARK 924 INTRA-LIGAND FREE ENERGY PREDICTED BY IDOCK:    0.05 KCAL/MOL
REMARK 927      BINDING AFFINITY PREDICTED BY RF-SCORE:    0.00 PKD
ROOT
HETATM    1  O   UNL     1      -5.152  16.028  66.776  1.00  0.00    -0.278 OA 
HETATM    2  C   UNL     1      -5.871  15.288  67.752  1.00  0.00    -0.125 C  
HETATM    3  H   UNL     1      -5.231  15.607  65.928  1.00  0.00     0.000 HD 
HETATM    4  C   UNL     1      -5.744  15.971  69.124  1.00  0.00    -0.114 C  
HETATM    5  C   UNL     1      -6.514  15.169  70.184  1.00  0.00    -0.115 C  
HETATM    6  C   UNL     1      -5.961  13.738  70.245  1.00  0.00    -0.152 C  
HETATM    7  C   UNL     1      -6.111  13.055  68.876  1.00  0.00    -0.083 C  
HETATM    8  C   UNL     1      -7.602  13.027  68.480  1.00  0.00    -0.121 C  
HETATM    9  C   UNL     1      -5.323  13.856  67.830  1.00  0.00    -0.080 C  
HETATM   10  C   UNL     1      -8.184  14.468  68.401  1.00  0.00    -0.150 C  
HETATM   11  C   UNL     1      -7.355  15.245  67.348  1.00  0.00    -0.241 C  
HETATM   12  C   UNL     1      -8.001  15.124  69.795  1.00  0.00    -0.019 C  
ENDROOT
BRANCH  10  13
HETATM   13  N   UNL     1      -9.607  14.356  68.024  1.00  0.00    -0.210 NA 
HETATM   14  H   UNL     1     -10.185  14.218  68.853  1.00  0.00     0.000 HD 
BRANCH  13  15
HETATM   15  C   UNL     1     -10.118  15.487  67.223  1.00  0.00    -0.250 C  
BRANCH  15  16
HETATM   16  C   UNL     1     -10.424  16.699  68.108  1.00  0.00    -0.321 C  
HETATM   17  O   UNL     1     -10.823  16.535  69.263  1.00  0.00    -0.309 OA 
HETATM   18  N   UNL     1     -10.204  17.961  67.595  1.00  0.00    -0.348 N  
HETATM   19  C   UNL     1     -10.392  19.147  68.405  1.00  0.00    -0.327 C  
HETATM   20  C   UNL     1     -10.867  20.182  67.408  1.00  0.00    -0.116 C  
HETATM   21  C   UNL     1     -10.128  19.824  66.120  1.00  0.00    -0.600 C  
HETATM   22  C   UNL     1      -9.821  18.316  66.225  1.00  0.00    -0.321 C  
HETATM   23  C   UNL     1      -8.391  18.059  65.952  1.00  0.00     0.106 C  
HETATM   24  N   UNL     1      -7.261  17.876  65.752  1.00  0.00    -0.511 NA 
ENDBRANCH  15  16
ENDBRANCH  13  15
ENDBRANCH  10  13
TORSDOF 3
ENDMDL
MODEL      217
REMARK 921   NORMALIZED FREE ENERGY PREDICTED BY IDOCK:   -3.36 KCAL/MOL
REMARK 922        TOTAL FREE ENERGY PREDICTED BY IDOCK:   -4.59 KCAL/MOL
REMARK 923 INTER-LIGAND FREE ENERGY PREDICTED BY IDOCK:   -4.10 KCAL/MOL
REMARK 924 INTRA-LIGAND FREE ENERGY PREDICTED BY IDOCK:   -0.49 KCAL/MOL
REMARK 927      BINDING AFFINITY PREDICTED BY RF-SCORE:    0.00 PKD
ROOT
HETATM    1  O   UNL     1      -8.962   6.430  64.731  1.00  0.00    -0.334 OA 
HETATM    2  C   UNL     1      -8.239   7.612  65.043  1.00  0.00    -0.113 C  
HETATM    3  H   UNL     1      -9.239   6.000  65.531  1.00  0.00     0.000 HD 
HETATM    4  C   UNL     1      -7.791   8.309  63.747  1.00  0.00    -0.152 C  
HETATM    5  C   UNL     1      -7.001   9.583  64.080  1.00  0.00    -0.109 C  
HETATM    6  C   UNL     1      -5.782   9.219  64.941  1.00  0.00    -0.062 C  
HETATM    7  C   UNL     1      -6.238   8.543  66.243  1.00  0.00    -0.053 C  
HETATM    8  C   UNL     1      -7.163   9.503  67.020  1.00  0.00    -0.087 C  
HETATM    9  C   UNL     1      -7.011   7.263  65.897  1.00  0.00    -0.061 C  
HETATM   10  C   UNL     1      -8.413   9.878  66.173  1.00  0.00    -0.125 C  
HETATM   11  C   UNL     1      -9.155   8.562  65.833  1.00  0.00    -0.237 C  
HETATM   12  C   UNL     1      -7.909  10.545  64.865  1.00  0.00    -0.037 C  
ENDROOT
BRANCH  10  13
HETATM   13  N   UNL     1      -9.241  10.798  66.979  1.00  0.00    -0.151 NA 
HETATM   14  H   UNL     1      -8.981  10.739  67.964  1.00  0.00     0.000 HD 
BRANCH  13  15
HETATM   15  C   UNL     1      -9.216  12.201  66.523  1.00  0.00    -0.216 C  
BRANCH  15  16
HETATM   16  C   UNL     1      -8.664  13.128  67.611  1.00  0.00    -0.192 C  
HETATM   17  O   UNL     1      -7.562  12.900  68.115  1.00  0.00    -0.113 OA 
HETATM   18  N   UNL     1      -9.407  14.231  67.977  1.00  0.00    -0.194 N  
HETATM   19  C   UNL     1      -8.907  15.193  68.936  1.00  0.00    -0.205 C  
HETATM   20  C   UNL     1     -10.158  15.669  69.643  1.00  0.00    -0.292 C  
HETATM   21  C   UNL     1     -11.231  15.642  68.556  1.00  0.00    -0.342 C  
HETATM   22  C   UNL     1     -10.762  14.583  67.538  1.00  0.00    -0.276 C  
HETATM   23  C   UNL     1     -10.786  15.137  66.167  1.00  0.00    -0.330 C  
HETATM   24  N   UNL     1     -10.795  15.594  65.098  1.00  0.00    -0.416 NA 
ENDBRANCH  15  16
ENDBRANCH  13  15
ENDBRANCH  10  13
TORSDOF 3
ENDMDL
MODEL      218
REMARK 921   NORMALIZED FREE ENERGY PREDICTED BY IDOCK:   -3.35 KCAL/MOL
REMARK 922        TOTAL FREE ENERGY PREDICTED BY IDOCK:   -4.57 KCAL/MOL
REMARK 923 INTER-LIGAND FREE ENERGY PREDICTED BY IDOCK:   -4.19 KCAL/MOL
REMARK 924 INTRA-LIGAND FREE ENERGY PREDICTED BY IDOCK:   -0.38 KCAL/MOL
REMARK 927      BINDING AFFINITY PREDICTED BY RF-SCORE:    0.00 PKD
ROOT
HETATM    1  O   UNL     1     -11.518   8.220  69.618  1.00  0.00    -0.439 OA 
HETATM    2  C   UNL     1     -10.302   8.263  68.885  1.00  0.00    -0.215 C  
HETATM    3  H   UNL     1     -11.438   8.739  70.409  1.00  0.00     0.000 HD 
HETATM    4  C   UNL     1     -10.433   7.422  67.605  1.00  0.00    -0.310 C  
HETATM    5  C   UNL     1      -9.117   7.460  66.814  1.00  0.00    -0.178 C  
HETATM    6  C   UNL     1      -7.976   6.924  67.692  1.00  0.00    -0.113 C  
HETATM    7  C   UNL     1      -7.838   7.783  68.959  1.00  0.00    -0.118 C  
HETATM    8  C   UNL     1      -7.551   9.244  68.558  1.00  0.00    -0.085 C  
HETATM    9  C   UNL     1      -9.153   7.722  69.748  1.00  0.00    -0.147 C  
HETATM   10  C   UNL     1      -8.699   9.814  67.675  1.00  0.00    -0.125 C  
HETATM   11  C   UNL     1     -10.006   9.723  68.500  1.00  0.00    -0.177 C  
HETATM   12  C   UNL     1      -8.813   8.914  66.416  1.00  0.00    -0.178 C  
ENDROOT
BRANCH  10  13
HETATM   13  N   UNL     1      -8.349  11.207  67.330  1.00  0.00    -0.132 NA 
HETATM   14  H   UNL     1      -9.166  11.701  66.972  1.00  0.00     0.000 HD 
BRANCH  13  15
HETATM   15  C   UNL     1      -7.727  11.971  68.430  1.00  0.00    -0.138 C  
BRANCH  15  16
HETATM   16  C   UNL     1      -7.243  13.342  67.948  1.00  0.00    -0.137 C  
HETATM   17  O   UNL     1      -6.052  13.519  67.686  1.00  0.00    -0.195 OA 
HETATM   18  N   UNL     1      -8.174  14.347  67.780  1.00  0.00    -0.154 N  
HETATM   19  C   UNL     1      -7.798  15.640  67.247  1.00  0.00    -0.198 C  
HETATM   20  C   UNL     1      -8.734  16.597  67.954  1.00  0.00    -0.193 C  
HETATM   21  C   UNL     1     -10.026  15.798  68.119  1.00  0.00    -0.214 C  
HETATM   22  C   UNL     1      -9.597  14.317  68.131  1.00  0.00    -0.218 C  
HETATM   23  C   UNL     1     -10.402  13.539  67.165  1.00  0.00    -0.250 C  
HETATM   24  N   UNL     1     -11.032  12.945  66.389  1.00  0.00    -0.280 NA 
ENDBRANCH  15  16
ENDBRANCH  13  15
ENDBRANCH  10  13
TORSDOF 3
ENDMDL
MODEL      219
REMARK 921   NORMALIZED FREE ENERGY PREDICTED BY IDOCK:   -3.26 KCAL/MOL
REMARK 922        TOTAL FREE ENERGY PREDICTED BY IDOCK:   -4.48 KCAL/MOL
REMARK 923 INTER-LIGAND FREE ENERGY PREDICTED BY IDOCK:   -4.22 KCAL/MOL
REMARK 924 INTRA-LIGAND FREE ENERGY PREDICTED BY IDOCK:   -0.25 KCAL/MOL
REMARK 927      BINDING AFFINITY PREDICTED BY RF-SCORE:    0.00 PKD
ROOT
HETATM    1  O   UNL     1     -11.999  11.934  70.522  1.00  0.00    -0.423 OA 
HETATM    2  C   UNL     1     -11.114  11.046  69.854  1.00  0.00    -0.205 C  
HETATM    3  H   UNL     1     -11.576  12.291  71.294  1.00  0.00     0.000 HD 
HETATM    4  C   UNL     1     -11.800  10.468  68.604  1.00  0.00    -0.047 C  
HETATM    5  C   UNL     1     -10.849   9.501  67.883  1.00  0.00    -0.240 C  
HETATM    6  C   UNL     1     -10.443   8.372  68.842  1.00  0.00    -0.208 C  
HETATM    7  C   UNL     1      -9.740   8.956  70.077  1.00  0.00    -0.187 C  
HETATM    8  C   UNL     1      -8.490   9.742  69.631  1.00  0.00    -0.194 C  
HETATM    9  C   UNL     1     -10.706   9.906  70.798  1.00  0.00    -0.350 C  
HETATM   10  C   UNL     1      -8.876  10.900  68.666  1.00  0.00    -0.158 C  
HETATM   11  C   UNL     1      -9.860  11.826  69.424  1.00  0.00     0.540 C  
HETATM   12  C   UNL     1      -9.592  10.270  67.442  1.00  0.00    -0.183 C  
ENDROOT
BRANCH  10  13
HETATM   13  N   UNL     1      -7.633  11.597  68.282  1.00  0.00    -0.112 NA 
HETATM   14  H   UNL     1      -6.836  10.962  68.340  1.00  0.00     0.000 HD 
BRANCH  13  15
HETATM   15  C   UNL     1      -7.679  12.243  66.955  1.00  0.00    -0.089 C  
BRANCH  15  16
HETATM   16  C   UNL     1      -8.307  13.638  67.040  1.00  0.00    -0.082 C  
HETATM   17  O   UNL     1      -7.670  14.573  67.531  1.00  0.00    -0.161 OA 
HETATM   18  N   UNL     1      -9.573  13.823  66.523  1.00  0.00    -0.282 N  
HETATM   19  C   UNL     1     -10.191  15.132  66.494  1.00  0.00    -0.276 C  
HETATM   20  C   UNL     1     -11.664  14.830  66.675  1.00  0.00    -0.293 C  
HETATM   21  C   UNL     1     -11.859  13.494  65.960  1.00  0.00    -0.414 C  
HETATM   22  C   UNL     1     -10.483  12.801  65.995  1.00  0.00    -0.274 C  
HETATM   23  C   UNL     1     -10.098  12.345  64.642  1.00  0.00    -0.240 C  
HETATM   24  N   UNL     1      -9.803  12.009  63.569  1.00  0.00    -0.347 NA 
ENDBRANCH  15  16
ENDBRANCH  13  15
ENDBRANCH  10  13
TORSDOF 3
ENDMDL
MODEL      220
REMARK 921   NORMALIZED FREE ENERGY PREDICTED BY IDOCK:   -3.24 KCAL/MOL
REMARK 922        TOTAL FREE ENERGY PREDICTED BY IDOCK:   -4.45 KCAL/MOL
REMARK 923 INTER-LIGAND FREE ENERGY PREDICTED BY IDOCK:   -3.80 KCAL/MOL
REMARK 924 INTRA-LIGAND FREE ENERGY PREDICTED BY IDOCK:   -0.65 KCAL/MOL
REMARK 927      BINDING AFFINITY PREDICTED BY RF-SCORE:    0.00 PKD
ROOT
HETATM    1  O   UNL     1     -12.165   7.503  70.466  1.00  0.00    -0.518 OA 
HETATM    2  C   UNL     1     -11.231   6.876  71.333  1.00  0.00    -0.259 C  
HETATM    3  H   UNL     1     -11.705   8.003  69.802  1.00  0.00     0.000 HD 
HETATM    4  C   UNL     1     -11.977   6.067  72.407  1.00  0.00    -0.232 C  
HETATM    5  C   UNL     1     -10.969   5.394  73.352  1.00  0.00    -0.349 C  
HETATM    6  C   UNL     1     -10.086   6.466  74.007  1.00  0.00    -0.328 C  
HETATM    7  C   UNL     1      -9.328   7.256  72.927  1.00  0.00    -0.194 C  
HETATM    8  C   UNL     1      -8.456   6.288  72.103  1.00  0.00    -0.112 C  
HETATM    9  C   UNL     1     -10.346   7.937  72.002  1.00  0.00    -0.283 C  
HETATM   10  C   UNL     1      -9.330   5.197  71.420  1.00  0.00    -0.148 C  
HETATM   11  C   UNL     1     -10.350   5.923  70.507  1.00  0.00    -0.297 C  
HETATM   12  C   UNL     1     -10.085   4.433  72.539  1.00  0.00    -0.237 C  
ENDROOT
BRANCH  10  13
HETATM   13  N   UNL     1      -8.427   4.311  70.658  1.00  0.00    -0.073 NA 
HETATM   14  H   UNL     1      -8.765   3.349  70.685  1.00  0.00     0.000 HD 
BRANCH  13  15
HETATM   15  C   UNL     1      -8.191   4.733  69.263  1.00  0.00    -0.077 C  
BRANCH  15  16
HETATM   16  C   UNL     1      -6.874   5.505  69.133  1.00  0.00    -0.058 C  
HETATM   17  O   UNL     1      -5.803   4.942  69.368  1.00  0.00    -0.015 OA 
HETATM   18  N   UNL     1      -6.919   6.818  68.713  1.00  0.00    -0.076 N  
HETATM   19  C   UNL     1      -5.708   7.580  68.488  1.00  0.00    -0.027 C  
HETATM   20  C   UNL     1      -6.104   8.991  68.864  1.00  0.00    -0.044 C  
HETATM   21  C   UNL     1      -7.570   9.089  68.445  1.00  0.00    -0.090 C  
HETATM   22  C   UNL     1      -8.108   7.645  68.484  1.00  0.00    -0.124 C  
HETATM   23  C   UNL     1      -8.792   7.314  67.216  1.00  0.00    -0.124 C  
HETATM   24  N   UNL     1      -9.311   7.064  66.206  1.00  0.00    -0.139 NA 
ENDBRANCH  15  16
ENDBRANCH  13  15
ENDBRANCH  10  13
TORSDOF 3
ENDMDL
MODEL      221
REMARK 921   NORMALIZED FREE ENERGY PREDICTED BY IDOCK:   -3.23 KCAL/MOL
REMARK 922        TOTAL FREE ENERGY PREDICTED BY IDOCK:   -4.43 KCAL/MOL
REMARK 923 INTER-LIGAND FREE ENERGY PREDICTED BY IDOCK:   -3.96 KCAL/MOL
REMARK 924 INTRA-LIGAND FREE ENERGY PREDICTED BY IDOCK:   -0.47 KCAL/MOL
REMARK 927      BINDING AFFINITY PREDICTED BY RF-SCORE:    0.00 PKD
ROOT
HETATM    1  O   UNL     1     -11.918  12.789  63.338  1.00  0.00    -0.517 OA 
HETATM    2  C   UNL     1     -11.311  12.423  64.569  1.00  0.00    -0.328 C  
HETATM    3  H   UNL     1     -12.276  13.666  63.403  1.00  0.00     0.000 HD 
HETATM    4  C   UNL     1     -10.731  11.003  64.463  1.00  0.00    -0.335 C  
HETATM    5  C   UNL     1     -10.081  10.599  65.796  1.00  0.00    -0.327 C  
HETATM    6  C   UNL     1     -11.129  10.667  66.917  1.00  0.00    -0.162 C  
HETATM    7  C   UNL     1     -11.689  12.094  67.031  1.00  0.00    -0.373 C  
HETATM    8  C   UNL     1     -10.535  13.073  67.329  1.00  0.00    -0.238 C  
HETATM    9  C   UNL     1     -12.349  12.477  65.699  1.00  0.00    -0.296 C  
HETATM   10  C   UNL     1      -9.465  13.032  66.200  1.00  0.00    -0.150 C  
HETATM   11  C   UNL     1     -10.173  13.410  64.876  1.00  0.00    -0.339 C  
HETATM   12  C   UNL     1      -8.935  11.576  66.110  1.00  0.00    -0.201 C  
ENDROOT
BRANCH  10  13
HETATM   13  N   UNL     1      -8.398  13.987  66.560  1.00  0.00    -0.321 NA 
HETATM   14  H   UNL     1      -8.802  14.859  66.903  1.00  0.00     0.000 HD 
BRANCH  13  15
HETATM   15  C   UNL     1      -7.408  13.465  67.522  1.00  0.00    -0.156 C  
BRANCH  15  16
HETATM   16  C   UNL     1      -7.402  14.289  68.813  1.00  0.00    -0.131 C  
HETATM   17  O   UNL     1      -8.000  15.366  68.861  1.00  0.00    -0.148 OA 
HETATM   18  N   UNL     1      -6.750  13.779  69.917  1.00  0.00     0.008 N  
HETATM   19  C   UNL     1      -6.776  14.466  71.192  1.00  0.00     0.745 C  
HETATM   20  C   UNL     1      -5.428  14.138  71.797  1.00  0.00    -0.223 C  
HETATM   21  C   UNL     1      -5.136  12.721  71.305  1.00  0.00    -0.162 C  
HETATM   22  C   UNL     1      -5.926  12.568  69.990  1.00  0.00    -0.145 C  
HETATM   23  C   UNL     1      -6.738  11.332  70.016  1.00  0.00    -0.008 C  
HETATM   24  N   UNL     1      -7.383  10.366  70.059  1.00  0.00    -0.151 NA 
ENDBRANCH  15  16
ENDBRANCH  13  15
ENDBRANCH  10  13
TORSDOF 3
ENDMDL
MODEL      222
REMARK 921   NORMALIZED FREE ENERGY PREDICTED BY IDOCK:   -3.19 KCAL/MOL
REMARK 922        TOTAL FREE ENERGY PREDICTED BY IDOCK:   -4.39 KCAL/MOL
REMARK 923 INTER-LIGAND FREE ENERGY PREDICTED BY IDOCK:   -4.00 KCAL/MOL
REMARK 924 INTRA-LIGAND FREE ENERGY PREDICTED BY IDOCK:   -0.39 KCAL/MOL
REMARK 927      BINDING AFFINITY PREDICTED BY RF-SCORE:    0.00 PKD
ROOT
HETATM    1  O   UNL     1     -10.588   3.902  65.379  1.00  0.00    -0.465 OA 
HETATM    2  C   UNL     1      -9.368   4.025  66.097  1.00  0.00    -0.171 C  
HETATM    3  H   UNL     1     -11.244   3.487  65.926  1.00  0.00     0.000 HD 
HETATM    4  C   UNL     1      -8.306   4.698  65.210  1.00  0.00    -0.124 C  
HETATM    5  C   UNL     1      -6.983   4.825  65.980  1.00  0.00    -0.066 C  
HETATM    6  C   UNL     1      -6.509   3.431  66.417  1.00  0.00    -0.036 C  
HETATM    7  C   UNL     1      -7.566   2.775  67.320  1.00  0.00    -0.069 C  
HETATM    8  C   UNL     1      -7.804   3.662  68.558  1.00  0.00    -0.059 C  
HETATM    9  C   UNL     1      -8.877   2.638  66.534  1.00  0.00    -0.140 C  
HETATM   10  C   UNL     1      -8.296   5.078  68.142  1.00  0.00    -0.096 C  
HETATM   11  C   UNL     1      -9.609   4.896  67.341  1.00  0.00    -0.175 C  
HETATM   12  C   UNL     1      -7.209   5.700  67.225  1.00  0.00    -0.075 C  
ENDROOT
BRANCH  10  13
HETATM   13  N   UNL     1      -8.495   5.865  69.376  1.00  0.00    -0.113 NA 
HETATM   14  H   UNL     1      -7.607   6.250  69.699  1.00  0.00     0.000 HD 
BRANCH  13  15
HETATM   15  C   UNL     1      -9.509   6.931  69.263  1.00  0.00    -0.147 C  
BRANCH  15  16
HETATM   16  C   UNL     1     -10.161   7.221  70.618  1.00  0.00    -0.195 C  
HETATM   17  O   UNL     1     -10.132   6.372  71.512  1.00  0.00    -0.190 OA 
HETATM   18  N   UNL     1     -10.740   8.457  70.820  1.00  0.00    -0.207 N  
HETATM   19  C   UNL     1     -11.299   8.827  72.103  1.00  0.00    -0.341 C  
HETATM   20  C   UNL     1     -12.455   9.733  71.736  1.00  0.00    -0.485 C  
HETATM   21  C   UNL     1     -11.971  10.463  70.484  1.00  0.00    -0.427 C  
HETATM   22  C   UNL     1     -10.932   9.527  69.836  1.00  0.00    -0.238 C  
HETATM   23  C   UNL     1      -9.681  10.263  69.549  1.00  0.00    -0.211 C  
HETATM   24  N   UNL     1      -8.700  10.853  69.346  1.00  0.00     0.030 NA 
ENDBRANCH  15  16
ENDBRANCH  13  15
ENDBRANCH  10  13
TORSDOF 3
ENDMDL
MODEL      223
REMARK 921   NORMALIZED FREE ENERGY PREDICTED BY IDOCK:   -3.17 KCAL/MOL
REMARK 922        TOTAL FREE ENERGY PREDICTED BY IDOCK:   -4.37 KCAL/MOL
REMARK 923 INTER-LIGAND FREE ENERGY PREDICTED BY IDOCK:   -3.92 KCAL/MOL
REMARK 924 INTRA-LIGAND FREE ENERGY PREDICTED BY IDOCK:   -0.45 KCAL/MOL
REMARK 927      BINDING AFFINITY PREDICTED BY RF-SCORE:    0.00 PKD
ROOT
HETATM    1  O   UNL     1      -5.702  10.220  67.972  1.00  0.00    -0.041 OA 
HETATM    2  C   UNL     1      -6.840   9.891  67.188  1.00  0.00    -0.083 C  
HETATM    3  H   UNL     1      -5.278  10.992  67.617  1.00  0.00     0.000 HD 
HETATM    4  C   UNL     1      -7.527   8.641  67.763  1.00  0.00    -0.097 C  
HETATM    5  C   UNL     1      -8.753   8.277  66.912  1.00  0.00    -0.141 C  
HETATM    6  C   UNL     1      -8.315   8.027  65.461  1.00  0.00    -0.153 C  
HETATM    7  C   UNL     1      -7.648   9.288  64.888  1.00  0.00    -0.108 C  
HETATM    8  C   UNL     1      -8.646  10.463  64.940  1.00  0.00    -0.190 C  
HETATM    9  C   UNL     1      -6.416   9.630  65.736  1.00  0.00    -0.079 C  
HETATM   10  C   UNL     1      -9.098  10.743  66.403  1.00  0.00    -0.171 C  
HETATM   11  C   UNL     1      -7.827  11.070  67.226  1.00  0.00    -0.122 C  
HETATM   12  C   UNL     1      -9.752   9.446  66.948  1.00  0.00    -0.242 C  
ENDROOT
BRANCH  10  13
HETATM   13  N   UNL     1     -10.050  11.872  66.369  1.00  0.00    -0.209 NA 
HETATM   14  H   UNL     1     -10.836  11.693  66.994  1.00  0.00     0.000 HD 
BRANCH  13  15
HETATM   15  C   UNL     1      -9.449  13.187  66.662  1.00  0.00    -0.260 C  
BRANCH  15  16
HETATM   16  C   UNL     1     -10.224  13.918  67.763  1.00  0.00    -0.237 C  
HETATM   17  O   UNL     1     -11.122  13.337  68.375  1.00  0.00    -0.245 OA 
HETATM   18  N   UNL     1      -9.866  15.215  68.070  1.00  0.00    -0.212 N  
HETATM   19  C   UNL     1     -10.500  15.934  69.155  1.00  0.00    -0.235 C  
HETATM   20  C   UNL     1     -10.498  17.370  68.675  1.00  0.00    -0.355 C  
HETATM   21  C   UNL     1      -9.205  17.490  67.870  1.00  0.00    -0.265 C  
HETATM   22  C   UNL     1      -8.890  16.063  67.378  1.00  0.00    -0.184 C  
HETATM   23  C   UNL     1      -7.494  15.699  67.702  1.00  0.00    -0.164 C  
HETATM   24  N   UNL     1      -6.399  15.424  67.979  1.00  0.00    -0.126 NA 
ENDBRANCH  15  16
ENDBRANCH  13  15
ENDBRANCH  10  13
TORSDOF 3
ENDMDL
MODEL      224
REMARK 921   NORMALIZED FREE ENERGY PREDICTED BY IDOCK:   -3.08 KCAL/MOL
REMARK 922        TOTAL FREE ENERGY PREDICTED BY IDOCK:   -4.27 KCAL/MOL
REMARK 923 INTER-LIGAND FREE ENERGY PREDICTED BY IDOCK:   -3.66 KCAL/MOL
REMARK 924 INTRA-LIGAND FREE ENERGY PREDICTED BY IDOCK:   -0.61 KCAL/MOL
REMARK 927      BINDING AFFINITY PREDICTED BY RF-SCORE:    0.00 PKD
ROOT
HETATM    1  O   UNL     1      -5.132  15.851  66.755  1.00  0.00    -0.187 OA 
HETATM    2  C   UNL     1      -5.691  15.072  67.803  1.00  0.00    -0.090 C  
HETATM    3  H   UNL     1      -5.346  15.465  65.915  1.00  0.00     0.000 HD 
HETATM    4  C   UNL     1      -5.344  15.698  69.164  1.00  0.00    -0.100 C  
HETATM    5  C   UNL     1      -5.940  14.853  70.299  1.00  0.00    -0.157 C  
HETATM    6  C   UNL     1      -5.393  13.421  70.214  1.00  0.00    -0.115 C  
HETATM    7  C   UNL     1      -5.763  12.795  68.860  1.00  0.00    -0.072 C  
HETATM    8  C   UNL     1      -7.297  12.781  68.705  1.00  0.00    -0.099 C  
HETATM    9  C   UNL     1      -5.146  13.638  67.736  1.00  0.00    -0.020 C  
HETATM   10  C   UNL     1      -7.876  14.224  68.777  1.00  0.00    -0.128 C  
HETATM   11  C   UNL     1      -7.220  15.044  67.638  1.00  0.00    -0.208 C  
HETATM   12  C   UNL     1      -7.471  14.823  70.150  1.00  0.00     0.304 C  
ENDROOT
BRANCH  10  13
HETATM   13  N   UNL     1      -9.342  14.126  68.627  1.00  0.00    -0.300 NA 
HETATM   14  H   UNL     1      -9.725  15.011  68.295  1.00  0.00     0.000 HD 
BRANCH  13  15
HETATM   15  C   UNL     1      -9.795  13.015  67.766  1.00  0.00    -0.224 C  
BRANCH  15  16
HETATM   16  C   UNL     1     -10.193  13.518  66.376  1.00  0.00    -0.291 C  
HETATM   17  O   UNL     1     -10.524  14.695  66.216  1.00  0.00    -0.284 OA 
HETATM   18  N   UNL     1     -10.133  12.638  65.315  1.00  0.00    -0.277 N  
HETATM   19  C   UNL     1     -10.413  13.068  63.961  1.00  0.00    -0.312 C  
HETATM   20  C   UNL     1     -11.038  11.845  63.325  1.00  0.00    -0.390 C  
HETATM   21  C   UNL     1     -10.319  10.673  63.989  1.00  0.00    -0.262 C  
HETATM   22  C   UNL     1      -9.848  11.200  65.360  1.00  0.00    -0.242 C  
HETATM   23  C   UNL     1      -8.410  10.914  65.558  1.00  0.00    -0.079 C  
HETATM   24  N   UNL     1      -7.276  10.696  65.690  1.00  0.00    -0.122 NA 
ENDBRANCH  15  16
ENDBRANCH  13  15
ENDBRANCH  10  13
TORSDOF 3
ENDMDL
MODEL      225
REMARK 921   NORMALIZED FREE ENERGY PREDICTED BY IDOCK:   -3.08 KCAL/MOL
REMARK 922        TOTAL FREE ENERGY PREDICTED BY IDOCK:   -4.26 KCAL/MOL
REMARK 923 INTER-LIGAND FREE ENERGY PREDICTED BY IDOCK:   -3.66 KCAL/MOL
REMARK 924 INTRA-LIGAND FREE ENERGY PREDICTED BY IDOCK:   -0.60 KCAL/MOL
REMARK 927      BINDING AFFINITY PREDICTED BY RF-SCORE:    0.00 PKD
ROOT
HETATM    1  O   UNL     1      -6.986  11.517  67.592  1.00  0.00    -0.080 OA 
HETATM    2  C   UNL     1      -8.376  11.785  67.712  1.00  0.00    -0.146 C  
HETATM    3  H   UNL     1      -6.550  12.252  67.179  1.00  0.00     0.000 HD 
HETATM    4  C   UNL     1      -9.082  10.594  68.381  1.00  0.00    -0.156 C  
HETATM    5  C   UNL     1     -10.587  10.877  68.505  1.00  0.00    -0.219 C  
HETATM    6  C   UNL     1     -11.177  11.135  67.111  1.00  0.00    -0.320 C  
HETATM    7  C   UNL     1     -10.480  12.340  66.458  1.00  0.00    -0.254 C  
HETATM    8  C   UNL     1     -10.671  13.585  67.348  1.00  0.00    -0.269 C  
HETATM    9  C   UNL     1      -8.982  12.037  66.324  1.00  0.00    -0.129 C  
HETATM   10  C   UNL     1     -10.072  13.353  68.765  1.00  0.00    -0.085 C  
HETATM   11  C   UNL     1      -8.566  13.037  68.585  1.00  0.00     0.045 C  
HETATM   12  C   UNL     1     -10.791  12.124  69.383  1.00  0.00    -0.032 C  
ENDROOT
BRANCH  10  13
HETATM   13  N   UNL     1     -10.298  14.580  69.554  1.00  0.00    -0.425 NA 
HETATM   14  H   UNL     1     -10.808  14.364  70.411  1.00  0.00     0.000 HD 
BRANCH  13  15
HETATM   15  C   UNL     1      -9.072  15.341  69.865  1.00  0.00     0.110 C  
BRANCH  15  16
HETATM   16  C   UNL     1      -9.045  16.678  69.117  1.00  0.00    -0.157 C  
HETATM   17  O   UNL     1      -9.995  17.457  69.211  1.00  0.00    -0.227 OA 
HETATM   18  N   UNL     1      -7.924  16.997  68.378  1.00  0.00    -0.229 N  
HETATM   19  C   UNL     1      -7.797  18.279  67.716  1.00  0.00    -0.240 C  
HETATM   20  C   UNL     1      -6.995  17.956  66.474  1.00  0.00    -0.263 C  
HETATM   21  C   UNL     1      -6.052  16.840  66.920  1.00  0.00    -0.212 C  
HETATM   22  C   UNL     1      -6.763  16.145  68.100  1.00  0.00    -0.126 C  
HETATM   23  C   UNL     1      -5.852  16.034  69.259  1.00  0.00    -0.123 C  
HETATM   24  N   UNL     1      -5.128  15.969  70.167  1.00  0.00    -0.127 NA 
ENDBRANCH  15  16
ENDBRANCH  13  15
ENDBRANCH  10  13
TORSDOF 3
ENDMDL
MODEL      226
REMARK 921   NORMALIZED FREE ENERGY PREDICTED BY IDOCK:   -3.02 KCAL/MOL
REMARK 922        TOTAL FREE ENERGY PREDICTED BY IDOCK:   -4.19 KCAL/MOL
REMARK 923 INTER-LIGAND FREE ENERGY PREDICTED BY IDOCK:   -3.76 KCAL/MOL
REMARK 924 INTRA-LIGAND FREE ENERGY PREDICTED BY IDOCK:   -0.42 KCAL/MOL
REMARK 927      BINDING AFFINITY PREDICTED BY RF-SCORE:    0.00 PKD
ROOT
HETATM    1  O   UNL     1     -10.903   4.653  65.136  1.00  0.00    -0.534 OA 
HETATM    2  C   UNL     1      -9.700   4.758  65.884  1.00  0.00    -0.193 C  
HETATM    3  H   UNL     1     -11.651   4.698  65.720  1.00  0.00     0.000 HD 
HETATM    4  C   UNL     1      -8.489   4.685  64.939  1.00  0.00    -0.135 C  
HETATM    5  C   UNL     1      -7.186   4.790  65.745  1.00  0.00    -0.076 C  
HETATM    6  C   UNL     1      -7.129   3.653  66.776  1.00  0.00    -0.063 C  
HETATM    7  C   UNL     1      -8.331   3.745  67.730  1.00  0.00    -0.099 C  
HETATM    8  C   UNL     1      -8.309   5.109  68.450  1.00  0.00    -0.089 C  
HETATM    9  C   UNL     1      -9.625   3.622  66.914  1.00  0.00    -0.180 C  
HETATM   10  C   UNL     1      -8.377   6.279  67.425  1.00  0.00    -0.109 C  
HETATM   11  C   UNL     1      -9.687   6.111  66.616  1.00  0.00    -0.196 C  
HETATM   12  C   UNL     1      -7.157   6.142  66.477  1.00  0.00    -0.068 C  
ENDROOT
BRANCH  10  13
HETATM   13  N   UNL     1      -8.347   7.544  68.187  1.00  0.00    -0.124 NA 
HETATM   14  H   UNL     1      -7.572   7.541  68.851  1.00  0.00     0.000 HD 
BRANCH  13  15
HETATM   15  C   UNL     1      -8.304   8.759  67.352  1.00  0.00    -0.109 C  
BRANCH  15  16
HETATM   16  C   UNL     1      -8.436  10.024  68.206  1.00  0.00    -0.111 C  
HETATM   17  O   UNL     1      -7.571  10.299  69.039  1.00  0.00    -0.084 OA 
HETATM   18  N   UNL     1      -9.517  10.854  67.990  1.00  0.00    -0.159 N  
HETATM   19  C   UNL     1      -9.659  12.107  68.702  1.00  0.00    -0.060 C  
HETATM   20  C   UNL     1     -11.158  12.260  68.852  1.00  0.00    -0.291 C  
HETATM   21  C   UNL     1     -11.723  11.639  67.575  1.00  0.00    -0.288 C  
HETATM   22  C   UNL     1     -10.665  10.620  67.108  1.00  0.00    -0.272 C  
HETATM   23  C   UNL     1     -10.336  10.833  65.682  1.00  0.00    -0.230 C  
HETATM   24  N   UNL     1     -10.076  11.025  64.565  1.00  0.00    -0.295 NA 
ENDBRANCH  15  16
ENDBRANCH  13  15
ENDBRANCH  10  13
TORSDOF 3
ENDMDL
MODEL      227
REMARK 921   NORMALIZED FREE ENERGY PREDICTED BY IDOCK:   -3.01 KCAL/MOL
REMARK 922        TOTAL FREE ENERGY PREDICTED BY IDOCK:   -4.18 KCAL/MOL
REMARK 923 INTER-LIGAND FREE ENERGY PREDICTED BY IDOCK:   -4.05 KCAL/MOL
REMARK 924 INTRA-LIGAND FREE ENERGY PREDICTED BY IDOCK:   -0.14 KCAL/MOL
REMARK 927      BINDING AFFINITY PREDICTED BY RF-SCORE:    0.00 PKD
ROOT
HETATM    1  O   UNL     1      -5.875  10.553  66.100  1.00  0.00    -0.076 OA 
HETATM    2  C   UNL     1      -7.106   9.938  66.452  1.00  0.00    -0.096 C  
HETATM    3  H   UNL     1      -5.570  11.097  66.815  1.00  0.00     0.000 HD 
HETATM    4  C   UNL     1      -7.600   9.056  65.293  1.00  0.00    -0.098 C  
HETATM    5  C   UNL     1      -8.936   8.395  65.667  1.00  0.00    -0.183 C  
HETATM    6  C   UNL     1      -9.972   9.482  65.991  1.00  0.00    -0.348 C  
HETATM    7  C   UNL     1      -9.480  10.345  67.165  1.00  0.00    -0.183 C  
HETATM    8  C   UNL     1      -9.253   9.449  68.399  1.00  0.00    -0.127 C  
HETATM    9  C   UNL     1      -8.155  11.013  66.771  1.00  0.00    -0.151 C  
HETATM   10  C   UNL     1      -8.199   8.345  68.099  1.00  0.00    -0.124 C  
HETATM   11  C   UNL     1      -6.884   9.057  67.694  1.00  0.00    -0.070 C  
HETATM   12  C   UNL     1      -8.726   7.506  66.904  1.00  0.00    -0.131 C  
ENDROOT
BRANCH  10  13
HETATM   13  N   UNL     1      -8.042   7.530  69.321  1.00  0.00    -0.124 NA 
HETATM   14  H   UNL     1      -8.314   8.068  70.144  1.00  0.00     0.000 HD 
BRANCH  13  15
HETATM   15  C   UNL     1      -8.759   6.240  69.290  1.00  0.00    -0.124 C  
BRANCH  15  16
HETATM   16  C   UNL     1     -10.198   6.393  69.791  1.00  0.00    -0.186 C  
HETATM   17  O   UNL     1     -11.143   6.175  69.030  1.00  0.00    -0.353 OA 
HETATM   18  N   UNL     1     -10.403   6.739  71.111  1.00  0.00    -0.204 N  
HETATM   19  C   UNL     1     -11.735   6.819  71.672  1.00  0.00    -0.314 C  
HETATM   20  C   UNL     1     -11.621   7.925  72.698  1.00  0.00    -0.435 C  
HETATM   21  C   UNL     1     -10.198   7.786  73.236  1.00  0.00    -0.367 C  
HETATM   22  C   UNL     1      -9.392   7.115  72.106  1.00  0.00    -0.132 C  
HETATM   23  C   UNL     1      -8.647   5.948  72.624  1.00  0.00    -0.119 C  
HETATM   24  N   UNL     1      -8.082   5.023  73.045  1.00  0.00    -0.104 NA 
ENDBRANCH  15  16
ENDBRANCH  13  15
ENDBRANCH  10  13
TORSDOF 3
ENDMDL
MODEL      228
REMARK 921   NORMALIZED FREE ENERGY PREDICTED BY IDOCK:   -2.98 KCAL/MOL
REMARK 922        TOTAL FREE ENERGY PREDICTED BY IDOCK:   -4.15 KCAL/MOL
REMARK 923 INTER-LIGAND FREE ENERGY PREDICTED BY IDOCK:   -3.84 KCAL/MOL
REMARK 924 INTRA-LIGAND FREE ENERGY PREDICTED BY IDOCK:   -0.31 KCAL/MOL
REMARK 927      BINDING AFFINITY PREDICTED BY RF-SCORE:    0.00 PKD
ROOT
HETATM    1  O   UNL     1      -6.845  10.255  64.072  1.00  0.00    -0.212 OA 
HETATM    2  C   UNL     1      -7.638   9.786  65.153  1.00  0.00    -0.125 C  
HETATM    3  H   UNL     1      -6.391  11.050  64.325  1.00  0.00     0.000 HD 
HETATM    4  C   UNL     1      -8.374   8.500  64.742  1.00  0.00    -0.163 C  
HETATM    5  C   UNL     1      -9.239   7.994  65.907  1.00  0.00    -0.128 C  
HETATM    6  C   UNL     1     -10.247   9.082  66.306  1.00  0.00    -0.237 C  
HETATM    7  C   UNL     1      -9.503  10.357  66.735  1.00  0.00    -0.198 C  
HETATM    8  C   UNL     1      -8.579  10.034  67.927  1.00  0.00    -0.121 C  
HETATM    9  C   UNL     1      -8.657  10.861  65.558  1.00  0.00    -0.149 C  
HETATM   10  C   UNL     1      -7.540   8.940  67.544  1.00  0.00    -0.093 C  
HETATM   11  C   UNL     1      -6.718   9.480  66.347  1.00  0.00    -0.075 C  
HETATM   12  C   UNL     1      -8.329   7.678  67.106  1.00  0.00    -0.121 C  
ENDROOT
BRANCH  10  13
HETATM   13  N   UNL     1      -6.701   8.683  68.731  1.00  0.00    -0.057 NA 
HETATM   14  H   UNL     1      -6.420   9.563  69.165  1.00  0.00     0.000 HD 
BRANCH  13  15
HETATM   15  C   UNL     1      -7.315   7.790  69.732  1.00  0.00    -0.080 C  
BRANCH  15  16
HETATM   16  C   UNL     1      -8.044   8.589  70.816  1.00  0.00    -0.120 C  
HETATM   17  O   UNL     1      -7.622   9.697  71.155  1.00  0.00    -0.318 OA 
HETATM   18  N   UNL     1      -9.193   8.058  71.367  1.00  0.00    -0.139 N  
HETATM   19  C   UNL     1      -9.976   8.798  72.334  1.00  0.00    -0.154 C  
HETATM   20  C   UNL     1     -10.539   7.717  73.232  1.00  0.00    -0.411 C  
HETATM   21  C   UNL     1     -10.765   6.534  72.291  1.00  0.00    -0.252 C  
HETATM   22  C   UNL     1      -9.764   6.728  71.135  1.00  0.00    -0.174 C  
HETATM   23  C   UNL     1     -10.454   6.627  69.831  1.00  0.00    -0.209 C  
HETATM   24  N   UNL     1     -11.015   6.562  68.815  1.00  0.00    -0.302 NA 
ENDBRANCH  15  16
ENDBRANCH  13  15
ENDBRANCH  10  13
TORSDOF 3
ENDMDL
MODEL      229
REMARK 921   NORMALIZED FREE ENERGY PREDICTED BY IDOCK:   -2.92 KCAL/MOL
REMARK 922        TOTAL FREE ENERGY PREDICTED BY IDOCK:   -4.08 KCAL/MOL
REMARK 923 INTER-LIGAND FREE ENERGY PREDICTED BY IDOCK:   -3.68 KCAL/MOL
REMARK 924 INTRA-LIGAND FREE ENERGY PREDICTED BY IDOCK:   -0.40 KCAL/MOL
REMARK 927      BINDING AFFINITY PREDICTED BY RF-SCORE:    0.00 PKD
ROOT
HETATM    1  O   UNL     1     -11.330   4.237  64.347  1.00  0.00    -0.685 OA 
HETATM    2  C   UNL     1     -10.055   4.029  64.937  1.00  0.00    -0.205 C  
HETATM    3  H   UNL     1     -11.971   3.667  64.755  1.00  0.00     0.000 HD 
HETATM    4  C   UNL     1      -9.017   4.953  64.276  1.00  0.00    -0.065 C  
HETATM    5  C   UNL     1      -7.634   4.725  64.906  1.00  0.00    -0.077 C  
HETATM    6  C   UNL     1      -7.229   3.254  64.732  1.00  0.00    -0.066 C  
HETATM    7  C   UNL     1      -8.259   2.339  65.413  1.00  0.00    -0.086 C  
HETATM    8  C   UNL     1      -8.341   2.688  66.913  1.00  0.00    -0.095 C  
HETATM    9  C   UNL     1      -9.632   2.563  64.763  1.00  0.00    -0.052 C  
HETATM   10  C   UNL     1      -8.762   4.173  67.116  1.00  0.00    -0.110 C  
HETATM   11  C   UNL     1     -10.141   4.361  66.436  1.00  0.00    -0.235 C  
HETATM   12  C   UNL     1      -7.706   5.060  66.406  1.00  0.00    -0.092 C  
ENDROOT
BRANCH  10  13
HETATM   13  N   UNL     1      -8.813   4.429  68.569  1.00  0.00    -0.100 NA 
HETATM   14  H   UNL     1      -7.912   4.774  68.902  1.00  0.00     0.000 HD 
BRANCH  13  15
HETATM   15  C   UNL     1      -9.898   5.337  68.992  1.00  0.00    -0.167 C  
BRANCH  15  16
HETATM   16  C   UNL     1     -10.301   5.078  70.446  1.00  0.00    -0.227 C  
HETATM   17  O   UNL     1      -9.834   4.113  71.055  1.00  0.00    -0.185 OA 
HETATM   18  N   UNL     1     -11.160   5.967  71.059  1.00  0.00    -0.294 N  
HETATM   19  C   UNL     1     -11.517   5.830  72.456  1.00  0.00    -0.296 C  
HETATM   20  C   UNL     1     -12.938   6.348  72.510  1.00  0.00     0.393 C  
HETATM   21  C   UNL     1     -12.968   7.458  71.462  1.00  0.00    -0.421 C  
HETATM   22  C   UNL     1     -11.863   7.100  70.448  1.00  0.00    -0.191 C  
HETATM   23  C   UNL     1     -10.975   8.260  70.219  1.00  0.00    -0.232 C  
HETATM   24  N   UNL     1     -10.277   9.176  70.063  1.00  0.00    -0.193 NA 
ENDBRANCH  15  16
ENDBRANCH  13  15
ENDBRANCH  10  13
TORSDOF 3
ENDMDL
MODEL      230
REMARK 921   NORMALIZED FREE ENERGY PREDICTED BY IDOCK:   -2.90 KCAL/MOL
REMARK 922        TOTAL FREE ENERGY PREDICTED BY IDOCK:   -4.04 KCAL/MOL
REMARK 923 INTER-LIGAND FREE ENERGY PREDICTED BY IDOCK:   -3.69 KCAL/MOL
REMARK 924 INTRA-LIGAND FREE ENERGY PREDICTED BY IDOCK:   -0.36 KCAL/MOL
REMARK 927      BINDING AFFINITY PREDICTED BY RF-SCORE:    0.00 PKD
ROOT
HETATM    1  O   UNL     1     -11.089   7.722  67.862  1.00  0.00    -0.472 OA 
HETATM    2  C   UNL     1      -9.809   8.276  67.592  1.00  0.00    -0.169 C  
HETATM    3  H   UNL     1     -11.320   7.871  68.771  1.00  0.00     0.000 HD 
HETATM    4  C   UNL     1      -9.435   8.035  66.120  1.00  0.00    -0.193 C  
HETATM    5  C   UNL     1      -8.048   8.625  65.826  1.00  0.00    -0.114 C  
HETATM    6  C   UNL     1      -7.009   7.978  66.754  1.00  0.00    -0.073 C  
HETATM    7  C   UNL     1      -7.378   8.242  68.223  1.00  0.00    -0.095 C  
HETATM    8  C   UNL     1      -7.431   9.763  68.472  1.00  0.00    -0.079 C  
HETATM    9  C   UNL     1      -8.758   7.632  68.507  1.00  0.00    -0.128 C  
HETATM   10  C   UNL     1      -8.485  10.441  67.550  1.00  0.00    -0.115 C  
HETATM   11  C   UNL     1      -9.857   9.790  67.857  1.00  0.00    -0.176 C  
HETATM   12  C   UNL     1      -8.084  10.142  66.081  1.00  0.00    -0.123 C  
ENDROOT
BRANCH  10  13
HETATM   13  N   UNL     1      -8.472  11.888  67.843  1.00  0.00    -0.145 NA 
HETATM   14  H   UNL     1      -7.542  12.182  68.141  1.00  0.00     0.000 HD 
BRANCH  13  15
HETATM   15  C   UNL     1      -8.951  12.740  66.737  1.00  0.00    -0.188 C  
BRANCH  15  16
HETATM   16  C   UNL     1      -9.534  14.055  67.262  1.00  0.00    -0.231 C  
HETATM   17  O   UNL     1     -10.749  14.166  67.440  1.00  0.00    -0.279 OA 
HETATM   18  N   UNL     1      -8.667  15.086  67.564  1.00  0.00    -0.175 N  
HETATM   19  C   UNL     1      -9.141  16.325  68.143  1.00  0.00    -0.188 C  
HETATM   20  C   UNL     1      -8.200  17.364  67.572  1.00  0.00    -0.209 C  
HETATM   21  C   UNL     1      -6.864  16.632  67.460  1.00  0.00    -0.177 C  
HETATM   22  C   UNL     1      -7.221  15.138  67.325  1.00  0.00    -0.162 C  
HETATM   23  C   UNL     1      -6.456  14.333  68.301  1.00  0.00    -0.116 C  
HETATM   24  N   UNL     1      -5.859  13.717  69.087  1.00  0.00    -0.079 NA 
ENDBRANCH  15  16
ENDBRANCH  13  15
ENDBRANCH  10  13
TORSDOF 3
ENDMDL
MODEL      231
REMARK 921   NORMALIZED FREE ENERGY PREDICTED BY IDOCK:   -2.89 KCAL/MOL
REMARK 922        TOTAL FREE ENERGY PREDICTED BY IDOCK:   -4.04 KCAL/MOL
REMARK 923 INTER-LIGAND FREE ENERGY PREDICTED BY IDOCK:   -3.76 KCAL/MOL
REMARK 924 INTRA-LIGAND FREE ENERGY PREDICTED BY IDOCK:   -0.28 KCAL/MOL
REMARK 927      BINDING AFFINITY PREDICTED BY RF-SCORE:    0.00 PKD
ROOT
HETATM    1  O   UNL     1      -6.523  11.720  67.093  1.00  0.00    -0.118 OA 
HETATM    2  C   UNL     1      -7.566  10.790  66.839  1.00  0.00    -0.123 C  
HETATM    3  H   UNL     1      -6.667  12.146  67.929  1.00  0.00     0.000 HD 
HETATM    4  C   UNL     1      -7.332  10.100  65.484  1.00  0.00    -0.143 C  
HETATM    5  C   UNL     1      -8.463   9.099  65.201  1.00  0.00    -0.182 C  
HETATM    6  C   UNL     1      -9.811   9.836  65.201  1.00  0.00    -0.294 C  
HETATM    7  C   UNL     1     -10.046  10.505  66.565  1.00  0.00    -0.280 C  
HETATM    8  C   UNL     1     -10.035   9.429  67.671  1.00  0.00    -0.238 C  
HETATM    9  C   UNL     1      -8.920  11.514  66.827  1.00  0.00    -0.181 C  
HETATM   10  C   UNL     1      -8.674   8.675  67.698  1.00  0.00    -0.136 C  
HETATM   11  C   UNL     1      -7.566   9.727  67.950  1.00  0.00    -0.086 C  
HETATM   12  C   UNL     1      -8.469   8.027  66.304  1.00  0.00    -0.138 C  
ENDROOT
BRANCH  10  13
HETATM   13  N   UNL     1      -8.744   7.665  68.773  1.00  0.00    -0.129 NA 
HETATM   14  H   UNL     1      -7.924   7.731  69.377  1.00  0.00     0.000 HD 
BRANCH  13  15
HETATM   15  C   UNL     1      -9.980   7.713  69.578  1.00  0.00    -0.182 C  
BRANCH  15  16
HETATM   16  C   UNL     1      -9.731   8.373  70.937  1.00  0.00    -0.174 C  
HETATM   17  O   UNL     1     -10.153   9.511  71.158  1.00  0.00    -0.288 OA 
HETATM   18  N   UNL     1      -9.065   7.653  71.907  1.00  0.00    -0.124 N  
HETATM   19  C   UNL     1      -8.870   8.183  73.240  1.00  0.00    -0.256 C  
HETATM   20  C   UNL     1      -7.537   7.603  73.660  1.00  0.00    -0.152 C  
HETATM   21  C   UNL     1      -7.508   6.226  72.999  1.00  0.00    -0.096 C  
HETATM   22  C   UNL     1      -8.430   6.338  71.768  1.00  0.00    -0.129 C  
HETATM   23  C   UNL     1      -9.412   5.233  71.755  1.00  0.00    -0.148 C  
HETATM   24  N   UNL     1     -10.189   4.368  71.769  1.00  0.00    -0.166 NA 
ENDBRANCH  15  16
ENDBRANCH  13  15
ENDBRANCH  10  13
TORSDOF 3
ENDMDL
MODEL      232
REMARK 921   NORMALIZED FREE ENERGY PREDICTED BY IDOCK:   -2.87 KCAL/MOL
REMARK 922        TOTAL FREE ENERGY PREDICTED BY IDOCK:   -4.01 KCAL/MOL
REMARK 923 INTER-LIGAND FREE ENERGY PREDICTED BY IDOCK:   -5.24 KCAL/MOL
REMARK 924 INTRA-LIGAND FREE ENERGY PREDICTED BY IDOCK:    1.23 KCAL/MOL
REMARK 927      BINDING AFFINITY PREDICTED BY RF-SCORE:    0.00 PKD
ROOT
HETATM    1  O   UNL     1     -10.917  19.357  65.205  1.00  0.00    -0.430 OA 
HETATM    2  C   UNL     1     -10.189  18.994  66.370  1.00  0.00    -0.437 C  
HETATM    3  H   UNL     1     -10.419  19.128  64.429  1.00  0.00     0.000 HD 
HETATM    4  C   UNL     1     -10.994  19.365  67.626  1.00  0.00    -0.366 C  
HETATM    5  C   UNL     1     -10.207  18.982  68.888  1.00  0.00    -0.289 C  
HETATM    6  C   UNL     1      -8.853  19.707  68.887  1.00  0.00    -0.240 C  
HETATM    7  C   UNL     1      -8.046  19.315  67.639  1.00  0.00    -0.311 C  
HETATM    8  C   UNL     1      -7.824  17.789  67.632  1.00  0.00    -0.212 C  
HETATM    9  C   UNL     1      -8.836  19.719  66.387  1.00  0.00    -0.428 C  
HETATM   10  C   UNL     1      -9.182  17.030  67.622  1.00  0.00    -0.233 C  
HETATM   11  C   UNL     1      -9.952  17.474  66.354  1.00  0.00    -0.330 C  
HETATM   12  C   UNL     1      -9.969  17.462  68.888  1.00  0.00    -0.308 C  
ENDROOT
BRANCH  10  13
HETATM   13  N   UNL     1      -8.887  15.583  67.621  1.00  0.00    -0.177 NA 
HETATM   14  H   UNL     1      -9.287  15.137  68.447  1.00  0.00     0.000 HD 
BRANCH  13  15
HETATM   15  C   UNL     1      -9.310  14.874  66.398  1.00  0.00    -0.297 C  
BRANCH  15  16
HETATM   16  C   UNL     1      -9.076  13.366  66.523  1.00  0.00    -0.113 C  
HETATM   17  O   UNL     1      -9.655  12.586  65.763  1.00  0.00    -0.223 OA 
HETATM   18  N   UNL     1      -8.181  12.914  67.471  1.00  0.00    -0.172 N  
HETATM   19  C   UNL     1      -7.850  11.509  67.586  1.00  0.00    -0.125 C  
HETATM   20  C   UNL     1      -7.596  11.327  69.067  1.00  0.00    -0.106 C  
HETATM   21  C   UNL     1      -6.974  12.652  69.502  1.00  0.00     0.181 C  
HETATM   22  C   UNL     1      -7.490  13.701  68.497  1.00  0.00    -0.119 C  
HETATM   23  C   UNL     1      -6.366  14.487  67.945  1.00  0.00    -0.161 C  
HETATM   24  N   UNL     1      -5.468  15.084  67.509  1.00  0.00    -0.343 NA 
ENDBRANCH  15  16
ENDBRANCH  13  15
ENDBRANCH  10  13
TORSDOF 3
ENDMDL
MODEL      233
REMARK 921   NORMALIZED FREE ENERGY PREDICTED BY IDOCK:   -2.86 KCAL/MOL
REMARK 922        TOTAL FREE ENERGY PREDICTED BY IDOCK:   -4.01 KCAL/MOL
REMARK 923 INTER-LIGAND FREE ENERGY PREDICTED BY IDOCK:   -3.45 KCAL/MOL
REMARK 924 INTRA-LIGAND FREE ENERGY PREDICTED BY IDOCK:   -0.55 KCAL/MOL
REMARK 927      BINDING AFFINITY PREDICTED BY RF-SCORE:    0.00 PKD
ROOT
HETATM    1  O   UNL     1      -6.168  10.392  65.520  1.00  0.00    -0.108 OA 
HETATM    2  C   UNL     1      -7.433  10.343  66.164  1.00  0.00    -0.131 C  
HETATM    3  H   UNL     1      -5.490  10.588  66.155  1.00  0.00     0.000 HD 
HETATM    4  C   UNL     1      -8.531  10.026  65.134  1.00  0.00    -0.160 C  
HETATM    5  C   UNL     1      -9.902   9.980  65.825  1.00  0.00    -0.345 C  
HETATM    6  C   UNL     1     -10.179  11.329  66.505  1.00  0.00    -0.269 C  
HETATM    7  C   UNL     1      -9.089  11.628  67.546  1.00  0.00    -0.172 C  
HETATM    8  C   UNL     1      -9.068  10.503  68.601  1.00  0.00    -0.158 C  
HETATM    9  C   UNL     1      -7.728  11.689  66.840  1.00  0.00    -0.147 C  
HETATM   10  C   UNL     1      -8.778   9.126  67.939  1.00  0.00    -0.128 C  
HETATM   11  C   UNL     1      -7.406   9.232  67.228  1.00  0.00    -0.091 C  
HETATM   12  C   UNL     1      -9.890   8.868  66.888  1.00  0.00    -0.288 C  
ENDROOT
BRANCH  10  13
HETATM   13  N   UNL     1      -8.779   8.106  69.007  1.00  0.00    -0.143 NA 
HETATM   14  H   UNL     1      -8.827   8.551  69.924  1.00  0.00     0.000 HD 
BRANCH  13  15
HETATM   15  C   UNL     1      -9.836   7.084  68.875  1.00  0.00    -0.150 C  
BRANCH  15  16
HETATM   16  C   UNL     1      -9.398   5.751  69.489  1.00  0.00    -0.130 C  
HETATM   17  O   UNL     1      -9.528   5.556  70.700  1.00  0.00    -0.157 OA 
HETATM   18  N   UNL     1      -8.897   4.774  68.654  1.00  0.00    -0.097 N  
HETATM   19  C   UNL     1      -8.543   3.462  69.155  1.00  0.00    -0.071 C  
HETATM   20  C   UNL     1      -7.377   3.053  68.280  1.00  0.00    -0.049 C  
HETATM   21  C   UNL     1      -7.698   3.672  66.921  1.00  0.00    -0.080 C  
HETATM   22  C   UNL     1      -8.600   4.886  67.222  1.00  0.00    -0.104 C  
HETATM   23  C   UNL     1      -9.819   4.844  66.386  1.00  0.00    -0.209 C  
HETATM   24  N   UNL     1     -10.780   4.787  65.734  1.00  0.00    -0.266 NA 
ENDBRANCH  15  16
ENDBRANCH  13  15
ENDBRANCH  10  13
TORSDOF 3
ENDMDL
MODEL      234
REMARK 921   NORMALIZED FREE ENERGY PREDICTED BY IDOCK:   -2.84 KCAL/MOL
REMARK 922        TOTAL FREE ENERGY PREDICTED BY IDOCK:   -3.98 KCAL/MOL
REMARK 923 INTER-LIGAND FREE ENERGY PREDICTED BY IDOCK:   -3.52 KCAL/MOL
REMARK 924 INTRA-LIGAND FREE ENERGY PREDICTED BY IDOCK:   -0.46 KCAL/MOL
REMARK 927      BINDING AFFINITY PREDICTED BY RF-SCORE:    0.00 PKD
ROOT
HETATM    1  O   UNL     1     -11.521   8.547  69.835  1.00  0.00    -0.457 OA 
HETATM    2  C   UNL     1     -10.529   8.861  68.868  1.00  0.00    -0.205 C  
HETATM    3  H   UNL     1     -12.251   8.107  69.417  1.00  0.00     0.000 HD 
HETATM    4  C   UNL     1      -9.346   9.574  69.545  1.00  0.00    -0.199 C  
HETATM    5  C   UNL     1      -8.275   9.923  68.500  1.00  0.00    -0.106 C  
HETATM    6  C   UNL     1      -8.890  10.820  67.415  1.00  0.00    -0.129 C  
HETATM    7  C   UNL     1     -10.058  10.092  66.730  1.00  0.00    -0.286 C  
HETATM    8  C   UNL     1      -9.544   8.781  66.099  1.00  0.00    -0.323 C  
HETATM    9  C   UNL     1     -11.128   9.765  67.780  1.00  0.00    -0.142 C  
HETATM   10  C   UNL     1      -8.925   7.850  67.181  1.00  0.00    -0.129 C  
HETATM   11  C   UNL     1     -10.029   7.555  68.227  1.00  0.00    -0.193 C  
HETATM   12  C   UNL     1      -7.762   8.624  67.856  1.00  0.00    -0.102 C  
ENDROOT
BRANCH  10  13
HETATM   13  N   UNL     1      -8.454   6.626  66.502  1.00  0.00    -0.116 NA 
HETATM   14  H   UNL     1      -7.443   6.533  66.596  1.00  0.00     0.000 HD 
BRANCH  13  15
HETATM   15  C   UNL     1      -9.127   5.387  66.940  1.00  0.00    -0.114 C  
BRANCH  15  16
HETATM   16  C   UNL     1     -10.096   4.875  65.870  1.00  0.00    -0.211 C  
HETATM   17  O   UNL     1     -11.273   5.241  65.876  1.00  0.00     0.027 OA 
HETATM   18  N   UNL     1      -9.609   4.034  64.889  1.00  0.00    -0.169 N  
HETATM   19  C   UNL     1     -10.449   3.581  63.800  1.00  0.00    -0.265 C  
HETATM   20  C   UNL     1      -9.922   2.193  63.503  1.00  0.00    -0.132 C  
HETATM   21  C   UNL     1      -8.423   2.300  63.777  1.00  0.00    -0.085 C  
HETATM   22  C   UNL     1      -8.270   3.444  64.799  1.00  0.00    -0.090 C  
HETATM   23  C   UNL     1      -7.253   4.414  64.341  1.00  0.00    -0.062 C  
HETATM   24  N   UNL     1      -6.463   5.176  63.957  1.00  0.00    -0.032 NA 
ENDBRANCH  15  16
ENDBRANCH  13  15
ENDBRANCH  10  13
TORSDOF 3
ENDMDL
MODEL      235
REMARK 921   NORMALIZED FREE ENERGY PREDICTED BY IDOCK:   -2.79 KCAL/MOL
REMARK 922        TOTAL FREE ENERGY PREDICTED BY IDOCK:   -3.92 KCAL/MOL
REMARK 923 INTER-LIGAND FREE ENERGY PREDICTED BY IDOCK:   -3.53 KCAL/MOL
REMARK 924 INTRA-LIGAND FREE ENERGY PREDICTED BY IDOCK:   -0.39 KCAL/MOL
REMARK 927      BINDING AFFINITY PREDICTED BY RF-SCORE:    0.00 PKD
ROOT
HETATM    1  O   UNL     1      -9.819  19.041  65.874  1.00  0.00    -0.472 OA 
HETATM    2  C   UNL     1      -8.554  18.663  66.399  1.00  0.00    -0.271 C  
HETATM    3  H   UNL     1      -9.869  18.809  64.954  1.00  0.00     0.000 HD 
HETATM    4  C   UNL     1      -8.473  19.038  67.888  1.00  0.00    -0.329 C  
HETATM    5  C   UNL     1      -7.104  18.639  68.458  1.00  0.00    -0.297 C  
HETATM    6  C   UNL     1      -5.994  19.346  67.666  1.00  0.00    -0.209 C  
HETATM    7  C   UNL     1      -6.068  18.949  66.183  1.00  0.00    -0.207 C  
HETATM    8  C   UNL     1      -5.913  17.420  66.055  1.00  0.00    -0.096 C  
HETATM    9  C   UNL     1      -7.434  19.370  65.623  1.00  0.00    -0.167 C  
HETATM   10  C   UNL     1      -7.033  16.679  66.840  1.00  0.00    -0.227 C  
HETATM   11  C   UNL     1      -8.392  17.140  66.255  1.00  0.00    -0.298 C  
HETATM   12  C   UNL     1      -6.931  17.116  68.325  1.00  0.00    -0.187 C  
ENDROOT
BRANCH  10  13
HETATM   13  N   UNL     1      -6.813  15.229  66.673  1.00  0.00    -0.024 NA 
HETATM   14  H   UNL     1      -5.939  14.948  67.118  1.00  0.00     0.000 HD 
BRANCH  13  15
HETATM   15  C   UNL     1      -7.926  14.383  67.148  1.00  0.00    -0.119 C  
BRANCH  15  16
HETATM   16  C   UNL     1      -7.518  13.568  68.378  1.00  0.00    -0.124 C  
HETATM   17  O   UNL     1      -7.697  14.024  69.509  1.00  0.00     0.152 OA 
HETATM   18  N   UNL     1      -6.987  12.308  68.187  1.00  0.00    -0.079 N  
HETATM   19  C   UNL     1      -6.658  11.451  69.306  1.00  0.00    -0.106 C  
HETATM   20  C   UNL     1      -5.459  10.670  68.812  1.00  0.00    -0.041 C  
HETATM   21  C   UNL     1      -5.723  10.491  67.318  1.00  0.00    -0.041 C  
HETATM   22  C   UNL     1      -6.633  11.670  66.915  1.00  0.00    -0.129 C  
HETATM   23  C   UNL     1      -7.818  11.180  66.178  1.00  0.00    -0.072 C  
HETATM   24  N   UNL     1      -8.752  10.777  65.616  1.00  0.00    -0.187 NA 
ENDBRANCH  15  16
ENDBRANCH  13  15
ENDBRANCH  10  13
TORSDOF 3
ENDMDL
MODEL      236
REMARK 921   NORMALIZED FREE ENERGY PREDICTED BY IDOCK:   -2.77 KCAL/MOL
REMARK 922        TOTAL FREE ENERGY PREDICTED BY IDOCK:   -3.90 KCAL/MOL
REMARK 923 INTER-LIGAND FREE ENERGY PREDICTED BY IDOCK:   -3.36 KCAL/MOL
REMARK 924 INTRA-LIGAND FREE ENERGY PREDICTED BY IDOCK:   -0.55 KCAL/MOL
REMARK 927      BINDING AFFINITY PREDICTED BY RF-SCORE:    0.00 PKD
ROOT
HETATM    1  O   UNL     1     -10.889   9.706  66.901  1.00  0.00    -0.167 OA 
HETATM    2  C   UNL     1      -9.600  10.252  67.145  1.00  0.00    -0.168 C  
HETATM    3  H   UNL     1     -11.471   9.917  67.621  1.00  0.00     0.000 HD 
HETATM    4  C   UNL     1      -8.658   9.911  65.978  1.00  0.00    -0.147 C  
HETATM    5  C   UNL     1      -7.261  10.492  66.242  1.00  0.00    -0.133 C  
HETATM    6  C   UNL     1      -6.711   9.923  67.559  1.00  0.00    -0.073 C  
HETATM    7  C   UNL     1      -7.646  10.286  68.723  1.00  0.00    -0.093 C  
HETATM    8  C   UNL     1      -7.766  11.821  68.823  1.00  0.00    -0.091 C  
HETATM    9  C   UNL     1      -9.033   9.685  68.454  1.00  0.00    -0.123 C  
HETATM   10  C   UNL     1      -8.333  12.421  67.504  1.00  0.00    -0.173 C  
HETATM   11  C   UNL     1      -9.722  11.781  67.262  1.00  0.00    -0.188 C  
HETATM   12  C   UNL     1      -7.369  12.022  66.355  1.00  0.00     0.392 C  
ENDROOT
BRANCH  10  13
HETATM   13  N   UNL     1      -8.412  13.886  67.676  1.00  0.00    -0.178 NA 
HETATM   14  H   UNL     1      -9.363  14.164  67.920  1.00  0.00     0.000 HD 
BRANCH  13  15
HETATM   15  C   UNL     1      -7.449  14.440  68.647  1.00  0.00    -0.126 C  
BRANCH  15  16
HETATM   16  C   UNL     1      -6.554  15.500  67.998  1.00  0.00    -0.143 C  
HETATM   17  O   UNL     1      -5.568  15.158  67.342  1.00  0.00    -0.339 OA 
HETATM   18  N   UNL     1      -6.902  16.828  68.133  1.00  0.00    -0.146 N  
HETATM   19  C   UNL     1      -6.150  17.876  67.475  1.00  0.00    -0.155 C  
HETATM   20  C   UNL     1      -6.253  19.041  68.436  1.00  0.00    -0.239 C  
HETATM   21  C   UNL     1      -7.644  18.892  69.050  1.00  0.00    -0.283 C  
HETATM   22  C   UNL     1      -7.983  17.392  68.949  1.00  0.00    -0.187 C  
HETATM   23  C   UNL     1      -9.314  17.203  68.333  1.00  0.00    -0.273 C  
HETATM   24  N   UNL     1     -10.355  17.071  67.832  1.00  0.00    -0.323 NA 
ENDBRANCH  15  16
ENDBRANCH  13  15
ENDBRANCH  10  13
TORSDOF 3
ENDMDL
MODEL      237
REMARK 921   NORMALIZED FREE ENERGY PREDICTED BY IDOCK:   -2.77 KCAL/MOL
REMARK 922        TOTAL FREE ENERGY PREDICTED BY IDOCK:   -3.90 KCAL/MOL
REMARK 923 INTER-LIGAND FREE ENERGY PREDICTED BY IDOCK:   -3.29 KCAL/MOL
REMARK 924 INTRA-LIGAND FREE ENERGY PREDICTED BY IDOCK:   -0.61 KCAL/MOL
REMARK 927      BINDING AFFINITY PREDICTED BY RF-SCORE:    0.00 PKD
ROOT
HETATM    1  O   UNL     1     -10.913   5.765  72.759  1.00  0.00    -0.239 OA 
HETATM    2  C   UNL     1      -9.980   4.969  72.041  1.00  0.00    -0.184 C  
HETATM    3  H   UNL     1     -10.854   6.668  72.473  1.00  0.00     0.000 HD 
HETATM    4  C   UNL     1     -10.075   3.506  72.505  1.00  0.00    -0.235 C  
HETATM    5  C   UNL     1      -9.061   2.644  71.737  1.00  0.00    -0.150 C  
HETATM    6  C   UNL     1      -7.644   3.189  71.973  1.00  0.00    -0.053 C  
HETATM    7  C   UNL     1      -7.552   4.644  71.487  1.00  0.00    -0.082 C  
HETATM    8  C   UNL     1      -7.896   4.706  69.985  1.00  0.00    -0.060 C  
HETATM    9  C   UNL     1      -8.557   5.497  72.274  1.00  0.00    -0.126 C  
HETATM   10  C   UNL     1      -9.333   4.169  69.722  1.00  0.00    -0.167 C  
HETATM   11  C   UNL     1     -10.312   5.045  70.542  1.00  0.00    -0.285 C  
HETATM   12  C   UNL     1      -9.387   2.706  70.235  1.00  0.00    -0.201 C  
ENDROOT
BRANCH  10  13
HETATM   13  N   UNL     1      -9.584   4.255  68.269  1.00  0.00    -0.153 NA 
HETATM   14  H   UNL     1     -10.202   3.502  67.969  1.00  0.00     0.000 HD 
BRANCH  13  15
HETATM   15  C   UNL     1     -10.105   5.560  67.816  1.00  0.00    -0.173 C  
BRANCH  15  16
HETATM   16  C   UNL     1      -9.257   6.129  66.675  1.00  0.00    -0.144 C  
HETATM   17  O   UNL     1      -9.216   5.550  65.587  1.00  0.00    -0.154 OA 
HETATM   18  N   UNL     1      -8.582   7.314  66.884  1.00  0.00    -0.121 N  
HETATM   19  C   UNL     1      -7.831   7.952  65.823  1.00  0.00    -0.103 C  
HETATM   20  C   UNL     1      -6.682   8.615  66.553  1.00  0.00    -0.071 C  
HETATM   21  C   UNL     1      -7.287   9.036  67.891  1.00  0.00    -0.084 C  
HETATM   22  C   UNL     1      -8.461   8.067  68.137  1.00  0.00    -0.123 C  
HETATM   23  C   UNL     1      -9.692   8.818  68.466  1.00  0.00    -0.162 C  
HETATM   24  N   UNL     1     -10.654   9.425  68.707  1.00  0.00    -0.222 NA 
ENDBRANCH  15  16
ENDBRANCH  13  15
ENDBRANCH  10  13
TORSDOF 3
ENDMDL
MODEL      238
REMARK 921   NORMALIZED FREE ENERGY PREDICTED BY IDOCK:   -2.69 KCAL/MOL
REMARK 922        TOTAL FREE ENERGY PREDICTED BY IDOCK:   -3.81 KCAL/MOL
REMARK 923 INTER-LIGAND FREE ENERGY PREDICTED BY IDOCK:   -3.28 KCAL/MOL
REMARK 924 INTRA-LIGAND FREE ENERGY PREDICTED BY IDOCK:   -0.52 KCAL/MOL
REMARK 927      BINDING AFFINITY PREDICTED BY RF-SCORE:    0.00 PKD
ROOT
HETATM    1  O   UNL     1     -11.735   6.615  72.950  1.00  0.00    -0.485 OA 
HETATM    2  C   UNL     1     -10.909   6.402  71.814  1.00  0.00    -0.241 C  
HETATM    3  H   UNL     1     -11.639   7.508  73.257  1.00  0.00     0.000 HD 
HETATM    4  C   UNL     1     -11.066   4.955  71.318  1.00  0.00     0.423 C  
HETATM    5  C   UNL     1     -10.167   4.719  70.094  1.00  0.00    -0.259 C  
HETATM    6  C   UNL     1      -8.705   5.000  70.470  1.00  0.00    -0.132 C  
HETATM    7  C   UNL     1      -8.554   6.455  70.945  1.00  0.00    -0.135 C  
HETATM    8  C   UNL     1      -9.000   7.409  69.819  1.00  0.00    -0.141 C  
HETATM    9  C   UNL     1      -9.442   6.672  72.177  1.00  0.00    -0.146 C  
HETATM   10  C   UNL     1     -10.484   7.151  69.427  1.00  0.00    -0.222 C  
HETATM   11  C   UNL     1     -11.343   7.366  70.697  1.00  0.00    -0.304 C  
HETATM   12  C   UNL     1     -10.596   5.673  68.967  1.00  0.00    -0.316 C  
ENDROOT
BRANCH  10  13
HETATM   13  N   UNL     1     -10.833   8.095  68.346  1.00  0.00    -0.434 NA 
HETATM   14  H   UNL     1     -11.625   8.675  68.622  1.00  0.00     0.000 HD 
BRANCH  13  15
HETATM   15  C   UNL     1      -9.713   8.940  67.888  1.00  0.00    -0.160 C  
BRANCH  15  16
HETATM   16  C   UNL     1      -9.802   9.212  66.384  1.00  0.00    -0.280 C  
HETATM   17  O   UNL     1     -10.721   9.901  65.935  1.00  0.00     0.017 OA 
HETATM   18  N   UNL     1      -8.817   8.703  65.562  1.00  0.00    -0.189 N  
HETATM   19  C   UNL     1      -8.795   8.992  64.144  1.00  0.00    -0.029 C  
HETATM   20  C   UNL     1      -8.211   7.735  63.537  1.00  0.00     0.021 C  
HETATM   21  C   UNL     1      -7.213   7.246  64.585  1.00  0.00    -0.073 C  
HETATM   22  C   UNL     1      -7.723   7.799  65.931  1.00  0.00    -0.094 C  
HETATM   23  C   UNL     1      -6.633   8.494  66.650  1.00  0.00    -0.060 C  
HETATM   24  N   UNL     1      -5.770   9.051  67.195  1.00  0.00    -0.045 NA 
ENDBRANCH  15  16
ENDBRANCH  13  15
ENDBRANCH  10  13
TORSDOF 3
ENDMDL
MODEL      239
REMARK 921   NORMALIZED FREE ENERGY PREDICTED BY IDOCK:   -2.67 KCAL/MOL
REMARK 922        TOTAL FREE ENERGY PREDICTED BY IDOCK:   -3.78 KCAL/MOL
REMARK 923 INTER-LIGAND FREE ENERGY PREDICTED BY IDOCK:   -3.59 KCAL/MOL
REMARK 924 INTRA-LIGAND FREE ENERGY PREDICTED BY IDOCK:   -0.18 KCAL/MOL
REMARK 927      BINDING AFFINITY PREDICTED BY RF-SCORE:    0.00 PKD
ROOT
HETATM    1  O   UNL     1     -12.782  13.800  62.750  1.00  0.00    -0.707 OA 
HETATM    2  C   UNL     1     -12.066  13.327  63.882  1.00  0.00    -0.468 C  
HETATM    3  H   UNL     1     -13.411  14.458  63.018  1.00  0.00     0.000 HD 
HETATM    4  C   UNL     1     -11.046  12.261  63.447  1.00  0.00    -0.487 C  
HETATM    5  C   UNL     1     -10.276  11.740  64.670  1.00  0.00    -0.326 C  
HETATM    6  C   UNL     1     -11.266  11.151  65.686  1.00  0.00     0.008 C  
HETATM    7  C   UNL     1     -12.268  12.228  66.131  1.00  0.00    -0.002 C  
HETATM    8  C   UNL     1     -11.504  13.407  66.766  1.00  0.00    -0.376 C  
HETATM    9  C   UNL     1     -13.043  12.726  64.903  1.00  0.00     0.038 C  
HETATM   10  C   UNL     1     -10.501  14.030  65.752  1.00  0.00    -0.309 C  
HETATM   11  C   UNL     1     -11.317  14.506  64.525  1.00  0.00    -0.323 C  
HETATM   12  C   UNL     1      -9.517  12.910  65.319  1.00  0.00     0.243 C  
ENDROOT
BRANCH  10  13
HETATM   13  N   UNL     1      -9.808  15.142  66.432  1.00  0.00    -0.264 NA 
HETATM   14  H   UNL     1      -9.845  15.987  65.861  1.00  0.00     0.000 HD 
BRANCH  13  15
HETATM   15  C   UNL     1     -10.297  15.423  67.797  1.00  0.00    -0.253 C  
BRANCH  15  16
HETATM   16  C   UNL     1      -9.144  15.801  68.731  1.00  0.00    -0.213 C  
HETATM   17  O   UNL     1      -9.128  16.907  69.275  1.00  0.00    -0.144 OA 
HETATM   18  N   UNL     1      -8.159  14.866  68.974  1.00  0.00    -0.161 N  
HETATM   19  C   UNL     1      -7.087  15.127  69.912  1.00  0.00    -0.119 C  
HETATM   20  C   UNL     1      -5.911  14.379  69.320  1.00  0.00    -0.097 C  
HETATM   21  C   UNL     1      -6.543  13.148  68.672  1.00  0.00    -0.092 C  
HETATM   22  C   UNL     1      -7.993  13.555  68.339  1.00  0.00    -0.142 C  
HETATM   23  C   UNL     1      -8.944  12.549  68.859  1.00  0.00     0.324 C  
HETATM   24  N   UNL     1      -9.680  11.758  69.289  1.00  0.00     0.280 NA 
ENDBRANCH  15  16
ENDBRANCH  13  15
ENDBRANCH  10  13
TORSDOF 3
ENDMDL
MODEL      240
REMARK 921   NORMALIZED FREE ENERGY PREDICTED BY IDOCK:   -2.63 KCAL/MOL
REMARK 922        TOTAL FREE ENERGY PREDICTED BY IDOCK:   -3.73 KCAL/MOL
REMARK 923 INTER-LIGAND FREE ENERGY PREDICTED BY IDOCK:   -3.43 KCAL/MOL
REMARK 924 INTRA-LIGAND FREE ENERGY PREDICTED BY IDOCK:   -0.30 KCAL/MOL
REMARK 927      BINDING AFFINITY PREDICTED BY RF-SCORE:    0.00 PKD
ROOT
HETATM    1  O   UNL     1      -5.826   9.414  66.421  1.00  0.00    -0.056 OA 
HETATM    2  C   UNL     1      -7.065   8.936  66.924  1.00  0.00    -0.082 C  
HETATM    3  H   UNL     1      -5.808  10.363  66.455  1.00  0.00     0.000 HD 
HETATM    4  C   UNL     1      -7.094   7.399  66.869  1.00  0.00    -0.083 C  
HETATM    5  C   UNL     1      -8.436   6.878  67.405  1.00  0.00    -0.121 C  
HETATM    6  C   UNL     1      -9.583   7.466  66.569  1.00  0.00    -0.228 C  
HETATM    7  C   UNL     1      -9.560   9.001  66.648  1.00  0.00    -0.274 C  
HETATM    8  C   UNL     1      -9.703   9.440  68.119  1.00  0.00    -0.164 C  
HETATM    9  C   UNL     1      -8.222   9.508  66.093  1.00  0.00    -0.115 C  
HETATM   10  C   UNL     1      -8.544   8.866  68.985  1.00  0.00    -0.138 C  
HETATM   11  C   UNL     1      -7.215   9.389  68.386  1.00  0.00    -0.076 C  
HETATM   12  C   UNL     1      -8.595   7.319  68.870  1.00  0.00    -0.129 C  
ENDROOT
BRANCH  10  13
HETATM   13  N   UNL     1      -8.753   9.324  70.374  1.00  0.00    -0.210 NA 
HETATM   14  H   UNL     1      -9.707   9.665  70.496  1.00  0.00     0.000 HD 
BRANCH  13  15
HETATM   15  C   UNL     1      -8.431   8.318  71.404  1.00  0.00    -0.138 C  
BRANCH  15  16
HETATM   16  C   UNL     1      -9.700   7.789  72.079  1.00  0.00    -0.173 C  
HETATM   17  O   UNL     1     -10.720   8.480  72.103  1.00  0.00    -0.311 OA 
HETATM   18  N   UNL     1      -9.679   6.518  72.617  1.00  0.00    -0.161 N  
HETATM   19  C   UNL     1     -10.866   5.924  73.193  1.00  0.00    -0.266 C  
HETATM   20  C   UNL     1     -10.321   5.055  74.306  1.00  0.00    -0.317 C  
HETATM   21  C   UNL     1      -8.982   4.557  73.766  1.00  0.00    -0.103 C  
HETATM   22  C   UNL     1      -8.527   5.619  72.745  1.00  0.00    -0.120 C  
HETATM   23  C   UNL     1      -8.162   4.981  71.462  1.00  0.00    -0.114 C  
HETATM   24  N   UNL     1      -7.895   4.465  70.455  1.00  0.00    -0.052 NA 
ENDBRANCH  15  16
ENDBRANCH  13  15
ENDBRANCH  10  13
TORSDOF 3
ENDMDL
MODEL      241
REMARK 921   NORMALIZED FREE ENERGY PREDICTED BY IDOCK:   -2.42 KCAL/MOL
REMARK 922        TOTAL FREE ENERGY PREDICTED BY IDOCK:   -3.49 KCAL/MOL
REMARK 923 INTER-LIGAND FREE ENERGY PREDICTED BY IDOCK:   -3.17 KCAL/MOL
REMARK 924 INTRA-LIGAND FREE ENERGY PREDICTED BY IDOCK:   -0.32 KCAL/MOL
REMARK 927      BINDING AFFINITY PREDICTED BY RF-SCORE:    0.00 PKD
ROOT
HETATM    1  O   UNL     1      -7.037   9.062  67.940  1.00  0.00    -0.077 OA 
HETATM    2  C   UNL     1      -8.170   9.919  67.937  1.00  0.00    -0.113 C  
HETATM    3  H   UNL     1      -7.016   8.552  67.139  1.00  0.00     0.000 HD 
HETATM    4  C   UNL     1      -8.203  10.746  69.234  1.00  0.00    -0.087 C  
HETATM    5  C   UNL     1      -9.432  11.667  69.239  1.00  0.00     0.417 C  
HETATM    6  C   UNL     1     -10.707  10.821  69.111  1.00  0.00    -0.265 C  
HETATM    7  C   UNL     1     -10.676  10.014  67.803  1.00  0.00    -0.333 C  
HETATM    8  C   UNL     1     -10.566  10.982  66.608  1.00  0.00    -0.315 C  
HETATM    9  C   UNL     1      -9.454   9.086  67.819  1.00  0.00    -0.162 C  
HETATM   10  C   UNL     1      -9.275  11.845  66.708  1.00  0.00    -0.194 C  
HETATM   11  C   UNL     1      -8.069  10.873  66.735  1.00  0.00    -0.142 C  
HETATM   12  C   UNL     1      -9.339  12.632  68.044  1.00  0.00    -0.209 C  
ENDROOT
BRANCH  10  13
HETATM   13  N   UNL     1      -9.245  12.744  65.537  1.00  0.00    -0.342 NA 
HETATM   14  H   UNL     1     -10.156  12.762  65.078  1.00  0.00     0.000 HD 
BRANCH  13  15
HETATM   15  C   UNL     1      -8.791  14.117  65.833  1.00  0.00     0.710 C  
BRANCH  15  16
HETATM   16  C   UNL     1      -9.974  15.086  65.915  1.00  0.00    -0.326 C  
HETATM   17  O   UNL     1     -11.122  14.677  65.728  1.00  0.00    -0.317 OA 
HETATM   18  N   UNL     1      -9.725  16.404  66.240  1.00  0.00    -0.289 N  
HETATM   19  C   UNL     1     -10.804  17.354  66.417  1.00  0.00     0.057 C  
HETATM   20  C   UNL     1     -10.207  18.659  65.938  1.00  0.00    -0.284 C  
HETATM   21  C   UNL     1      -8.736  18.564  66.339  1.00  0.00    -0.274 C  
HETATM   22  C   UNL     1      -8.421  17.056  66.401  1.00  0.00    -0.283 C  
HETATM   23  C   UNL     1      -7.773  16.714  67.685  1.00  0.00    -0.166 C  
HETATM   24  N   UNL     1      -7.280  16.461  68.707  1.00  0.00    -0.178 NA 
ENDBRANCH  15  16
ENDBRANCH  13  15
ENDBRANCH  10  13
TORSDOF 3
ENDMDL
MODEL      242
REMARK 921   NORMALIZED FREE ENERGY PREDICTED BY IDOCK:   -2.42 KCAL/MOL
REMARK 922        TOTAL FREE ENERGY PREDICTED BY IDOCK:   -3.48 KCAL/MOL
REMARK 923 INTER-LIGAND FREE ENERGY PREDICTED BY IDOCK:   -2.93 KCAL/MOL
REMARK 924 INTRA-LIGAND FREE ENERGY PREDICTED BY IDOCK:   -0.55 KCAL/MOL
REMARK 927      BINDING AFFINITY PREDICTED BY RF-SCORE:    0.00 PKD
ROOT
HETATM    1  O   UNL     1      -6.603   8.937  64.584  1.00  0.00    -0.066 OA 
HETATM    2  C   UNL     1      -6.669   8.921  66.002  1.00  0.00    -0.069 C  
HETATM    3  H   UNL     1      -7.475   8.843  64.219  1.00  0.00     0.000 HD 
HETATM    4  C   UNL     1      -5.256   9.072  66.593  1.00  0.00    -0.038 C  
HETATM    5  C   UNL     1      -5.322   9.047  68.127  1.00  0.00    -0.034 C  
HETATM    6  C   UNL     1      -5.957   7.727  68.591  1.00  0.00    -0.035 C  
HETATM    7  C   UNL     1      -7.376   7.593  68.014  1.00  0.00    -0.099 C  
HETATM    8  C   UNL     1      -8.234   8.784  68.486  1.00  0.00    -0.117 C  
HETATM    9  C   UNL     1      -7.293   7.603  66.481  1.00  0.00    -0.087 C  
HETATM   10  C   UNL     1      -7.617  10.134  68.019  1.00  0.00    -0.088 C  
HETATM   11  C   UNL     1      -7.539  10.098  66.473  1.00  0.00    -0.109 C  
HETATM   12  C   UNL     1      -6.186  10.225  68.611  1.00  0.00    -0.047 C  
ENDROOT
BRANCH  10  13
HETATM   13  N   UNL     1      -8.489  11.220  68.512  1.00  0.00    -0.153 NA 
HETATM   14  H   UNL     1      -7.946  11.896  69.049  1.00  0.00     0.000 HD 
BRANCH  13  15
HETATM   15  C   UNL     1      -9.267  11.903  67.461  1.00  0.00    -0.177 C  
BRANCH  15  16
HETATM   16  C   UNL     1     -10.000  13.126  68.020  1.00  0.00    -0.233 C  
HETATM   17  O   UNL     1     -11.079  12.987  68.601  1.00  0.00    -0.245 OA 
HETATM   18  N   UNL     1      -9.407  14.366  67.891  1.00  0.00    -0.197 N  
HETATM   19  C   UNL     1     -10.004  15.551  68.470  1.00  0.00    -0.208 C  
HETATM   20  C   UNL     1      -9.619  16.649  67.502  1.00  0.00    -0.242 C  
HETATM   21  C   UNL     1      -8.236  16.234  67.003  1.00  0.00    -0.238 C  
HETATM   22  C   UNL     1      -8.184  14.701  67.155  1.00  0.00    -0.201 C  
HETATM   23  C   UNL     1      -6.959  14.294  67.877  1.00  0.00    -0.164 C  
HETATM   24  N   UNL     1      -6.000  13.993  68.461  1.00  0.00    -0.085 NA 
ENDBRANCH  15  16
ENDBRANCH  13  15
ENDBRANCH  10  13
TORSDOF 3
ENDMDL
MODEL      243
REMARK 921   NORMALIZED FREE ENERGY PREDICTED BY IDOCK:   -2.40 KCAL/MOL
REMARK 922        TOTAL FREE ENERGY PREDICTED BY IDOCK:   -3.46 KCAL/MOL
REMARK 923 INTER-LIGAND FREE ENERGY PREDICTED BY IDOCK:   -3.57 KCAL/MOL
REMARK 924 INTRA-LIGAND FREE ENERGY PREDICTED BY IDOCK:    0.11 KCAL/MOL
REMARK 927      BINDING AFFINITY PREDICTED BY RF-SCORE:    0.00 PKD
ROOT
HETATM    1  O   UNL     1      -8.672  19.230  69.510  1.00  0.00     0.022 OA 
HETATM    2  C   UNL     1      -8.892  19.148  68.109  1.00  0.00    -0.319 C  
HETATM    3  H   UNL     1      -9.486  19.438  69.954  1.00  0.00     0.000 HD 
HETATM    4  C   UNL     1      -7.574  18.811  67.392  1.00  0.00    -0.239 C  
HETATM    5  C   UNL     1      -7.806  18.731  65.876  1.00  0.00    -0.101 C  
HETATM    6  C   UNL     1      -8.362  20.071  65.371  1.00  0.00     0.516 C  
HETATM    7  C   UNL     1      -9.690  20.390  66.077  1.00  0.00    -0.252 C  
HETATM    8  C   UNL     1     -10.703  19.261  65.797  1.00  0.00    -0.417 C  
HETATM    9  C   UNL     1      -9.440  20.485  67.589  1.00  0.00    -0.456 C  
HETATM   10  C   UNL     1     -10.167  17.893  66.309  1.00  0.00    -0.363 C  
HETATM   11  C   UNL     1      -9.915  18.034  67.831  1.00  0.00    -0.335 C  
HETATM   12  C   UNL     1      -8.824  17.615  65.583  1.00  0.00     0.574 C  
ENDROOT
BRANCH  10  13
HETATM   13  N   UNL     1     -11.185  16.869  66.001  1.00  0.00     0.357 NA 
HETATM   14  H   UNL     1     -11.506  16.965  65.037  1.00  0.00     0.000 HD 
BRANCH  13  15
HETATM   15  C   UNL     1     -10.755  15.482  66.264  1.00  0.00    -0.307 C  
BRANCH  15  16
HETATM   16  C   UNL     1     -11.774  14.742  67.137  1.00  0.00    -0.334 C  
HETATM   17  O   UNL     1     -12.665  14.071  66.612  1.00  0.00    -0.255 OA 
HETATM   18  N   UNL     1     -11.643  14.817  68.509  1.00  0.00    -0.307 N  
HETATM   19  C   UNL     1     -12.519  14.075  69.391  1.00  0.00    -0.068 C  
HETATM   20  C   UNL     1     -12.641  14.972  70.603  1.00  0.00    -0.429 C  
HETATM   21  C   UNL     1     -11.273  15.644  70.707  1.00  0.00    -0.396 C  
HETATM   22  C   UNL     1     -10.701  15.638  69.275  1.00  0.00    -0.239 C  
HETATM   23  C   UNL     1      -9.330  15.083  69.268  1.00  0.00    -0.162 C  
HETATM   24  N   UNL     1      -8.260  14.628  69.278  1.00  0.00    -0.063 NA 
ENDBRANCH  15  16
ENDBRANCH  13  15
ENDBRANCH  10  13
TORSDOF 3
ENDMDL
MODEL      244
REMARK 921   NORMALIZED FREE ENERGY PREDICTED BY IDOCK:   -2.39 KCAL/MOL
REMARK 922        TOTAL FREE ENERGY PREDICTED BY IDOCK:   -3.45 KCAL/MOL
REMARK 923 INTER-LIGAND FREE ENERGY PREDICTED BY IDOCK:   -3.23 KCAL/MOL
REMARK 924 INTRA-LIGAND FREE ENERGY PREDICTED BY IDOCK:   -0.22 KCAL/MOL
REMARK 927      BINDING AFFINITY PREDICTED BY RF-SCORE:    0.00 PKD
ROOT
HETATM    1  O   UNL     1      -6.427   8.730  65.842  1.00  0.00    -0.056 OA 
HETATM    2  C   UNL     1      -7.555   8.548  66.686  1.00  0.00    -0.082 C  
HETATM    3  H   UNL     1      -5.720   9.134  66.331  1.00  0.00     0.000 HD 
HETATM    4  C   UNL     1      -8.700   7.894  65.894  1.00  0.00    -0.180 C  
HETATM    5  C   UNL     1      -9.925   7.703  66.801  1.00  0.00    -0.317 C  
HETATM    6  C   UNL     1     -10.368   9.065  67.357  1.00  0.00    -0.335 C  
HETATM    7  C   UNL     1      -9.226   9.702  68.164  1.00  0.00    -0.130 C  
HETATM    8  C   UNL     1      -8.834   8.764  69.324  1.00  0.00    -0.140 C  
HETATM    9  C   UNL     1      -8.015   9.903  67.242  1.00  0.00    -0.109 C  
HETATM   10  C   UNL     1      -8.370   7.379  68.786  1.00  0.00    -0.129 C  
HETATM   11  C   UNL     1      -7.160   7.627  67.852  1.00  0.00    -0.085 C  
HETATM   12  C   UNL     1      -9.544   6.777  67.969  1.00  0.00    -0.117 C  
ENDROOT
BRANCH  10  13
HETATM   13  N   UNL     1      -8.019   6.541  69.950  1.00  0.00    -0.114 NA 
HETATM   14  H   UNL     1      -7.104   6.112  69.817  1.00  0.00     0.000 HD 
BRANCH  13  15
HETATM   15  C   UNL     1      -8.073   7.244  71.247  1.00  0.00    -0.102 C  
BRANCH  15  16
HETATM   16  C   UNL     1      -7.929   6.264  72.415  1.00  0.00    -0.104 C  
HETATM   17  O   UNL     1      -6.982   6.371  73.198  1.00  0.00    -0.074 OA 
HETATM   18  N   UNL     1      -8.898   5.297  72.587  1.00  0.00    -0.123 N  
HETATM   19  C   UNL     1      -8.869   4.392  73.717  1.00  0.00    -0.104 C  
HETATM   20  C   UNL     1      -9.460   3.114  73.162  1.00  0.00    -0.127 C  
HETATM   21  C   UNL     1     -10.501   3.595  72.153  1.00  0.00    -0.018 C  
HETATM   22  C   UNL     1     -10.023   4.989  71.698  1.00  0.00    -0.187 C  
HETATM   23  C   UNL     1     -11.120   5.974  71.812  1.00  0.00    -0.276 C  
HETATM   24  N   UNL     1     -11.988   6.740  71.923  1.00  0.00    -0.321 NA 
ENDBRANCH  15  16
ENDBRANCH  13  15
ENDBRANCH  10  13
TORSDOF 3
ENDMDL
MODEL      245
REMARK 921   NORMALIZED FREE ENERGY PREDICTED BY IDOCK:   -2.37 KCAL/MOL
REMARK 922        TOTAL FREE ENERGY PREDICTED BY IDOCK:   -3.43 KCAL/MOL
REMARK 923 INTER-LIGAND FREE ENERGY PREDICTED BY IDOCK:   -3.00 KCAL/MOL
REMARK 924 INTRA-LIGAND FREE ENERGY PREDICTED BY IDOCK:   -0.43 KCAL/MOL
REMARK 927      BINDING AFFINITY PREDICTED BY RF-SCORE:    0.00 PKD
ROOT
HETATM    1  O   UNL     1     -11.233   8.760  69.251  1.00  0.00    -0.435 OA 
HETATM    2  C   UNL     1      -9.841   8.493  69.167  1.00  0.00    -0.186 C  
HETATM    3  H   UNL     1     -11.536   9.155  68.442  1.00  0.00     0.000 HD 
HETATM    4  C   UNL     1      -9.352   7.853  70.478  1.00  0.00    -0.162 C  
HETATM    5  C   UNL     1      -7.844   7.571  70.394  1.00  0.00    -0.097 C  
HETATM    6  C   UNL     1      -7.091   8.883  70.126  1.00  0.00    -0.048 C  
HETATM    7  C   UNL     1      -7.571   9.505  68.805  1.00  0.00    -0.076 C  
HETATM    8  C   UNL     1      -7.322   8.511  67.652  1.00  0.00    -0.089 C  
HETATM    9  C   UNL     1      -9.074   9.798  68.908  1.00  0.00    -0.148 C  
HETATM   10  C   UNL     1      -8.084   7.176  67.895  1.00  0.00    -0.119 C  
HETATM   11  C   UNL     1      -9.591   7.516  68.007  1.00  0.00    -0.156 C  
HETATM   12  C   UNL     1      -7.581   6.589  69.240  1.00  0.00    -0.100 C  
ENDROOT
BRANCH  10  13
HETATM   13  N   UNL     1      -7.793   6.281  66.757  1.00  0.00    -0.103 NA 
HETATM   14  H   UNL     1      -8.032   5.317  66.992  1.00  0.00     0.000 HD 
BRANCH  13  15
HETATM   15  C   UNL     1      -8.436   6.676  65.489  1.00  0.00    -0.131 C  
BRANCH  15  16
HETATM   16  C   UNL     1      -7.934   5.820  64.322  1.00  0.00    -0.125 C  
HETATM   17  O   UNL     1      -6.980   6.202  63.642  1.00  0.00    -0.042 OA 
HETATM   18  N   UNL     1      -8.548   4.608  64.083  1.00  0.00    -0.132 N  
HETATM   19  C   UNL     1      -8.070   3.712  63.051  1.00  0.00    -0.080 C  
HETATM   20  C   UNL     1      -9.331   3.033  62.561  1.00  0.00    -0.089 C  
HETATM   21  C   UNL     1     -10.201   2.921  63.812  1.00  0.00    -0.176 C  
HETATM   22  C   UNL     1      -9.740   4.062  64.740  1.00  0.00    -0.187 C  
HETATM   23  C   UNL     1      -9.452   3.543  66.095  1.00  0.00    -0.138 C  
HETATM   24  N   UNL     1      -9.214   3.116  67.149  1.00  0.00    -0.180 NA 
ENDBRANCH  15  16
ENDBRANCH  13  15
ENDBRANCH  10  13
TORSDOF 3
ENDMDL
MODEL      246
REMARK 921   NORMALIZED FREE ENERGY PREDICTED BY IDOCK:   -2.11 KCAL/MOL
REMARK 922        TOTAL FREE ENERGY PREDICTED BY IDOCK:   -3.13 KCAL/MOL
REMARK 923 INTER-LIGAND FREE ENERGY PREDICTED BY IDOCK:   -2.57 KCAL/MOL
REMARK 924 INTRA-LIGAND FREE ENERGY PREDICTED BY IDOCK:   -0.55 KCAL/MOL
REMARK 927      BINDING AFFINITY PREDICTED BY RF-SCORE:    0.00 PKD
ROOT
HETATM    1  O   UNL     1     -10.875   7.243  70.677  1.00  0.00    -0.231 OA 
HETATM    2  C   UNL     1      -9.484   7.521  70.604  1.00  0.00    -0.164 C  
HETATM    3  H   UNL     1     -11.364   7.925  70.232  1.00  0.00     0.000 HD 
HETATM    4  C   UNL     1      -8.692   6.416  71.324  1.00  0.00    -0.135 C  
HETATM    5  C   UNL     1      -7.187   6.718  71.254  1.00  0.00    -0.077 C  
HETATM    6  C   UNL     1      -6.908   8.084  71.899  1.00  0.00    -0.070 C  
HETATM    7  C   UNL     1      -7.686   9.184  71.161  1.00  0.00    -0.116 C  
HETATM    8  C   UNL     1      -7.260   9.206  69.679  1.00  0.00    -0.061 C  
HETATM    9  C   UNL     1      -9.188   8.880  71.253  1.00  0.00    -0.328 C  
HETATM   10  C   UNL     1      -7.543   7.835  68.999  1.00  0.00    -0.100 C  
HETATM   11  C   UNL     1      -9.062   7.559  69.125  1.00  0.00    -0.138 C  
HETATM   12  C   UNL     1      -6.751   6.752  69.780  1.00  0.00    -0.050 C  
ENDROOT
BRANCH  10  13
HETATM   13  N   UNL     1      -7.105   7.933  67.592  1.00  0.00    -0.081 NA 
HETATM   14  H   UNL     1      -6.635   7.075  67.304  1.00  0.00     0.000 HD 
BRANCH  13  15
HETATM   15  C   UNL     1      -8.181   8.274  66.640  1.00  0.00    -0.106 C  
BRANCH  15  16
HETATM   16  C   UNL     1      -7.727   8.066  65.193  1.00  0.00    -0.105 C  
HETATM   17  O   UNL     1      -7.220   8.997  64.564  1.00  0.00    -0.094 OA 
HETATM   18  N   UNL     1      -7.863   6.811  64.634  1.00  0.00    -0.112 N  
HETATM   19  C   UNL     1      -7.378   6.523  63.300  1.00  0.00    -0.067 C  
HETATM   20  C   UNL     1      -8.360   5.494  62.783  1.00  0.00    -0.097 C  
HETATM   21  C   UNL     1      -8.740   4.688  64.023  1.00  0.00    -0.141 C  
HETATM   22  C   UNL     1      -8.522   5.638  65.217  1.00  0.00    -0.147 C  
HETATM   23  C   UNL     1      -7.697   4.983  66.255  1.00  0.00    -0.092 C  
HETATM   24  N   UNL     1      -7.033   4.460  67.053  1.00  0.00    -0.062 NA 
ENDBRANCH  15  16
ENDBRANCH  13  15
ENDBRANCH  10  13
TORSDOF 3
ENDMDL
MODEL      247
REMARK 921   NORMALIZED FREE ENERGY PREDICTED BY IDOCK:   -1.75 KCAL/MOL
REMARK 922        TOTAL FREE ENERGY PREDICTED BY IDOCK:   -2.70 KCAL/MOL
REMARK 923 INTER-LIGAND FREE ENERGY PREDICTED BY IDOCK:   -3.05 KCAL/MOL
REMARK 924 INTRA-LIGAND FREE ENERGY PREDICTED BY IDOCK:    0.35 KCAL/MOL
REMARK 927      BINDING AFFINITY PREDICTED BY RF-SCORE:    0.00 PKD
ROOT
HETATM    1  O   UNL     1     -11.520   8.556  69.838  1.00  0.00    -0.457 OA 
HETATM    2  C   UNL     1     -10.523   8.885  68.881  1.00  0.00    -0.205 C  
HETATM    3  H   UNL     1     -12.251   8.129  69.408  1.00  0.00     0.000 HD 
HETATM    4  C   UNL     1      -9.339   9.577  69.577  1.00  0.00    -0.199 C  
HETATM    5  C   UNL     1      -8.262   9.942  68.545  1.00  0.00    -0.106 C  
HETATM    6  C   UNL     1      -8.868  10.866  67.478  1.00  0.00    -0.133 C  
HETATM    7  C   UNL     1     -10.037  10.160  66.772  1.00  0.00    -0.277 C  
HETATM    8  C   UNL     1      -9.529   8.860  66.115  1.00  0.00    -0.318 C  
HETATM    9  C   UNL     1     -11.113   9.816  67.812  1.00  0.00    -0.142 C  
HETATM   10  C   UNL     1      -8.918   7.902  67.179  1.00  0.00    -0.129 C  
HETATM   11  C   UNL     1     -10.028   7.591  68.214  1.00  0.00    -0.193 C  
HETATM   12  C   UNL     1      -7.753   8.655  67.874  1.00  0.00    -0.102 C  
ENDROOT
BRANCH  10  13
HETATM   13  N   UNL     1      -8.452   6.690  66.474  1.00  0.00    -0.116 NA 
HETATM   14  H   UNL     1      -7.447   6.570  66.600  1.00  0.00     0.000 HD 
BRANCH  13  15
HETATM   15  C   UNL     1      -9.168   5.454  66.846  1.00  0.00    -0.121 C  
BRANCH  15  16
HETATM   16  C   UNL     1      -8.214   4.258  66.907  1.00  0.00    -0.101 C  
HETATM   17  O   UNL     1      -7.940   3.634  65.879  1.00  0.00    -0.091 OA 
HETATM   18  N   UNL     1      -7.647   3.928  68.121  1.00  0.00    -0.066 N  
HETATM   19  C   UNL     1      -6.673   2.862  68.234  1.00  0.00    -0.040 C  
HETATM   20  C   UNL     1      -6.933   2.291  69.611  1.00  0.00    -0.033 C  
HETATM   21  C   UNL     1      -7.353   3.503  70.442  1.00  0.00    -0.041 C  
HETATM   22  C   UNL     1      -7.941   4.511  69.434  1.00  0.00    -0.061 C  
HETATM   23  C   UNL     1      -7.322   5.842  69.613  1.00  0.00    -0.071 C  
HETATM   24  N   UNL     1      -6.814   6.877  69.756  1.00  0.00    -0.049 NA 
ENDBRANCH  15  16
ENDBRANCH  13  15
ENDBRANCH  10  13
TORSDOF 3
ENDMDL
MODEL      248
REMARK 921   NORMALIZED FREE ENERGY PREDICTED BY IDOCK:   -1.70 KCAL/MOL
REMARK 922        TOTAL FREE ENERGY PREDICTED BY IDOCK:   -2.63 KCAL/MOL
REMARK 923 INTER-LIGAND FREE ENERGY PREDICTED BY IDOCK:   -3.49 KCAL/MOL
REMARK 924 INTRA-LIGAND FREE ENERGY PREDICTED BY IDOCK:    0.86 KCAL/MOL
REMARK 927      BINDING AFFINITY PREDICTED BY RF-SCORE:    0.00 PKD
ROOT
HETATM    1  O   UNL     1     -12.473  16.484  74.401  1.00  0.00    -0.724 OA 
HETATM    2  C   UNL     1     -12.729  15.704  73.242  1.00  0.00    -0.510 C  
HETATM    3  H   UNL     1     -11.626  16.255  74.764  1.00  0.00     0.000 HD 
HETATM    4  C   UNL     1     -14.101  16.075  72.654  1.00  0.00    -0.227 C  
HETATM    5  C   UNL     1     -14.385  15.227  71.405  1.00  0.00    -0.578 C  
HETATM    6  C   UNL     1     -14.348  13.738  71.778  1.00  0.00    -0.145 C  
HETATM    7  C   UNL     1     -12.967  13.370  72.345  1.00  0.00    -0.372 C  
HETATM    8  C   UNL     1     -11.884  13.675  71.290  1.00  0.00     0.278 C  
HETATM    9  C   UNL     1     -12.704  14.212  73.601  1.00  0.00     0.563 C  
HETATM   10  C   UNL     1     -11.894  15.183  70.903  1.00  0.00    -0.325 C  
HETATM   11  C   UNL     1     -11.639  15.995  72.197  1.00  0.00    -0.499 C  
HETATM   12  C   UNL     1     -13.304  15.515  70.349  1.00  0.00     0.067 C  
ENDROOT
BRANCH  10  13
HETATM   13  N   UNL     1     -10.838  15.392  69.891  1.00  0.00    -0.272 NA 
HETATM   14  H   UNL     1     -10.087  15.966  70.274  1.00  0.00     0.000 HD 
BRANCH  13  15
HETATM   15  C   UNL     1     -10.291  14.149  69.313  1.00  0.00    -0.008 C  
BRANCH  15  16
HETATM   16  C   UNL     1     -10.913  13.853  67.945  1.00  0.00    -0.250 C  
HETATM   17  O   UNL     1     -11.417  12.751  67.721  1.00  0.00    -0.283 OA 
HETATM   18  N   UNL     1     -10.927  14.856  66.997  1.00  0.00    -0.320 N  
HETATM   19  C   UNL     1     -11.573  14.672  65.715  1.00  0.00    -0.328 C  
HETATM   20  C   UNL     1     -10.729  15.503  64.772  1.00  0.00    -0.329 C  
HETATM   21  C   UNL     1     -10.275  16.686  65.626  1.00  0.00    -0.285 C  
HETATM   22  C   UNL     1     -10.295  16.177  67.081  1.00  0.00    -0.291 C  
HETATM   23  C   UNL     1     -11.047  17.111  67.946  1.00  0.00    -0.087 C  
HETATM   24  N   UNL     1     -11.656  17.847  68.608  1.00  0.00     1.436 NA 
ENDBRANCH  15  16
ENDBRANCH  13  15
ENDBRANCH  10  13
TORSDOF 3
ENDMDL
MODEL      249
REMARK 921   NORMALIZED FREE ENERGY PREDICTED BY IDOCK:   -1.47 KCAL/MOL
REMARK 922        TOTAL FREE ENERGY PREDICTED BY IDOCK:   -2.37 KCAL/MOL
REMARK 923 INTER-LIGAND FREE ENERGY PREDICTED BY IDOCK:   -2.47 KCAL/MOL
REMARK 924 INTRA-LIGAND FREE ENERGY PREDICTED BY IDOCK:    0.10 KCAL/MOL
REMARK 927      BINDING AFFINITY PREDICTED BY RF-SCORE:    0.00 PKD
ROOT
HETATM    1  O   UNL     1     -11.984  11.951  70.559  1.00  0.00    -0.423 OA 
HETATM    2  C   UNL     1     -11.006  11.048  70.063  1.00  0.00    -0.080 C  
HETATM    3  H   UNL     1     -11.626  12.447  71.286  1.00  0.00     0.000 HD 
HETATM    4  C   UNL     1     -11.587  10.244  68.887  1.00  0.00    -0.132 C  
HETATM    5  C   UNL     1     -10.535   9.260  68.353  1.00  0.00    -0.246 C  
HETATM    6  C   UNL     1     -10.097   8.315  69.482  1.00  0.00    -0.197 C  
HETATM    7  C   UNL     1      -9.499   9.125  70.644  1.00  0.00    -0.316 C  
HETATM    8  C   UNL     1      -8.288   9.932  70.135  1.00  0.00    -0.156 C  
HETATM    9  C   UNL     1     -10.565  10.091  71.180  1.00  0.00     0.130 C  
HETATM   10  C   UNL     1      -8.708  10.906  68.997  1.00  0.00    -0.100 C  
HETATM   11  C   UNL     1      -9.791  11.852  69.572  1.00  0.00     0.861 C  
HETATM   12  C   UNL     1      -9.316  10.053  67.852  1.00  0.00    -0.151 C  
ENDROOT
BRANCH  10  13
HETATM   13  N   UNL     1      -7.499  11.635  68.562  1.00  0.00    -0.106 NA 
HETATM   14  H   UNL     1      -6.659  11.141  68.863  1.00  0.00     0.000 HD 
BRANCH  13  15
HETATM   15  C   UNL     1      -7.441  11.913  67.114  1.00  0.00    -0.146 C  
BRANCH  15  16
HETATM   16  C   UNL     1      -8.423  13.021  66.722  1.00  0.00     0.003 C  
HETATM   17  O   UNL     1      -9.460  12.743  66.117  1.00  0.00    -0.238 OA 
HETATM   18  N   UNL     1      -8.134  14.318  67.096  1.00  0.00    -0.170 N  
HETATM   19  C   UNL     1      -9.058  15.402  66.833  1.00  0.00    -0.242 C  
HETATM   20  C   UNL     1      -8.151  16.590  66.597  1.00  0.00    -0.314 C  
HETATM   21  C   UNL     1      -6.967  16.343  67.531  1.00  0.00    -0.175 C  
HETATM   22  C   UNL     1      -6.910  14.816  67.733  1.00  0.00    -0.177 C  
HETATM   23  C   UNL     1      -6.847  14.486  69.173  1.00  0.00    -0.123 C  
HETATM   24  N   UNL     1      -6.815  14.243  70.309  1.00  0.00     0.027 NA 
ENDBRANCH  15  16
ENDBRANCH  13  15
ENDBRANCH  10  13
TORSDOF 3
ENDMDL
MODEL      250
REMARK 921   NORMALIZED FREE ENERGY PREDICTED BY IDOCK:   -1.18 KCAL/MOL
REMARK 922        TOTAL FREE ENERGY PREDICTED BY IDOCK:   -2.03 KCAL/MOL
REMARK 923 INTER-LIGAND FREE ENERGY PREDICTED BY IDOCK:   -1.81 KCAL/MOL
REMARK 924 INTRA-LIGAND FREE ENERGY PREDICTED BY IDOCK:   -0.22 KCAL/MOL
REMARK 927      BINDING AFFINITY PREDICTED BY RF-SCORE:    0.00 PKD
ROOT
HETATM    1  O   UNL     1      -7.169   5.655  71.924  1.00  0.00    -0.085 OA 
HETATM    2  C   UNL     1      -8.122   6.109  70.973  1.00  0.00    -0.121 C  
HETATM    3  H   UNL     1      -6.958   4.744  71.759  1.00  0.00     0.000 HD 
HETATM    4  C   UNL     1      -8.463   7.585  71.240  1.00  0.00    -0.116 C  
HETATM    5  C   UNL     1      -9.500   8.078  70.219  1.00  0.00    -0.167 C  
HETATM    6  C   UNL     1     -10.764   7.211  70.315  1.00  0.00    -0.258 C  
HETATM    7  C   UNL     1     -10.419   5.742  70.026  1.00  0.00    -0.353 C  
HETATM    8  C   UNL     1      -9.808   5.627  68.615  1.00  0.00    -0.190 C  
HETATM    9  C   UNL     1      -9.396   5.257  71.063  1.00  0.00    -0.193 C  
HETATM   10  C   UNL     1      -8.518   6.489  68.496  1.00  0.00    -0.124 C  
HETATM   11  C   UNL     1      -7.520   5.979  69.564  1.00  0.00    -0.088 C  
HETATM   12  C   UNL     1      -8.906   7.959  68.805  1.00  0.00    -0.138 C  
ENDROOT
BRANCH  10  13
HETATM   13  N   UNL     1      -7.999   6.332  67.122  1.00  0.00    -0.108 NA 
HETATM   14  H   UNL     1      -7.842   7.244  66.694  1.00  0.00     0.000 HD 
BRANCH  13  15
HETATM   15  C   UNL     1      -6.784   5.499  67.020  1.00  0.00    -0.062 C  
BRANCH  15  16
HETATM   16  C   UNL     1      -7.139   4.023  66.820  1.00  0.00    -0.064 C  
HETATM   17  O   UNL     1      -7.280   3.284  67.797  1.00  0.00    -0.053 OA 
HETATM   18  N   UNL     1      -7.333   3.560  65.535  1.00  0.00    -0.074 N  
HETATM   19  C   UNL     1      -7.752   2.197  65.280  1.00  0.00    -0.072 C  
HETATM   20  C   UNL     1      -7.080   1.862  63.966  1.00  0.00    -0.043 C  
HETATM   21  C   UNL     1      -7.080   3.184  63.201  1.00  0.00    -0.048 C  
HETATM   22  C   UNL     1      -7.116   4.286  64.279  1.00  0.00    -0.047 C  
HETATM   23  C   UNL     1      -8.196   5.255  63.993  1.00  0.00    -0.131 C  
HETATM   24  N   UNL     1      -9.059   5.998  63.762  1.00  0.00     0.725 NA 
ENDBRANCH  15  16
ENDBRANCH  13  15
ENDBRANCH  10  13
TORSDOF 3
ENDMDL
MODEL      251
REMARK 921   NORMALIZED FREE ENERGY PREDICTED BY IDOCK:    0.29 KCAL/MOL
REMARK 922        TOTAL FREE ENERGY PREDICTED BY IDOCK:   -0.30 KCAL/MOL
REMARK 923 INTER-LIGAND FREE ENERGY PREDICTED BY IDOCK:   -0.19 KCAL/MOL
REMARK 924 INTRA-LIGAND FREE ENERGY PREDICTED BY IDOCK:   -0.11 KCAL/MOL
REMARK 927      BINDING AFFINITY PREDICTED BY RF-SCORE:    0.00 PKD
ROOT
HETATM    1  O   UNL     1     -10.823  11.510  63.198  1.00  0.00    -0.635 OA 
HETATM    2  C   UNL     1     -10.395  11.522  64.552  1.00  0.00    -0.302 C  
HETATM    3  H   UNL     1     -11.533  12.129  63.078  1.00  0.00     0.000 HD 
HETATM    4  C   UNL     1      -9.245  10.519  64.745  1.00  0.00    -0.266 C  
HETATM    5  C   UNL     1      -8.785  10.522  66.211  1.00  0.00    -0.159 C  
HETATM    6  C   UNL     1      -9.968  10.160  67.120  1.00  0.00    -0.243 C  
HETATM    7  C   UNL     1     -11.105  11.178  66.936  1.00  0.00    -0.313 C  
HETATM    8  C   UNL     1     -10.588  12.589  67.284  1.00  0.00    -0.246 C  
HETATM    9  C   UNL     1     -11.567  11.152  65.473  1.00  0.00     0.461 C  
HETATM   10  C   UNL     1      -9.394  12.985  66.368  1.00  0.00    -0.182 C  
HETATM   11  C   UNL     1      -9.896  12.933  64.903  1.00  0.00    -0.048 C  
HETATM   12  C   UNL     1      -8.277  11.928  66.573  1.00  0.00    -0.026 C  
ENDROOT
BRANCH  10  13
HETATM   13  N   UNL     1      -8.956  14.338  66.764  1.00  0.00    -0.349 NA 
HETATM   14  H   UNL     1      -7.947  14.355  66.915  1.00  0.00     0.000 HD 
BRANCH  13  15
HETATM   15  C   UNL     1      -9.353  15.407  65.827  1.00  0.00    -0.229 C  
BRANCH  15  16
HETATM   16  C   UNL     1      -8.358  16.571  65.860  1.00  0.00     0.090 C  
HETATM   17  O   UNL     1      -7.753  16.896  64.836  1.00  0.00     2.683 OA 
HETATM   18  N   UNL     1      -8.190  17.261  67.043  1.00  0.00    -0.199 N  
HETATM   19  C   UNL     1      -7.330  18.423  67.123  1.00  0.00    -0.206 C  
HETATM   20  C   UNL     1      -6.779  18.357  68.532  1.00  0.00    -0.253 C  
HETATM   21  C   UNL     1      -7.925  17.767  69.351  1.00  0.00     0.350 C  
HETATM   22  C   UNL     1      -8.763  16.941  68.355  1.00  0.00    -0.244 C  
HETATM   23  C   UNL     1     -10.192  17.309  68.453  1.00  0.00    -0.358 C  
HETATM   24  N   UNL     1     -11.309  17.621  68.530  1.00  0.00     0.486 NA 
ENDBRANCH  15  16
ENDBRANCH  13  15
ENDBRANCH  10  13
TORSDOF 3
ENDMDL
MODEL      252
REMARK 921   NORMALIZED FREE ENERGY PREDICTED BY IDOCK:    0.38 KCAL/MOL
REMARK 922        TOTAL FREE ENERGY PREDICTED BY IDOCK:   -0.19 KCAL/MOL
REMARK 923 INTER-LIGAND FREE ENERGY PREDICTED BY IDOCK:   -2.28 KCAL/MOL
REMARK 924 INTRA-LIGAND FREE ENERGY PREDICTED BY IDOCK:    2.09 KCAL/MOL
REMARK 927      BINDING AFFINITY PREDICTED BY RF-SCORE:    0.00 PKD
ROOT
HETATM    1  O   UNL     1     -10.368  20.211  69.431  1.00  0.00    -0.557 OA 
HETATM    2  C   UNL     1     -10.020  19.906  68.088  1.00  0.00    -0.427 C  
HETATM    3  H   UNL     1     -11.266  20.517  69.471  1.00  0.00     0.000 HD 
HETATM    4  C   UNL     1      -8.565  19.410  68.025  1.00  0.00    -0.362 C  
HETATM    5  C   UNL     1      -8.182  19.087  66.573  1.00  0.00    -0.312 C  
HETATM    6  C   UNL     1      -8.358  20.343  65.706  1.00  0.00     0.180 C  
HETATM    7  C   UNL     1      -9.819  20.819  65.757  1.00  0.00     0.574 C  
HETATM    8  C   UNL     1     -10.742  19.694  65.247  1.00  0.00     0.078 C  
HETATM    9  C   UNL     1     -10.182  21.155  67.210  1.00  0.00     0.642 C  
HETATM   10  C   UNL     1     -10.590  18.413  66.117  1.00  0.00    -0.315 C  
HETATM   11  C   UNL     1     -10.952  18.796  67.573  1.00  0.00    -0.273 C  
HETATM   12  C   UNL     1      -9.104  17.973  66.048  1.00  0.00    -0.010 C  
ENDROOT
BRANCH  10  13
HETATM   13  N   UNL     1     -11.497  17.387  65.564  1.00  0.00     0.760 NA 
HETATM   14  H   UNL     1     -11.767  17.626  64.610  1.00  0.00     0.000 HD 
BRANCH  13  15
HETATM   15  C   UNL     1     -10.967  16.010  65.618  1.00  0.00    -0.171 C  
BRANCH  15  16
HETATM   16  C   UNL     1     -10.800  15.536  67.065  1.00  0.00    -0.314 C  
HETATM   17  O   UNL     1     -10.573  16.353  67.960  1.00  0.00    -0.290 OA 
HETATM   18  N   UNL     1     -10.949  14.192  67.340  1.00  0.00    -0.293 N  
HETATM   19  C   UNL     1     -10.889  13.688  68.696  1.00  0.00    -0.263 C  
HETATM   20  C   UNL     1     -10.279  12.313  68.534  1.00  0.00    -0.213 C  
HETATM   21  C   UNL     1     -10.820  11.823  67.192  1.00  0.00    -0.303 C  
HETATM   22  C   UNL     1     -11.129  13.097  66.381  1.00  0.00    -0.289 C  
HETATM   23  C   UNL     1     -12.503  13.042  65.836  1.00  0.00    -0.256 C  
HETATM   24  N   UNL     1     -13.591  12.991  65.429  1.00  0.00     0.131 NA 
ENDBRANCH  15  16
ENDBRANCH  13  15
ENDBRANCH  10  13
TORSDOF 3
ENDMDL
MODEL      253
REMARK 921   NORMALIZED FREE ENERGY PREDICTED BY IDOCK:    4.33 KCAL/MOL
REMARK 922        TOTAL FREE ENERGY PREDICTED BY IDOCK:    4.45 KCAL/MOL
REMARK 923 INTER-LIGAND FREE ENERGY PREDICTED BY IDOCK:    3.83 KCAL/MOL
REMARK 924 INTRA-LIGAND FREE ENERGY PREDICTED BY IDOCK:    0.61 KCAL/MOL
REMARK 927      BINDING AFFINITY PREDICTED BY RF-SCORE:    0.00 PKD
ROOT
HETATM    1  O   UNL     1     -12.165   9.084  69.549  1.00  0.00     0.389 OA 
HETATM    2  C   UNL     1     -11.069   8.378  68.984  1.00  0.00     0.254 C  
HETATM    3  H   UNL     1     -11.878   9.564  70.317  1.00  0.00     0.000 HD 
HETATM    4  C   UNL     1     -11.535   7.601  67.741  1.00  0.00     0.954 C  
HETATM    5  C   UNL     1     -10.355   6.829  67.131  1.00  0.00    -0.327 C  
HETATM    6  C   UNL     1      -9.777   5.866  68.179  1.00  0.00    -0.143 C  
HETATM    7  C   UNL     1      -9.295   6.652  69.409  1.00  0.00    -0.147 C  
HETATM    8  C   UNL     1      -8.217   7.667  68.976  1.00  0.00    -0.127 C  
HETATM    9  C   UNL     1     -10.486   7.404  70.018  1.00  0.00    -0.233 C  
HETATM   10  C   UNL     1      -8.782   8.663  67.922  1.00  0.00    -0.137 C  
HETATM   11  C   UNL     1      -9.987   9.389  68.569  1.00  0.00    -0.190 C  
HETATM   12  C   UNL     1      -9.267   7.830  66.705  1.00  0.00    -0.202 C  
ENDROOT
BRANCH  10  13
HETATM   13  N   UNL     1      -7.695   9.593  67.557  1.00  0.00    -0.095 NA 
HETATM   14  H   UNL     1      -7.130   9.203  66.803  1.00  0.00     0.000 HD 
BRANCH  13  15
HETATM   15  C   UNL     1      -8.148  10.954  67.209  1.00  0.00    -0.123 C  
BRANCH  15  16
HETATM   16  C   UNL     1      -9.147  10.926  66.048  1.00  0.00    -0.191 C  
HETATM   17  O   UNL     1     -10.330  11.210  66.245  1.00  0.00    -0.235 OA 
HETATM   18  N   UNL     1      -8.682  10.616  64.786  1.00  0.00    -0.181 N  
HETATM   19  C   UNL     1      -9.554  10.654  63.631  1.00  0.00    -0.314 C  
HETATM   20  C   UNL     1      -9.010   9.556  62.743  1.00  0.00    -0.243 C  
HETATM   21  C   UNL     1      -7.504   9.585  62.997  1.00  0.00    -0.108 C  
HETATM   22  C   UNL     1      -7.335  10.173  64.412  1.00  0.00    -0.116 C  
HETATM   23  C   UNL     1      -6.357  11.282  64.398  1.00  0.00     1.448 C  
HETATM   24  N   UNL     1      -5.599  12.163  64.366  1.00  0.00     3.901 NA 
ENDBRANCH  15  16
ENDBRANCH  13  15
ENDBRANCH  10  13
TORSDOF 3
ENDMDL
MODEL      254
REMARK 921   NORMALIZED FREE ENERGY PREDICTED BY IDOCK:   25.59 KCAL/MOL
REMARK 922        TOTAL FREE ENERGY PREDICTED BY IDOCK:   29.44 KCAL/MOL
REMARK 923 INTER-LIGAND FREE ENERGY PREDICTED BY IDOCK:   20.30 KCAL/MOL
REMARK 924 INTRA-LIGAND FREE ENERGY PREDICTED BY IDOCK:    9.14 KCAL/MOL
REMARK 927      BINDING AFFINITY PREDICTED BY RF-SCORE:    0.00 PKD
ROOT
HETATM    1  O   UNL     1     -12.691   8.034  69.305  1.00  0.00     2.490 OA 
HETATM    2  C   UNL     1     -11.857   7.109  68.623  1.00  0.00     1.285 C  
HETATM    3  H   UNL     1     -12.572   7.946  70.243  1.00  0.00     0.000 HD 
HETATM    4  C   UNL     1     -12.051   7.253  67.104  1.00  0.00     3.872 C  
HETATM    5  C   UNL     1     -11.156   6.247  66.362  1.00  0.00     0.279 C  
HETATM    6  C   UNL     1     -11.506   4.821  66.813  1.00  0.00     2.824 C  
HETATM    7  C   UNL     1     -11.290   4.680  68.329  1.00  0.00     3.777 C  
HETATM    8  C   UNL     1      -9.818   4.992  68.667  1.00  0.00    -0.227 C  
HETATM    9  C   UNL     1     -12.201   5.677  69.057  1.00  0.00     4.741 C  
HETATM   10  C   UNL     1      -9.442   6.437  68.229  1.00  0.00    -0.121 C  
HETATM   11  C   UNL     1     -10.390   7.409  68.974  1.00  0.00    -0.214 C  
HETATM   12  C   UNL     1      -9.685   6.542  66.700  1.00  0.00    -0.201 C  
ENDROOT
BRANCH  10  13
HETATM   13  N   UNL     1      -8.024   6.657  68.580  1.00  0.00    -0.117 NA 
HETATM   14  H   UNL     1      -7.416   6.143  67.943  1.00  0.00     0.000 HD 
BRANCH  13  15
HETATM   15  C   UNL     1      -7.623   8.076  68.641  1.00  0.00    -0.100 C  
BRANCH  15  16
HETATM   16  C   UNL     1      -8.374   8.910  67.598  1.00  0.00    -0.110 C  
HETATM   17  O   UNL     1      -8.897   9.978  67.921  1.00  0.00    -0.125 OA 
HETATM   18  N   UNL     1      -8.413   8.455  66.295  1.00  0.00    -0.120 N  
HETATM   19  C   UNL     1      -9.032   9.234  65.244  1.00  0.00    -0.213 C  
HETATM   20  C   UNL     1      -9.595   8.182  64.311  1.00  0.00     2.415 C  
HETATM   21  C   UNL     1      -8.591   7.035  64.397  1.00  0.00     0.364 C  
HETATM   22  C   UNL     1      -7.921   7.173  65.779  1.00  0.00    -0.123 C  
HETATM   23  C   UNL     1      -6.449   7.144  65.646  1.00  0.00    -0.047 C  
HETATM   24  N   UNL     1      -5.293   7.137  65.522  1.00  0.00    -0.027 NA 
ENDBRANCH  15  16
ENDBRANCH  13  15
ENDBRANCH  10  13
TORSDOF 3
ENDMDL
MODEL      255
REMARK 921   NORMALIZED FREE ENERGY PREDICTED BY IDOCK:   32.91 KCAL/MOL
REMARK 922        TOTAL FREE ENERGY PREDICTED BY IDOCK:   38.04 KCAL/MOL
REMARK 923 INTER-LIGAND FREE ENERGY PREDICTED BY IDOCK:    2.98 KCAL/MOL
REMARK 924 INTRA-LIGAND FREE ENERGY PREDICTED BY IDOCK:   35.06 KCAL/MOL
REMARK 927      BINDING AFFINITY PREDICTED BY RF-SCORE:    0.00 PKD
ROOT
HETATM    1  O   UNL     1     -11.179  16.853  63.840  1.00  0.00    -1.110 OA 
HETATM    2  C   UNL     1     -10.853  16.352  65.129  1.00  0.00    -0.275 C  
HETATM    3  H   UNL     1     -11.214  17.802  63.863  1.00  0.00     0.000 HD 
HETATM    4  C   UNL     1     -10.796  14.815  65.092  1.00  0.00    -0.417 C  
HETATM    5  C   UNL     1     -10.452  14.268  66.486  1.00  0.00    -0.287 C  
HETATM    6  C   UNL     1     -11.508  14.740  67.496  1.00  0.00    -0.369 C  
HETATM    7  C   UNL     1     -11.545  16.276  67.542  1.00  0.00     0.299 C  
HETATM    8  C   UNL     1     -10.155  16.809  67.947  1.00  0.00    -0.284 C  
HETATM    9  C   UNL     1     -11.906  16.808  66.148  1.00  0.00     2.018 C  
HETATM   10  C   UNL     1      -9.067  16.353  66.932  1.00  0.00    -0.216 C  
HETATM   11  C   UNL     1      -9.475  16.897  65.540  1.00  0.00     0.358 C  
HETATM   12  C   UNL     1      -9.072  14.801  66.907  1.00  0.00    -0.268 C  
ENDROOT
BRANCH  10  13
HETATM   13  N   UNL     1      -7.772  16.895  67.389  1.00  0.00    -0.165 NA 
HETATM   14  H   UNL     1      -7.865  17.299  68.322  1.00  0.00     0.000 HD 
BRANCH  13  15
HETATM   15  C   UNL     1      -6.659  15.927  67.356  1.00  0.00    -0.188 C  
BRANCH  15  16
HETATM   16  C   UNL     1      -6.400  15.332  68.744  1.00  0.00    -0.094 C  
HETATM   17  O   UNL     1      -5.500  15.788  69.453  1.00  0.00    -0.106 OA 
HETATM   18  N   UNL     1      -7.216  14.312  69.186  1.00  0.00    -0.119 N  
HETATM   19  C   UNL     1      -7.081  13.762  70.519  1.00  0.00     1.114 C  
HETATM   20  C   UNL     1      -7.459  12.307  70.340  1.00  0.00     2.887 C  
HETATM   21  C   UNL     1      -8.534  12.334  69.254  1.00  0.00     0.794 C  
HETATM   22  C   UNL     1      -8.259  13.608  68.432  1.00  0.00    -0.146 C  
HETATM   23  C   UNL     1      -9.494  14.410  68.291  1.00  0.00    -0.207 C  
HETATM   24  N   UNL     1     -10.469  15.036  68.205  1.00  0.00    -0.241 NA 
ENDBRANCH  15  16
ENDBRANCH  13  15
ENDBRANCH  10  13
TORSDOF 3
ENDMDL
