MODEL        1
REMARK 921   NORMALIZED FREE ENERGY PREDICTED BY IDOCK:   -7.05 KCAL/MOL
REMARK 922        TOTAL FREE ENERGY PREDICTED BY IDOCK:  -12.33 KCAL/MOL
REMARK 923 INTER-LIGAND FREE ENERGY PREDICTED BY IDOCK:  -11.18 KCAL/MOL
REMARK 924 INTRA-LIGAND FREE ENERGY PREDICTED BY IDOCK:   -1.15 KCAL/MOL
REMARK 927      BINDING AFFINITY PREDICTED BY RF-SCORE:    0.00 PKD
ROOT
HETATM    1  C   UNL     1      -7.733  14.184  67.934  1.00  0.00    -0.158 C  
HETATM    2  N   UNL     1      -7.062  13.816  69.202  1.00  0.00    -0.089 NA 
HETATM    3  C   UNL     1      -6.071  14.622  69.875  1.00  0.00    -0.141 C  
HETATM    4  C   UNL     1      -7.129  12.447  69.322  1.00  0.00     0.075 A  
HETATM    5  C   UNL     1      -6.380  11.620  70.133  1.00  0.00    -0.060 A  
HETATM    6  C   UNL     1      -6.660  10.249  70.192  1.00  0.00    -0.138 A  
HETATM    7  N   UNL     1     -10.518  12.533  66.101  1.00  0.00    -0.245 NA 
HETATM    8  C   UNL     1      -7.805   9.730  69.547  1.00  0.00    -0.128 A  
HETATM    9  C   UNL     1      -8.525  10.599  68.694  1.00  0.00    -0.142 A  
HETATM   10  C   UNL     1     -11.597  13.132  65.361  1.00  0.00    -0.333 C  
HETATM   11  H   UNL     1      -9.130  16.872  69.372  1.00  0.00     0.000 HD 
HETATM   12  O   UNL     1      -8.682  16.035  69.335  1.00  0.00    -0.245 OA 
HETATM   13  C   UNL     1      -8.115  11.904  68.523  1.00  0.00    -0.130 A  
HETATM   14  C   UNL     1      -8.472  15.562  67.996  1.00  0.00    -0.143 C  
HETATM   15  C   UNL     1      -9.830  15.435  67.295  1.00  0.00    -0.217 C  
HETATM   16  C   UNL     1      -8.599  12.906  67.501  1.00  0.00    -0.188 C  
HETATM   17  C   UNL     1     -10.148  12.976  67.441  1.00  0.00    -0.231 C  
HETATM   18  C   UNL     1     -10.753  14.327  67.931  1.00  0.00    -0.244 C  
HETATM   19  C   UNL     1     -12.173  14.481  67.373  1.00  0.00    -0.165 C  
HETATM   20  C   UNL     1      -8.171  12.411  66.089  1.00  0.00     0.581 C  
HETATM   21  C   UNL     1     -12.539  13.931  66.208  1.00  0.00    -0.376 C  
HETATM   22  C   UNL     1      -9.426  11.980  65.354  1.00  0.00    -0.066 C  
ENDROOT
BRANCH   6  23
HETATM   23  O   UNL     1      -5.847   9.414  70.908  1.00  0.00    -0.047 OA 
HETATM   24  C   UNL     1      -5.248  10.005  72.065  1.00  0.00    -0.022 C  
ENDBRANCH   6  23
BRANCH   8  25
HETATM   25  C   UNL     1      -8.345   8.255  69.674  1.00  0.00    -0.123 C  
HETATM   26  C   UNL     1      -8.819   3.734  72.349  1.00  0.00    -0.100 C  
HETATM   27  C   UNL     1     -10.865   5.800  69.774  1.00  0.00    -0.419 C  
HETATM   28  N   UNL     1      -9.158   4.223  70.998  1.00  0.00    -0.116 NA 
HETATM   29  C   UNL     1      -8.256   4.760  73.410  1.00  0.00    -0.103 C  
HETATM   30  C   UNL     1     -10.859   7.249  70.236  1.00  0.00    -0.264 A  
HETATM   31  C   UNL     1      -7.307   5.786  72.721  1.00  0.00    -0.092 C  
HETATM   32  C   UNL     1     -13.284   7.407  71.265  1.00  0.00    -0.342 A  
HETATM   33  O   UNL     1      -7.470   4.025  74.366  1.00  0.00    -0.071 OA 
HETATM   34  C   UNL     1      -7.403   7.545  70.776  1.00  0.00    -0.068 C  
HETATM   35  C   UNL     1      -8.125   5.122  70.514  1.00  0.00    -0.095 C  
HETATM   36  H   UNL     1      -7.131   4.643  75.004  1.00  0.00     0.000 HD 
HETATM   37  C   UNL     1      -9.861   8.243  70.146  1.00  0.00    -0.184 A  
HETATM   38  C   UNL     1     -14.160   8.279  71.930  1.00  0.00    -0.499 A  
HETATM   39  N   UNL     1     -10.489   9.413  70.530  1.00  0.00    -0.252 NA 
HETATM   40  C   UNL     1     -12.005   7.859  70.880  1.00  0.00    -0.211 A  
HETATM   41  C   UNL     1      -8.000   6.312  71.455  1.00  0.00    -0.109 C  
HETATM   42  C   UNL     1     -11.694   9.187  71.125  1.00  0.00    -0.313 A  
HETATM   43  C   UNL     1     -10.539   4.729  70.854  1.00  0.00     0.075 C  
HETATM   44  C   UNL     1     -12.541  10.073  71.804  1.00  0.00    -0.504 A  
HETATM   45  H   UNL     1     -10.095  10.343  70.383  1.00  0.00     0.000 HD 
HETATM   46  C   UNL     1     -13.782   9.587  72.215  1.00  0.00    -0.444 A  
BRANCH  25  47
HETATM   47  C   UNL     1      -8.301   7.521  68.305  1.00  0.00    -0.125 C  
HETATM   48  O   UNL     1      -7.349   6.852  67.898  1.00  0.00    -0.092 OA 
BRANCH  47  49
HETATM   49  O   UNL     1      -9.459   7.701  67.590  1.00  0.00    -0.140 OA 
HETATM   50  C   UNL     1      -9.289   8.329  66.314  1.00  0.00    -0.204 C  
ENDBRANCH  47  49
ENDBRANCH  25  47
BRANCH  29  51
HETATM   51  C   UNL     1      -9.406   5.450  74.191  1.00  0.00    -0.134 C  
HETATM   52  C   UNL     1     -10.649   4.585  74.394  1.00  0.00    -0.289 C  
ENDBRANCH  29  51
ENDBRANCH   8  25
BRANCH  18  53
HETATM   53  C   UNL     1     -10.933  14.134  69.490  1.00  0.00    -0.176 C  
HETATM   54  C   UNL     1     -11.913  13.165  70.139  1.00  0.00    -0.381 C  
ENDBRANCH  18  53
BRANCH  15  55
HETATM   55  O   UNL     1     -10.573  16.675  67.202  1.00  0.00    -0.316 OA 
BRANCH  55  56
HETATM   56  C   UNL     1     -10.523  17.242  65.955  1.00  0.00    -0.282 C  
HETATM   57  O   UNL     1     -10.661  16.654  64.890  1.00  0.00    -0.710 OA 
HETATM   58  C   UNL     1     -10.452  18.746  66.065  1.00  0.00    -0.483 C  
ENDBRANCH  55  56
ENDBRANCH  15  55
BRANCH  14  59
HETATM   59  C   UNL     1      -7.554  16.643  67.372  1.00  0.00    -0.165 C  
HETATM   60  O   UNL     1      -6.884  16.513  66.354  1.00  0.00    -0.186 OA 
BRANCH  59  61
HETATM   61  O   UNL     1      -7.474  17.735  68.195  1.00  0.00    -0.221 OA 
HETATM   62  C   UNL     1      -6.150  18.199  68.476  1.00  0.00    -0.192 C  
ENDBRANCH  59  61
ENDBRANCH  14  59
TORSDOF 10
ENDMDL
MODEL        2
REMARK 921   NORMALIZED FREE ENERGY PREDICTED BY IDOCK:   -7.01 KCAL/MOL
REMARK 922        TOTAL FREE ENERGY PREDICTED BY IDOCK:  -12.26 KCAL/MOL
REMARK 923 INTER-LIGAND FREE ENERGY PREDICTED BY IDOCK:   -9.77 KCAL/MOL
REMARK 924 INTRA-LIGAND FREE ENERGY PREDICTED BY IDOCK:   -2.49 KCAL/MOL
REMARK 927      BINDING AFFINITY PREDICTED BY RF-SCORE:    0.00 PKD
ROOT
HETATM    1  C   UNL     1      -7.252   6.401  70.095  1.00  0.00    -0.084 C  
HETATM    2  N   UNL     1      -6.888   6.710  68.692  1.00  0.00    -0.068 NA 
HETATM    3  C   UNL     1      -5.879   6.013  67.929  1.00  0.00    -0.013 C  
HETATM    4  C   UNL     1      -7.250   8.015  68.450  1.00  0.00    -0.089 A  
HETATM    5  C   UNL     1      -6.829   8.847  67.434  1.00  0.00    -0.070 A  
HETATM    6  C   UNL     1      -7.386  10.124  67.291  1.00  0.00    -0.090 A  
HETATM    7  N   UNL     1      -9.971   7.753  72.244  1.00  0.00    -0.188 NA 
HETATM    8  C   UNL     1      -8.490  10.509  68.085  1.00  0.00    -0.123 A  
HETATM    9  C   UNL     1      -8.868   9.647  69.140  1.00  0.00    -0.157 A  
HETATM   10  C   UNL     1     -10.769   7.073  73.230  1.00  0.00    -0.340 C  
HETATM   11  H   UNL     1      -8.293   3.335  69.222  1.00  0.00     0.000 HD 
HETATM   12  O   UNL     1      -8.024   4.237  69.091  1.00  0.00    -0.061 OA 
HETATM   13  C   UNL     1      -8.180   8.474  69.362  1.00  0.00    -0.114 A  
HETATM   14  C   UNL     1      -7.696   4.917  70.312  1.00  0.00    -0.062 C  
HETATM   15  C   UNL     1      -8.916   4.889  71.239  1.00  0.00    -0.133 C  
HETATM   16  C   UNL     1      -8.275   7.548  70.552  1.00  0.00    -0.118 C  
HETATM   17  C   UNL     1      -9.746   7.207  70.909  1.00  0.00    -0.170 C  
HETATM   18  C   UNL     1     -10.137   5.714  70.681  1.00  0.00    -0.274 C  
HETATM   19  C   UNL     1     -11.384   5.383  71.508  1.00  0.00     0.094 C  
HETATM   20  C   UNL     1      -7.729   8.298  71.801  1.00  0.00    -0.136 C  
HETATM   21  C   UNL     1     -11.657   6.010  72.660  1.00  0.00    -0.266 C  
HETATM   22  C   UNL     1      -8.906   8.590  72.712  1.00  0.00    -0.127 C  
ENDROOT
BRANCH   6  23
HETATM   23  O   UNL     1      -6.889  10.987  66.354  1.00  0.00    -0.128 OA 
HETATM   24  C   UNL     1      -6.403  10.366  65.161  1.00  0.00    -0.103 C  
ENDBRANCH   6  23
BRANCH   8  25
HETATM   25  C   UNL     1      -9.331  11.831  67.914  1.00  0.00    -0.184 C  
HETATM   26  C   UNL     1     -12.926  15.267  69.671  1.00  0.00     0.339 C  
HETATM   27  C   UNL     1      -9.726  15.299  67.470  1.00  0.00    -0.204 C  
HETATM   28  N   UNL     1     -12.161  15.056  68.427  1.00  0.00    -0.187 NA 
HETATM   29  C   UNL     1     -12.606  14.359  70.924  1.00  0.00    -0.352 C  
HETATM   30  C   UNL     1      -8.658  14.498  68.197  1.00  0.00    -0.169 A  
HETATM   31  C   UNL     1     -12.293  12.902  70.472  1.00  0.00    -0.362 C  
HETATM   32  C   UNL     1      -7.190  16.469  69.160  1.00  0.00    -0.226 A  
HETATM   33  O   UNL     1     -13.785  14.307  71.749  1.00  0.00    -0.360 OA 
HETATM   34  C   UNL     1     -10.604  11.661  68.891  1.00  0.00    -0.224 C  
HETATM   35  C   UNL     1     -12.024  13.636  68.154  1.00  0.00    -0.355 C  
HETATM   36  H   UNL     1     -13.592  13.761  72.502  1.00  0.00     0.000 HD 
HETATM   37  C   UNL     1      -8.478  13.105  68.328  1.00  0.00    -0.161 A  
HETATM   38  C   UNL     1      -6.062  16.737  69.950  1.00  0.00    -0.194 A  
HETATM   39  N   UNL     1      -7.230  12.960  68.905  1.00  0.00    -0.220 NA 
HETATM   40  C   UNL     1      -7.567  15.133  68.908  1.00  0.00    -0.148 A  
HETATM   41  C   UNL     1     -11.293  12.961  69.306  1.00  0.00    -0.303 C  
HETATM   42  C   UNL     1      -6.750  14.132  69.409  1.00  0.00    -0.116 A  
HETATM   43  C   UNL     1     -10.905  15.829  68.338  1.00  0.00    -0.297 C  
HETATM   44  C   UNL     1      -5.631  14.371  70.216  1.00  0.00    -0.122 A  
HETATM   45  H   UNL     1      -6.725  12.075  68.949  1.00  0.00     0.000 HD 
HETATM   46  C   UNL     1      -5.307  15.700  70.489  1.00  0.00    -0.157 A  
BRANCH  25  47
HETATM   47  C   UNL     1      -9.752  12.040  66.433  1.00  0.00    -0.225 C  
HETATM   48  O   UNL     1      -9.420  13.004  65.740  1.00  0.00    -0.125 OA 
BRANCH  47  49
HETATM   49  O   UNL     1     -10.543  11.016  65.976  1.00  0.00    -0.252 OA 
HETATM   50  C   UNL     1     -10.161  10.480  64.704  1.00  0.00    -0.338 C  
ENDBRANCH  47  49
ENDBRANCH  25  47
BRANCH  29  51
HETATM   51  C   UNL     1     -11.467  14.969  71.785  1.00  0.00    -0.376 C  
HETATM   52  C   UNL     1     -11.943  15.787  72.985  1.00  0.00    -0.596 C  
ENDBRANCH  29  51
ENDBRANCH   8  25
BRANCH  18  53
HETATM   53  C   UNL     1     -10.607   5.660  69.171  1.00  0.00    -0.334 C  
HETATM   54  C   UNL     1     -11.273   6.809  68.426  1.00  0.00    -0.146 C  
ENDBRANCH  18  53
BRANCH  15  55
HETATM   55  O   UNL     1      -9.367   3.559  71.594  1.00  0.00    -0.114 OA 
BRANCH  55  56
HETATM   56  C   UNL     1      -9.246   3.287  72.932  1.00  0.00    -0.091 C  
HETATM   57  O   UNL     1      -8.672   3.982  73.760  1.00  0.00    -0.094 OA 
HETATM   58  C   UNL     1     -10.079   2.083  73.301  1.00  0.00    -0.175 C  
ENDBRANCH  55  56
ENDBRANCH  15  55
BRANCH  14  59
HETATM   59  C   UNL     1      -6.488   4.114  70.857  1.00  0.00    -0.026 C  
HETATM   60  O   UNL     1      -5.634   4.539  71.626  1.00  0.00    -0.010 OA 
BRANCH  59  61
HETATM   61  O   UNL     1      -6.413   2.890  70.248  1.00  0.00    -0.027 OA 
HETATM   62  C   UNL     1      -6.252   1.772  71.127  1.00  0.00    -0.018 C  
ENDBRANCH  59  61
ENDBRANCH  14  59
TORSDOF 10
ENDMDL
MODEL        3
REMARK 921   NORMALIZED FREE ENERGY PREDICTED BY IDOCK:   -6.92 KCAL/MOL
REMARK 922        TOTAL FREE ENERGY PREDICTED BY IDOCK:  -12.12 KCAL/MOL
REMARK 923 INTER-LIGAND FREE ENERGY PREDICTED BY IDOCK:  -10.81 KCAL/MOL
REMARK 924 INTRA-LIGAND FREE ENERGY PREDICTED BY IDOCK:   -1.31 KCAL/MOL
REMARK 927      BINDING AFFINITY PREDICTED BY RF-SCORE:    0.00 PKD
ROOT
HETATM    1  C   UNL     1      -8.413   6.282  69.198  1.00  0.00    -0.120 C  
HETATM    2  N   UNL     1      -8.988   6.412  67.839  1.00  0.00    -0.116 NA 
HETATM    3  C   UNL     1      -8.854   5.430  66.789  1.00  0.00    -0.112 C  
HETATM    4  C   UNL     1      -9.175   7.754  67.598  1.00  0.00    -0.136 A  
HETATM    5  C   UNL     1      -9.363   8.389  66.389  1.00  0.00    -0.274 A  
HETATM    6  C   UNL     1      -9.638   9.762  66.348  1.00  0.00    -0.200 A  
HETATM    7  N   UNL     1      -8.810   8.428  72.211  1.00  0.00    -0.208 NA 
HETATM    8  C   UNL     1      -9.879  10.473  67.546  1.00  0.00    -0.196 A  
HETATM    9  C   UNL     1      -9.639   9.799  68.765  1.00  0.00    -0.155 A  
HETATM   10  C   UNL     1      -8.894   8.042  73.594  1.00  0.00    -0.260 C  
HETATM   11  H   UNL     1     -10.307   3.584  69.814  1.00  0.00     0.000 HD 
HETATM   12  O   UNL     1     -10.027   4.369  69.359  1.00  0.00    -0.197 OA 
HETATM   13  C   UNL     1      -9.198   8.493  68.764  1.00  0.00    -0.142 A  
HETATM   14  C   UNL     1      -8.875   4.989  69.949  1.00  0.00    -0.102 C  
HETATM   15  C   UNL     1      -9.192   5.341  71.407  1.00  0.00    -0.146 C  
HETATM   16  C   UNL     1      -8.673   7.686  69.929  1.00  0.00    -0.139 C  
HETATM   17  C   UNL     1      -9.600   7.780  71.169  1.00  0.00    -0.158 C  
HETATM   18  C   UNL     1     -10.309   6.444  71.548  1.00  0.00    -0.239 C  
HETATM   19  C   UNL     1     -10.766   6.508  73.010  1.00  0.00    -0.291 C  
HETATM   20  C   UNL     1      -7.327   8.314  70.392  1.00  0.00    -0.055 C  
HETATM   21  C   UNL     1     -10.114   7.239  73.924  1.00  0.00    -0.312 C  
HETATM   22  C   UNL     1      -7.564   8.961  71.743  1.00  0.00     0.031 C  
ENDROOT
BRANCH   6  23
HETATM   23  O   UNL     1      -9.713  10.411  65.146  1.00  0.00    -0.243 OA 
HETATM   24  C   UNL     1      -9.078   9.734  64.057  1.00  0.00    -0.237 C  
ENDBRANCH   6  23
BRANCH   8  25
HETATM   25  C   UNL     1     -10.374  11.966  67.647  1.00  0.00    -0.217 C  
HETATM   26  C   UNL     1     -12.904  15.820  70.209  1.00  0.00     0.041 C  
HETATM   27  C   UNL     1      -9.922  15.454  67.748  1.00  0.00    -0.225 C  
HETATM   28  N   UNL     1     -12.284  15.639  68.881  1.00  0.00    -0.160 NA 
HETATM   29  C   UNL     1     -12.750  14.670  71.282  1.00  0.00    -0.332 C  
HETATM   30  C   UNL     1      -9.047  14.316  68.248  1.00  0.00    -0.188 A  
HETATM   31  C   UNL     1     -12.833  13.274  70.597  1.00  0.00    -0.127 C  
HETATM   32  C   UNL     1      -7.086  15.700  69.346  1.00  0.00    -0.198 A  
HETATM   33  O   UNL     1     -13.858  14.764  72.197  1.00  0.00    -0.392 OA 
HETATM   34  C   UNL     1     -11.595  11.944  68.703  1.00  0.00    -0.366 C  
HETATM   35  C   UNL     1     -12.519  14.291  68.395  1.00  0.00     0.235 C  
HETATM   36  H   UNL     1     -13.765  14.073  72.842  1.00  0.00     0.000 HD 
HETATM   37  C   UNL     1      -9.211  12.917  68.159  1.00  0.00    -0.212 A  
HETATM   38  C   UNL     1      -5.885  15.562  70.058  1.00  0.00    -0.144 A  
HETATM   39  N   UNL     1      -8.007  12.390  68.591  1.00  0.00    -0.294 NA 
HETATM   40  C   UNL     1      -7.795  14.550  68.939  1.00  0.00    -0.134 A  
HETATM   41  C   UNL     1     -11.916  13.285  69.364  1.00  0.00    -0.356 C  
HETATM   42  C   UNL     1      -7.226  13.317  69.212  1.00  0.00     0.138 A  
HETATM   43  C   UNL     1     -10.883  16.098  68.789  1.00  0.00    -0.310 C  
HETATM   44  C   UNL     1      -6.039  13.150  69.937  1.00  0.00    -0.128 A  
HETATM   45  H   UNL     1      -7.736  11.415  68.459  1.00  0.00     0.000 HD 
HETATM   46  C   UNL     1      -5.382  14.302  70.368  1.00  0.00    -0.109 A  
BRANCH  25  47
HETATM   47  C   UNL     1     -10.811  12.507  66.258  1.00  0.00    -0.268 C  
HETATM   48  O   UNL     1     -10.075  13.117  65.480  1.00  0.00    -0.289 OA 
BRANCH  47  49
HETATM   49  O   UNL     1     -12.126  12.222  65.987  1.00  0.00    -0.623 OA 
HETATM   50  C   UNL     1     -12.647  12.840  64.804  1.00  0.00    -0.446 C  
ENDBRANCH  47  49
ENDBRANCH  25  47
BRANCH  29  51
HETATM   51  C   UNL     1     -11.450  14.845  72.113  1.00  0.00    -0.194 C  
HETATM   52  C   UNL     1     -11.667  15.355  73.537  1.00  0.00    -0.276 C  
ENDBRANCH  29  51
ENDBRANCH   8  25
BRANCH  18  53
HETATM   53  C   UNL     1     -11.639   6.450  70.691  1.00  0.00    -0.412 C  
HETATM   54  C   UNL     1     -12.978   6.995  71.169  1.00  0.00    -0.293 C  
ENDBRANCH  18  53
BRANCH  15  55
HETATM   55  O   UNL     1      -9.541   4.205  72.235  1.00  0.00    -0.130 OA 
BRANCH  55  56
HETATM   56  C   UNL     1      -8.531   3.819  73.077  1.00  0.00    -0.094 C  
HETATM   57  O   UNL     1      -7.853   4.562  73.776  1.00  0.00    -0.091 OA 
HETATM   58  C   UNL     1      -8.472   2.314  73.172  1.00  0.00    -0.066 C  
ENDBRANCH  55  56
ENDBRANCH  15  55
BRANCH  14  59
HETATM   59  C   UNL     1      -7.771   3.912  69.801  1.00  0.00    -0.052 C  
HETATM   60  O   UNL     1      -7.950   2.740  69.492  1.00  0.00    -0.043 OA 
BRANCH  59  61
HETATM   61  O   UNL     1      -6.560   4.409  70.205  1.00  0.00    -0.030 OA 
HETATM   62  C   UNL     1      -5.421   3.915  69.493  1.00  0.00    -0.016 C  
ENDBRANCH  59  61
ENDBRANCH  14  59
TORSDOF 10
ENDMDL
MODEL        4
REMARK 921   NORMALIZED FREE ENERGY PREDICTED BY IDOCK:   -6.25 KCAL/MOL
REMARK 922        TOTAL FREE ENERGY PREDICTED BY IDOCK:  -11.05 KCAL/MOL
REMARK 923 INTER-LIGAND FREE ENERGY PREDICTED BY IDOCK:   -9.93 KCAL/MOL
REMARK 924 INTRA-LIGAND FREE ENERGY PREDICTED BY IDOCK:   -1.12 KCAL/MOL
REMARK 927      BINDING AFFINITY PREDICTED BY RF-SCORE:    0.00 PKD
ROOT
HETATM    1  C   UNL     1      -7.319   6.444  69.654  1.00  0.00    -0.080 C  
HETATM    2  N   UNL     1      -6.866   6.723  68.271  1.00  0.00    -0.074 NA 
HETATM    3  C   UNL     1      -5.981   5.877  67.506  1.00  0.00    -0.018 C  
HETATM    4  C   UNL     1      -6.976   8.080  68.068  1.00  0.00    -0.074 A  
HETATM    5  C   UNL     1      -6.381   8.851  67.091  1.00  0.00    -0.060 A  
HETATM    6  C   UNL     1      -6.691  10.213  66.981  1.00  0.00    -0.078 A  
HETATM    7  N   UNL     1      -9.804   8.205  71.789  1.00  0.00    -0.179 NA 
HETATM    8  C   UNL     1      -7.728  10.769  67.764  1.00  0.00    -0.104 A  
HETATM    9  C   UNL     1      -8.286   9.959  68.780  1.00  0.00    -0.116 A  
HETATM   10  C   UNL     1     -10.741   7.654  72.733  1.00  0.00    -0.345 C  
HETATM   11  H   UNL     1      -8.879   3.650  68.651  1.00  0.00     0.000 HD 
HETATM   12  O   UNL     1      -8.446   4.490  68.557  1.00  0.00    -0.088 OA 
HETATM   13  C   UNL     1      -7.831   8.673  68.974  1.00  0.00    -0.100 A  
HETATM   14  C   UNL     1      -8.034   5.060  69.808  1.00  0.00    -0.074 C  
HETATM   15  C   UNL     1      -9.264   5.229  70.708  1.00  0.00    -0.152 C  
HETATM   16  C   UNL     1      -8.128   7.744  70.129  1.00  0.00    -0.117 C  
HETATM   17  C   UNL     1      -9.646   7.669  70.442  1.00  0.00    -0.168 C  
HETATM   18  C   UNL     1     -10.296   6.281  70.152  1.00  0.00    -0.259 C  
HETATM   19  C   UNL     1     -11.606   6.160  70.940  1.00  0.00    -0.259 C  
HETATM   20  C   UNL     1      -7.489   8.342  71.415  1.00  0.00    -0.102 C  
HETATM   21  C   UNL     1     -11.792   6.790  72.107  1.00  0.00    -0.326 C  
HETATM   22  C   UNL     1      -8.617   8.818  72.310  1.00  0.00     0.013 C  
ENDROOT
BRANCH   6  23
HETATM   23  O   UNL     1      -6.019  10.998  66.087  1.00  0.00    -0.132 OA 
HETATM   24  C   UNL     1      -5.620  10.334  64.884  1.00  0.00    -0.126 C  
ENDBRANCH   6  23
BRANCH   8  25
HETATM   25  C   UNL     1      -8.308  12.228  67.622  1.00  0.00    -0.166 C  
HETATM   26  C   UNL     1     -11.375  15.751  65.173  1.00  0.00    -0.154 C  
HETATM   27  C   UNL     1     -10.038  15.074  68.756  1.00  0.00    -0.231 C  
HETATM   28  N   UNL     1     -10.360  15.772  66.244  1.00  0.00    -0.297 NA 
HETATM   29  C   UNL     1     -11.836  14.357  64.589  1.00  0.00    -0.451 C  
HETATM   30  C   UNL     1     -10.239  13.596  69.052  1.00  0.00    -0.006 A  
HETATM   31  C   UNL     1     -10.626  13.381  64.498  1.00  0.00    -0.441 C  
HETATM   32  C   UNL     1     -12.367  13.730  70.608  1.00  0.00    -0.445 A  
HETATM   33  O   UNL     1     -12.315  14.572  63.249  1.00  0.00    -1.033 OA 
HETATM   34  C   UNL     1      -8.823  12.340  66.096  1.00  0.00     0.062 C  
HETATM   35  C   UNL     1      -9.293  14.833  65.946  1.00  0.00    -0.154 C  
HETATM   36  H   UNL     1     -12.592  13.733  62.898  1.00  0.00     0.000 HD 
HETATM   37  C   UNL     1      -9.509  12.464  68.634  1.00  0.00    -0.011 A  
HETATM   38  C   UNL     1     -13.278  12.937  71.323  1.00  0.00    -0.160 A  
HETATM   39  N   UNL     1     -10.015  11.417  69.383  1.00  0.00    -0.413 NA 
HETATM   40  C   UNL     1     -11.308  13.118  69.904  1.00  0.00    -0.055 A  
HETATM   41  C   UNL     1      -9.865  13.427  65.832  1.00  0.00    -0.251 C  
HETATM   42  C   UNL     1     -11.182  11.742  70.009  1.00  0.00     0.079 A  
HETATM   43  C   UNL     1     -10.907  15.675  67.613  1.00  0.00    -0.307 C  
HETATM   44  C   UNL     1     -12.087  10.926  70.699  1.00  0.00    -0.468 A  
HETATM   45  H   UNL     1      -9.565  10.505  69.459  1.00  0.00     0.000 HD 
HETATM   46  C   UNL     1     -13.151  11.552  71.347  1.00  0.00    -0.359 A  
BRANCH  25  47
HETATM   47  C   UNL     1      -7.229  13.295  67.957  1.00  0.00    -0.121 C  
HETATM   48  O   UNL     1      -6.708  14.048  67.131  1.00  0.00    -0.168 OA 
BRANCH  47  49
HETATM   49  O   UNL     1      -6.920  13.309  69.294  1.00  0.00    -0.079 OA 
HETATM   50  C   UNL     1      -5.546  13.041  69.599  1.00  0.00    -0.095 C  
ENDBRANCH  47  49
ENDBRANCH  25  47
BRANCH  29  51
HETATM   51  C   UNL     1     -13.013  13.765  65.410  1.00  0.00    -0.361 C  
HETATM   52  C   UNL     1     -12.593  12.847  66.557  1.00  0.00     0.397 C  
ENDBRANCH  29  51
ENDBRANCH   8  25
BRANCH  18  53
HETATM   53  C   UNL     1     -10.727   6.361  68.632  1.00  0.00    -0.341 C  
HETATM   54  C   UNL     1     -10.811   7.645  67.817  1.00  0.00    -0.133 C  
ENDBRANCH  18  53
BRANCH  15  55
HETATM   55  O   UNL     1      -9.960   3.994  71.005  1.00  0.00    -0.179 OA 
BRANCH  55  56
HETATM   56  C   UNL     1      -9.809   3.589  72.306  1.00  0.00    -0.163 C  
HETATM   57  O   UNL     1      -9.300   4.240  73.209  1.00  0.00    -0.112 OA 
HETATM   58  C   UNL     1     -10.523   2.278  72.534  1.00  0.00    -0.187 C  
ENDBRANCH  55  56
ENDBRANCH  15  55
BRANCH  14  59
HETATM   59  C   UNL     1      -7.008   4.033  70.351  1.00  0.00    -0.034 C  
HETATM   60  O   UNL     1      -6.158   4.253  71.206  1.00  0.00    -0.016 OA 
BRANCH  59  61
HETATM   61  O   UNL     1      -7.080   2.865  69.639  1.00  0.00    -0.040 OA 
HETATM   62  C   UNL     1      -5.824   2.247  69.342  1.00  0.00    -0.023 C  
ENDBRANCH  59  61
ENDBRANCH  14  59
TORSDOF 10
ENDMDL
MODEL        5
REMARK 921   NORMALIZED FREE ENERGY PREDICTED BY IDOCK:   -6.10 KCAL/MOL
REMARK 922        TOTAL FREE ENERGY PREDICTED BY IDOCK:  -10.81 KCAL/MOL
REMARK 923 INTER-LIGAND FREE ENERGY PREDICTED BY IDOCK:   -9.18 KCAL/MOL
REMARK 924 INTRA-LIGAND FREE ENERGY PREDICTED BY IDOCK:   -1.63 KCAL/MOL
REMARK 927      BINDING AFFINITY PREDICTED BY RF-SCORE:    0.00 PKD
ROOT
HETATM    1  C   UNL     1      -7.926   6.549  69.741  1.00  0.00    -0.120 C  
HETATM    2  N   UNL     1      -8.825   6.714  68.575  1.00  0.00    -0.123 NA 
HETATM    3  C   UNL     1      -9.265   5.641  67.714  1.00  0.00    -0.106 C  
HETATM    4  C   UNL     1      -8.726   8.022  68.160  1.00  0.00    -0.126 A  
HETATM    5  C   UNL     1      -9.096   8.567  66.949  1.00  0.00    -0.177 A  
HETATM    6  C   UNL     1      -9.010   9.950  66.742  1.00  0.00    -0.138 A  
HETATM    7  N   UNL     1      -6.848   8.991  72.332  1.00  0.00    -0.312 NA 
HETATM    8  C   UNL     1      -8.695  10.810  67.818  1.00  0.00    -0.130 A  
HETATM    9  C   UNL     1      -8.283  10.213  69.032  1.00  0.00    -0.132 A  
HETATM   10  C   UNL     1      -6.613   8.779  73.735  1.00  0.00     0.040 C  
HETATM   11  H   UNL     1     -10.175   4.599  71.286  1.00  0.00     0.000 HD 
HETATM   12  O   UNL     1      -9.852   5.220  70.644  1.00  0.00    -0.173 OA 
HETATM   13  C   UNL     1      -8.212   8.841  69.146  1.00  0.00    -0.119 A  
HETATM   14  C   UNL     1      -8.458   5.526  70.799  1.00  0.00    -0.122 C  
HETATM   15  C   UNL     1      -8.227   6.092  72.205  1.00  0.00    -0.109 C  
HETATM   16  C   UNL     1      -7.589   8.029  70.257  1.00  0.00    -0.081 C  
HETATM   17  C   UNL     1      -8.049   8.509  71.659  1.00  0.00    -0.150 C  
HETATM   18  C   UNL     1      -8.931   7.483  72.435  1.00  0.00    -0.172 C  
HETATM   19  C   UNL     1      -8.900   7.816  73.931  1.00  0.00    -0.329 C  
HETATM   20  C   UNL     1      -6.053   8.274  70.241  1.00  0.00    -0.031 C  
HETATM   21  C   UNL     1      -7.843   8.406  74.504  1.00  0.00    -0.259 C  
HETATM   22  C   UNL     1      -5.704   9.087  71.473  1.00  0.00    -0.058 C  
ENDROOT
BRANCH   6  23
HETATM   23  O   UNL     1      -9.270  10.475  65.507  1.00  0.00    -0.169 OA 
HETATM   24  C   UNL     1      -8.793   9.693  64.408  1.00  0.00    -0.230 C  
ENDBRANCH   6  23
BRANCH   8  25
HETATM   25  C   UNL     1      -8.739  12.385  67.782  1.00  0.00    -0.176 C  
HETATM   26  C   UNL     1     -10.353  16.902  65.590  1.00  0.00    -0.237 C  
HETATM   27  C   UNL     1      -9.427  15.567  69.118  1.00  0.00    -0.246 C  
HETATM   28  N   UNL     1      -9.421  16.502  66.663  1.00  0.00    -0.244 NA 
HETATM   29  C   UNL     1     -11.245  15.793  64.904  1.00  0.00    -0.350 C  
HETATM   30  C   UNL     1     -10.127  14.230  69.304  1.00  0.00     0.014 A  
HETATM   31  C   UNL     1     -10.438  14.470  64.745  1.00  0.00    -0.365 C  
HETATM   32  C   UNL     1     -12.125  14.977  70.858  1.00  0.00    -0.380 A  
HETATM   33  O   UNL     1     -11.584  16.249  63.582  1.00  0.00    -1.424 OA 
HETATM   34  C   UNL     1      -9.142  12.770  66.267  1.00  0.00    -0.033 C  
HETATM   35  C   UNL     1      -8.730  15.278  66.299  1.00  0.00    -0.153 C  
HETATM   36  H   UNL     1     -12.121  15.582  63.170  1.00  0.00     0.000 HD 
HETATM   37  C   UNL     1      -9.815  12.948  68.805  1.00  0.00     0.035 A  
HETATM   38  C   UNL     1     -13.271  14.496  71.511  1.00  0.00    -0.431 A  
HETATM   39  N   UNL     1     -10.668  12.089  69.474  1.00  0.00    -0.440 NA 
HETATM   40  C   UNL     1     -11.319  14.089  70.115  1.00  0.00    -0.109 A  
HETATM   41  C   UNL     1      -9.743  14.163  66.081  1.00  0.00    -0.310 C  
HETATM   42  C   UNL     1     -11.671  12.749  70.118  1.00  0.00    -0.162 A  
HETATM   43  C   UNL     1     -10.007  16.505  68.019  1.00  0.00    -0.245 C  
HETATM   44  C   UNL     1     -12.819  12.246  70.744  1.00  0.00    -0.101 A  
HETATM   45  H   UNL     1     -10.558  11.074  69.484  1.00  0.00     0.000 HD 
HETATM   46  C   UNL     1     -13.624  13.153  71.434  1.00  0.00     0.030 A  
BRANCH  25  47
HETATM   47  C   UNL     1      -7.371  12.994  68.198  1.00  0.00    -0.118 C  
HETATM   48  O   UNL     1      -7.077  13.341  69.343  1.00  0.00     0.002 OA 
BRANCH  47  49
HETATM   49  O   UNL     1      -6.512  13.099  67.132  1.00  0.00    -0.227 OA 
HETATM   50  C   UNL     1      -5.582  12.018  66.996  1.00  0.00    -0.112 C  
ENDBRANCH  47  49
ENDBRANCH  25  47
BRANCH  29  51
HETATM   51  C   UNL     1     -12.575  15.584  65.676  1.00  0.00     1.254 C  
HETATM   52  C   UNL     1     -13.156  14.174  65.577  1.00  0.00    -0.166 C  
ENDBRANCH  29  51
ENDBRANCH   8  25
BRANCH  18  53
HETATM   53  C   UNL     1     -10.407   7.800  71.964  1.00  0.00    -0.267 C  
HETATM   54  C   UNL     1     -10.978   9.199  71.774  1.00  0.00    -0.429 C  
ENDBRANCH  18  53
BRANCH  15  55
HETATM   55  O   UNL     1      -8.593   5.193  73.280  1.00  0.00    -0.113 OA 
BRANCH  55  56
HETATM   56  C   UNL     1      -7.517   4.555  73.840  1.00  0.00    -0.081 C  
HETATM   57  O   UNL     1      -6.405   5.036  74.016  1.00  0.00    -0.060 OA 
HETATM   58  C   UNL     1      -7.930   3.210  74.387  1.00  0.00    -0.069 C  
ENDBRANCH  55  56
ENDBRANCH  15  55
BRANCH  14  59
HETATM   59  C   UNL     1      -7.762   4.162  70.561  1.00  0.00    -0.048 C  
HETATM   60  O   UNL     1      -8.295   3.062  70.641  1.00  0.00    -0.054 OA 
BRANCH  59  61
HETATM   61  O   UNL     1      -6.414   4.338  70.387  1.00  0.00    -0.029 OA 
HETATM   62  C   UNL     1      -5.597   3.214  70.728  1.00  0.00    -0.013 C  
ENDBRANCH  59  61
ENDBRANCH  14  59
TORSDOF 10
ENDMDL
MODEL        6
REMARK 921   NORMALIZED FREE ENERGY PREDICTED BY IDOCK:   -4.96 KCAL/MOL
REMARK 922        TOTAL FREE ENERGY PREDICTED BY IDOCK:   -9.01 KCAL/MOL
REMARK 923 INTER-LIGAND FREE ENERGY PREDICTED BY IDOCK:   -7.76 KCAL/MOL
REMARK 924 INTRA-LIGAND FREE ENERGY PREDICTED BY IDOCK:   -1.25 KCAL/MOL
REMARK 927      BINDING AFFINITY PREDICTED BY RF-SCORE:    0.00 PKD
ROOT
HETATM    1  C   UNL     1     -10.156   7.051  69.300  1.00  0.00    -0.173 C  
HETATM    2  N   UNL     1     -10.717   7.528  70.585  1.00  0.00    -0.226 NA 
HETATM    3  C   UNL     1     -11.274   6.677  71.610  1.00  0.00    -0.264 C  
HETATM    4  C   UNL     1     -11.092   8.841  70.409  1.00  0.00    -0.236 A  
HETATM    5  C   UNL     1     -11.945   9.600  71.182  1.00  0.00    -0.452 A  
HETATM    6  C   UNL     1     -12.131  10.959  70.901  1.00  0.00    -0.349 A  
HETATM    7  N   UNL     1      -8.379   8.894  66.600  1.00  0.00    -0.110 NA 
HETATM    8  C   UNL     1     -11.330  11.598  69.927  1.00  0.00    -0.230 A  
HETATM    9  C   UNL     1     -10.497  10.781  69.129  1.00  0.00    -0.243 A  
HETATM   10  C   UNL     1      -7.283   8.459  65.776  1.00  0.00    -0.072 C  
HETATM   11  H   UNL     1      -7.750   5.351  70.903  1.00  0.00     0.000 HD 
HETATM   12  O   UNL     1      -8.451   5.983  70.798  1.00  0.00    -0.127 OA 
HETATM   13  C   UNL     1     -10.470   9.416  69.319  1.00  0.00    -0.230 A  
HETATM   14  C   UNL     1      -9.000   6.010  69.472  1.00  0.00    -0.131 C  
HETATM   15  C   UNL     1      -7.881   6.333  68.476  1.00  0.00    -0.105 C  
HETATM   16  C   UNL     1      -9.836   8.365  68.437  1.00  0.00    -0.192 C  
HETATM   17  C   UNL     1      -8.379   8.730  68.050  1.00  0.00    -0.119 C  
HETATM   18  C   UNL     1      -7.295   7.785  68.655  1.00  0.00    -0.087 C  
HETATM   19  C   UNL     1      -6.003   7.906  67.838  1.00  0.00    -0.042 C  
HETATM   20  C   UNL     1     -10.607   8.329  67.086  1.00  0.00    -0.340 C  
HETATM   21  C   UNL     1      -6.015   8.214  66.535  1.00  0.00    -0.045 C  
HETATM   22  C   UNL     1      -9.690   8.895  66.020  1.00  0.00    -0.238 C  
ENDROOT
BRANCH   6  23
HETATM   23  O   UNL     1     -13.060  11.682  71.597  1.00  0.00    -0.445 OA 
HETATM   24  C   UNL     1     -14.018  10.898  72.314  1.00  0.00     0.609 C  
ENDBRANCH   6  23
BRANCH   8  25
HETATM   25  C   UNL     1     -11.299  13.145  69.632  1.00  0.00    -0.182 C  
HETATM   26  C   UNL     1      -8.651  17.584  68.580  1.00  0.00    -0.259 C  
HETATM   27  C   UNL     1     -12.134  16.043  67.817  1.00  0.00     0.737 C  
HETATM   28  N   UNL     1     -10.045  17.214  68.896  1.00  0.00    -0.310 NA 
HETATM   29  C   UNL     1      -7.589  16.435  68.367  1.00  0.00    -0.178 C  
HETATM   30  C   UNL     1     -11.914  14.607  67.366  1.00  0.00    -0.309 A  
HETATM   31  C   UNL     1      -7.850  15.265  69.362  1.00  0.00    -0.227 C  
HETATM   32  C   UNL     1     -12.229  14.896  64.762  1.00  0.00    -0.291 A  
HETATM   33  O   UNL     1      -6.287  16.970  68.667  1.00  0.00    -0.153 OA 
HETATM   34  C   UNL     1      -9.798  13.621  69.988  1.00  0.00     1.965 C  
HETATM   35  C   UNL     1     -10.072  16.146  69.879  1.00  0.00    -0.074 C  
HETATM   36  H   UNL     1      -5.648  16.278  68.539  1.00  0.00     0.000 HD 
HETATM   37  C   UNL     1     -11.629  13.440  68.106  1.00  0.00    -0.341 A  
HETATM   38  C   UNL     1     -12.192  14.193  63.548  1.00  0.00     0.095 A  
HETATM   39  N   UNL     1     -11.752  12.404  67.199  1.00  0.00    -0.458 NA 
HETATM   40  C   UNL     1     -11.994  14.214  65.974  1.00  0.00    -0.427 A  
HETATM   41  C   UNL     1      -9.348  14.925  69.329  1.00  0.00    -0.106 C  
HETATM   42  C   UNL     1     -11.797  12.844  65.910  1.00  0.00    -0.424 A  
HETATM   43  C   UNL     1     -10.907  16.995  67.717  1.00  0.00    -0.269 C  
HETATM   44  C   UNL     1     -11.736  12.121  64.712  1.00  0.00    -0.390 A  
HETATM   45  H   UNL     1     -11.803  11.421  67.465  1.00  0.00     0.000 HD 
HETATM   46  C   UNL     1     -11.925  12.828  63.524  1.00  0.00    -0.633 A  
BRANCH  25  47
HETATM   47  C   UNL     1     -12.367  13.898  70.471  1.00  0.00    -0.369 C  
HETATM   48  O   UNL     1     -13.533  14.086  70.116  1.00  0.00     0.387 OA 
BRANCH  47  49
HETATM   49  O   UNL     1     -11.863  14.334  71.671  1.00  0.00    -0.222 OA 
HETATM   50  C   UNL     1     -12.574  15.426  72.265  1.00  0.00    -0.373 C  
ENDBRANCH  47  49
ENDBRANCH  25  47
BRANCH  29  51
HETATM   51  C   UNL     1      -7.563  15.959  66.889  1.00  0.00    -0.255 C  
HETATM   52  C   UNL     1      -7.791  17.065  65.859  1.00  0.00     0.037 C  
ENDBRANCH  29  51
ENDBRANCH   8  25
BRANCH  18  53
HETATM   53  C   UNL     1      -6.963   8.423  70.064  1.00  0.00    -0.043 C  
HETATM   54  C   UNL     1      -6.945   9.916  70.361  1.00  0.00    -0.145 C  
ENDBRANCH  18  53
BRANCH  15  55
HETATM   55  O   UNL     1      -6.790   5.380  68.472  1.00  0.00    -0.052 OA 
BRANCH  55  56
HETATM   56  C   UNL     1      -6.819   4.531  67.396  1.00  0.00    -0.059 C  
HETATM   57  O   UNL     1      -7.086   4.839  66.242  1.00  0.00    -0.071 OA 
HETATM   58  C   UNL     1      -6.297   3.170  67.788  1.00  0.00    -0.036 C  
ENDBRANCH  55  56
ENDBRANCH  15  55
BRANCH  14  59
HETATM   59  C   UNL     1      -9.589   4.587  69.298  1.00  0.00    -0.188 C  
HETATM   60  O   UNL     1     -10.137   4.157  68.290  1.00  0.00     0.008 OA 
BRANCH  59  61
HETATM   61  O   UNL     1      -9.544   3.903  70.484  1.00  0.00    -0.168 OA 
HETATM   62  C   UNL     1      -9.266   2.503  70.379  1.00  0.00    -0.128 C  
ENDBRANCH  59  61
ENDBRANCH  14  59
TORSDOF 10
ENDMDL
MODEL        7
REMARK 921   NORMALIZED FREE ENERGY PREDICTED BY IDOCK:   -4.78 KCAL/MOL
REMARK 922        TOTAL FREE ENERGY PREDICTED BY IDOCK:   -8.73 KCAL/MOL
REMARK 923 INTER-LIGAND FREE ENERGY PREDICTED BY IDOCK:   -8.02 KCAL/MOL
REMARK 924 INTRA-LIGAND FREE ENERGY PREDICTED BY IDOCK:   -0.71 KCAL/MOL
REMARK 927      BINDING AFFINITY PREDICTED BY RF-SCORE:    0.00 PKD
ROOT
HETATM    1  C   UNL     1      -6.880   6.310  70.921  1.00  0.00    -0.063 C  
HETATM    2  N   UNL     1      -6.559   6.699  69.528  1.00  0.00    -0.047 NA 
HETATM    3  C   UNL     1      -5.460   6.169  68.756  1.00  0.00    -0.008 C  
HETATM    4  C   UNL     1      -7.100   7.946  69.314  1.00  0.00    -0.071 A  
HETATM    5  C   UNL     1      -6.797   8.853  68.320  1.00  0.00    -0.065 A  
HETATM    6  C   UNL     1      -7.528  10.042  68.203  1.00  0.00    -0.083 A  
HETATM    7  N   UNL     1      -9.768   7.216  73.084  1.00  0.00    -0.175 NA 
HETATM    8  C   UNL     1      -8.678  10.249  68.998  1.00  0.00    -0.164 A  
HETATM    9  C   UNL     1      -8.933   9.318  70.031  1.00  0.00    -0.216 A  
HETATM   10  C   UNL     1     -10.466   6.408  74.049  1.00  0.00    -0.269 C  
HETATM   11  H   UNL     1      -7.478   3.150  69.973  1.00  0.00     0.000 HD 
HETATM   12  O   UNL     1      -7.337   4.083  69.864  1.00  0.00    -0.045 OA 
HETATM   13  C   UNL     1      -8.088   8.248  70.230  1.00  0.00    -0.104 A  
HETATM   14  C   UNL     1      -7.112   4.773  71.102  1.00  0.00    -0.051 C  
HETATM   15  C   UNL     1      -8.319   4.553  72.021  1.00  0.00    -0.112 C  
HETATM   16  C   UNL     1      -8.056   7.291  71.399  1.00  0.00    -0.102 C  
HETATM   17  C   UNL     1      -9.465   6.738  71.739  1.00  0.00    -0.150 C  
HETATM   18  C   UNL     1      -9.641   5.211  71.474  1.00  0.00    -0.208 C  
HETATM   19  C   UNL     1     -10.832   4.689  72.286  1.00  0.00    -0.085 C  
HETATM   20  C   UNL     1      -7.624   8.080  72.667  1.00  0.00    -0.149 C  
HETATM   21  C   UNL     1     -11.194   5.244  73.450  1.00  0.00    -0.314 C  
HETATM   22  C   UNL     1      -8.832   8.183  73.578  1.00  0.00    -0.241 C  
ENDROOT
BRANCH   6  23
HETATM   23  O   UNL     1      -7.155  10.988  67.289  1.00  0.00    -0.086 OA 
HETATM   24  C   UNL     1      -5.877  11.585  67.528  1.00  0.00    -0.067 C  
ENDBRANCH   6  23
BRANCH   8  25
HETATM   25  C   UNL     1      -9.695  11.444  68.852  1.00  0.00    -0.105 C  
HETATM   26  C   UNL     1     -10.716  16.570  68.146  1.00  0.00    -0.343 C  
HETATM   27  C   UNL     1     -12.382  13.152  67.354  1.00  0.00    -0.027 C  
HETATM   28  N   UNL     1     -11.490  15.355  68.471  1.00  0.00    -0.335 NA 
HETATM   29  C   UNL     1      -9.185  16.422  67.788  1.00  0.00    -0.201 C  
HETATM   30  C   UNL     1     -11.316  12.245  66.760  1.00  0.00    -0.395 A  
HETATM   31  C   UNL     1      -8.524  15.324  68.674  1.00  0.00    -0.168 C  
HETATM   32  C   UNL     1     -11.972  12.385  64.207  1.00  0.00    -0.489 A  
HETATM   33  O   UNL     1      -8.533  17.669  68.095  1.00  0.00    -0.244 OA 
HETATM   34  C   UNL     1      -8.851  12.774  69.203  1.00  0.00     0.711 C  
HETATM   35  C   UNL     1     -10.722  14.488  69.347  1.00  0.00    -0.195 C  
HETATM   36  H   UNL     1      -7.612  17.579  67.880  1.00  0.00     0.000 HD 
HETATM   37  C   UNL     1     -10.272  11.523  67.375  1.00  0.00    -0.203 A  
HETATM   38  C   UNL     1     -11.591  11.944  62.931  1.00  0.00     0.218 A  
HETATM   39  N   UNL     1      -9.764  10.712  66.376  1.00  0.00    -0.190 NA 
HETATM   40  C   UNL     1     -11.242  11.968  65.340  1.00  0.00    -0.374 A  
HETATM   41  C   UNL     1      -9.427  14.081  68.658  1.00  0.00    -0.142 C  
HETATM   42  C   UNL     1     -10.201  11.076  65.137  1.00  0.00    -0.291 A  
HETATM   43  C   UNL     1     -12.096  14.681  67.305  1.00  0.00    -0.185 C  
HETATM   44  C   UNL     1      -9.786  10.636  63.874  1.00  0.00    -0.398 A  
HETATM   45  H   UNL     1      -9.133   9.928  66.548  1.00  0.00     0.000 HD 
HETATM   46  C   UNL     1     -10.497  11.099  62.767  1.00  0.00     0.140 A  
BRANCH  25  47
HETATM   47  C   UNL     1     -10.916  11.259  69.796  1.00  0.00    -0.103 C  
HETATM   48  O   UNL     1     -11.400  12.148  70.498  1.00  0.00     0.264 OA 
BRANCH  47  49
HETATM   49  O   UNL     1     -11.405   9.977  69.756  1.00  0.00    -0.246 OA 
HETATM   50  C   UNL     1     -12.363   9.664  70.774  1.00  0.00    -0.201 C  
ENDBRANCH  47  49
ENDBRANCH  25  47
BRANCH  29  51
HETATM   51  C   UNL     1      -8.984  16.158  66.271  1.00  0.00    -0.379 C  
HETATM   52  C   UNL     1     -10.191  16.500  65.399  1.00  0.00    -0.177 C  
ENDBRANCH  29  51
ENDBRANCH   8  25
BRANCH  18  53
HETATM   53  C   UNL     1     -10.095   5.127  69.961  1.00  0.00    -0.345 C  
HETATM   54  C   UNL     1     -11.031   6.115  69.277  1.00  0.00    -0.450 C  
ENDBRANCH  18  53
BRANCH  15  55
HETATM   55  O   UNL     1      -8.579   3.164  72.343  1.00  0.00    -0.077 OA 
BRANCH  55  56
HETATM   56  C   UNL     1      -8.113   2.800  73.579  1.00  0.00    -0.067 C  
HETATM   57  O   UNL     1      -7.711   1.689  73.899  1.00  0.00    -0.035 OA 
HETATM   58  C   UNL     1      -7.988   4.012  74.471  1.00  0.00    -0.086 C  
ENDBRANCH  55  56
ENDBRANCH  15  55
BRANCH  14  59
HETATM   59  C   UNL     1      -5.805   4.136  71.636  1.00  0.00    -0.012 C  
HETATM   60  O   UNL     1      -5.152   4.535  72.594  1.00  0.00    -0.003 OA 
BRANCH  59  61
HETATM   61  O   UNL     1      -5.384   3.136  70.800  1.00  0.00    -0.007 OA 
HETATM   62  C   UNL     1      -5.384   1.820  71.363  1.00  0.00    -0.004 C  
ENDBRANCH  59  61
ENDBRANCH  14  59
TORSDOF 10
ENDMDL
MODEL        8
REMARK 921   NORMALIZED FREE ENERGY PREDICTED BY IDOCK:   -4.54 KCAL/MOL
REMARK 922        TOTAL FREE ENERGY PREDICTED BY IDOCK:   -8.35 KCAL/MOL
REMARK 923 INTER-LIGAND FREE ENERGY PREDICTED BY IDOCK:   -7.76 KCAL/MOL
REMARK 924 INTRA-LIGAND FREE ENERGY PREDICTED BY IDOCK:   -0.59 KCAL/MOL
REMARK 927      BINDING AFFINITY PREDICTED BY RF-SCORE:    0.00 PKD
ROOT
HETATM    1  C   UNL     1     -10.070   5.383  71.275  1.00  0.00    -0.209 C  
HETATM    2  N   UNL     1     -10.691   6.443  72.102  1.00  0.00    -0.220 NA 
HETATM    3  C   UNL     1     -11.376   6.219  73.353  1.00  0.00     0.232 C  
HETATM    4  C   UNL     1     -10.964   7.507  71.272  1.00  0.00    -0.242 A  
HETATM    5  C   UNL     1     -11.819   8.566  71.490  1.00  0.00    -0.353 A  
HETATM    6  C   UNL     1     -11.893   9.614  70.563  1.00  0.00    -0.215 A  
HETATM    7  N   UNL     1      -7.983   5.617  68.204  1.00  0.00    -0.096 NA 
HETATM    8  C   UNL     1     -10.983   9.673  69.483  1.00  0.00    -0.233 A  
HETATM    9  C   UNL     1     -10.150   8.550  69.271  1.00  0.00    -0.203 A  
HETATM   10  C   UNL     1      -6.861   4.808  67.807  1.00  0.00    -0.060 C  
HETATM   11  H   UNL     1      -7.906   4.641  73.727  1.00  0.00     0.000 HD 
HETATM   12  O   UNL     1      -8.555   5.155  73.260  1.00  0.00    -0.113 OA 
HETATM   13  C   UNL     1     -10.228   7.456  70.105  1.00  0.00    -0.207 A  
HETATM   14  C   UNL     1      -9.002   4.536  72.044  1.00  0.00    -0.125 C  
HETATM   15  C   UNL     1      -7.794   4.303  71.130  1.00  0.00    -0.071 C  
HETATM   16  C   UNL     1      -9.602   6.093  69.916  1.00  0.00    -0.183 C  
HETATM   17  C   UNL     1      -8.100   6.188  69.542  1.00  0.00    -0.112 C  
HETATM   18  C   UNL     1      -7.128   5.641  70.632  1.00  0.00    -0.066 C  
HETATM   19  C   UNL     1      -5.774   5.316  69.989  1.00  0.00    -0.016 C  
HETATM   20  C   UNL     1     -10.273   5.413  68.687  1.00  0.00    -0.246 C  
HETATM   21  C   UNL     1      -5.671   4.942  68.707  1.00  0.00    -0.016 C  
HETATM   22  C   UNL     1      -9.245   5.360  67.574  1.00  0.00    -0.112 C  
ENDROOT
BRANCH   6  23
HETATM   23  O   UNL     1     -12.820  10.606  70.725  1.00  0.00    -0.360 OA 
HETATM   24  C   UNL     1     -13.303  10.767  72.062  1.00  0.00    -0.298 C  
ENDBRANCH   6  23
BRANCH   8  25
HETATM   25  C   UNL     1     -10.828  10.872  68.474  1.00  0.00    -0.262 C  
HETATM   26  C   UNL     1     -11.427  15.965  67.240  1.00  0.00     0.099 C  
HETATM   27  C   UNL     1      -9.002  13.050  66.398  1.00  0.00    -0.002 C  
HETATM   28  N   UNL     1     -11.015  14.732  66.540  1.00  0.00    -0.320 NA 
HETATM   29  C   UNL     1     -11.684  15.906  68.797  1.00  0.00    -0.349 C  
HETATM   30  C   UNL     1      -8.631  12.366  67.704  1.00  0.00    -0.172 A  
HETATM   31  C   UNL     1     -12.364  14.560  69.184  1.00  0.00    -0.152 C  
HETATM   32  C   UNL     1      -6.215  13.365  68.070  1.00  0.00    -0.133 A  
HETATM   33  O   UNL     1     -12.602  16.962  69.137  1.00  0.00     0.678 OA 
HETATM   34  C   UNL     1     -11.886  11.988  68.965  1.00  0.00    -0.372 C  
HETATM   35  C   UNL     1     -11.802  13.603  67.004  1.00  0.00    -0.408 C  
HETATM   36  H   UNL     1     -12.756  16.927  70.074  1.00  0.00     0.000 HD 
HETATM   37  C   UNL     1      -9.350  11.454  68.506  1.00  0.00    -0.180 A  
HETATM   38  C   UNL     1      -5.131  13.365  68.959  1.00  0.00    -0.070 A  
HETATM   39  N   UNL     1      -8.438  11.010  69.445  1.00  0.00    -0.379 NA 
HETATM   40  C   UNL     1      -7.351  12.577  68.350  1.00  0.00    -0.114 A  
HETATM   41  C   UNL     1     -11.598  13.416  68.501  1.00  0.00    -0.368 C  
HETATM   42  C   UNL     1      -7.312  11.777  69.481  1.00  0.00     0.238 A  
HETATM   43  C   UNL     1      -9.556  14.500  66.509  1.00  0.00    -0.293 C  
HETATM   44  C   UNL     1      -6.251  11.772  70.395  1.00  0.00     0.041 A  
HETATM   45  H   UNL     1      -8.591  10.198  70.044  1.00  0.00     0.000 HD 
HETATM   46  C   UNL     1      -5.160  12.596  70.118  1.00  0.00    -0.091 A  
BRANCH  25  47
HETATM   47  C   UNL     1     -11.093  10.415  67.013  1.00  0.00    -0.067 C  
HETATM   48  O   UNL     1     -11.829  11.003  66.217  1.00  0.00     0.134 OA 
BRANCH  47  49
HETATM   49  O   UNL     1     -10.405   9.269  66.702  1.00  0.00    -0.259 OA 
HETATM   50  C   UNL     1      -9.649   9.330  65.486  1.00  0.00    -0.220 C  
ENDBRANCH  47  49
ENDBRANCH  25  47
BRANCH  29  51
HETATM   51  C   UNL     1     -10.376  16.158  69.594  1.00  0.00    -0.271 C  
HETATM   52  C   UNL     1      -9.418  17.159  68.948  1.00  0.00    -0.217 C  
ENDBRANCH  29  51
ENDBRANCH   8  25
BRANCH  18  53
HETATM   53  C   UNL     1      -6.858   6.883  71.574  1.00  0.00    -0.065 C  
HETATM   54  C   UNL     1      -6.775   8.329  71.105  1.00  0.00    -0.047 C  
ENDBRANCH  18  53
BRANCH  15  55
HETATM   55  O   UNL     1      -6.771   3.448  71.698  1.00  0.00    -0.025 OA 
BRANCH  55  56
HETATM   56  C   UNL     1      -6.569   2.298  70.979  1.00  0.00    -0.024 C  
HETATM   57  O   UNL     1      -7.230   1.923  70.019  1.00  0.00    -0.033 OA 
HETATM   58  C   UNL     1      -5.292   1.623  71.416  1.00  0.00    -0.004 C  
ENDBRANCH  55  56
ENDBRANCH  15  55
BRANCH  14  59
HETATM   59  C   UNL     1      -9.669   3.225  72.532  1.00  0.00    -0.141 C  
HETATM   60  O   UNL     1      -9.996   2.281  71.823  1.00  0.00    -0.153 OA 
BRANCH  59  61
HETATM   61  O   UNL     1      -9.984   3.316  73.862  1.00  0.00    -0.104 OA 
HETATM   62  C   UNL     1     -10.647   2.175  74.418  1.00  0.00    -0.135 C  
ENDBRANCH  59  61
ENDBRANCH  14  59
TORSDOF 10
ENDMDL
MODEL        9
REMARK 921   NORMALIZED FREE ENERGY PREDICTED BY IDOCK:   -4.31 KCAL/MOL
REMARK 922        TOTAL FREE ENERGY PREDICTED BY IDOCK:   -7.98 KCAL/MOL
REMARK 923 INTER-LIGAND FREE ENERGY PREDICTED BY IDOCK:   -9.88 KCAL/MOL
REMARK 924 INTRA-LIGAND FREE ENERGY PREDICTED BY IDOCK:    1.89 KCAL/MOL
REMARK 927      BINDING AFFINITY PREDICTED BY RF-SCORE:    0.00 PKD
ROOT
HETATM    1  C   UNL     1     -10.920  12.736  65.881  1.00  0.00    -0.274 C  
HETATM    2  N   UNL     1      -9.799  12.148  65.112  1.00  0.00    -0.222 NA 
HETATM    3  C   UNL     1      -9.611  12.289  63.687  1.00  0.00     0.131 C  
HETATM    4  C   UNL     1      -9.320  11.079  65.834  1.00  0.00    -0.204 A  
HETATM    5  C   UNL     1      -8.529  10.036  65.400  1.00  0.00    -0.158 A  
HETATM    6  C   UNL     1      -8.056   9.082  66.310  1.00  0.00    -0.110 A  
HETATM    7  N   UNL     1     -11.549  12.846  69.546  1.00  0.00    -0.295 NA 
HETATM    8  C   UNL     1      -8.253   9.267  67.697  1.00  0.00    -0.115 A  
HETATM    9  C   UNL     1      -9.102  10.323  68.101  1.00  0.00    -0.136 A  
HETATM   10  C   UNL     1     -12.137  13.897  70.334  1.00  0.00    -0.351 C  
HETATM   11  H   UNL     1      -9.926  15.839  65.090  1.00  0.00     0.000 HD 
HETATM   12  O   UNL     1      -9.854  14.897  65.185  1.00  0.00    -0.300 OA 
HETATM   13  C   UNL     1      -9.694  11.140  67.162  1.00  0.00    -0.199 A  
HETATM   14  C   UNL     1     -11.038  14.289  65.724  1.00  0.00    -0.310 C  
HETATM   15  C   UNL     1     -11.337  14.910  67.093  1.00  0.00    -0.343 C  
HETATM   16  C   UNL     1     -10.792  12.157  67.371  1.00  0.00    -0.286 C  
HETATM   17  C   UNL     1     -10.495  13.097  68.569  1.00  0.00    -0.251 C  
HETATM   18  C   UNL     1     -10.238  14.584  68.174  1.00  0.00    -0.230 C  
HETATM   19  C   UNL     1     -10.460  15.481  69.398  1.00  0.00    -0.253 C  
HETATM   20  C   UNL     1     -12.090  11.401  67.774  1.00  0.00     0.150 C  
HETATM   21  C   UNL     1     -11.323  15.153  70.369  1.00  0.00    -0.323 C  
HETATM   22  C   UNL     1     -12.368  11.711  69.232  1.00  0.00    -0.025 C  
ENDROOT
BRANCH   6  23
HETATM   23  O   UNL     1      -7.365   7.991  65.861  1.00  0.00    -0.073 OA 
HETATM   24  C   UNL     1      -7.152   7.953  64.447  1.00  0.00    -0.074 C  
ENDBRANCH   6  23
BRANCH   8  25
HETATM   25  C   UNL     1      -7.628   8.383  68.842  1.00  0.00    -0.096 C  
HETATM   26  C   UNL     1      -7.928   6.097  73.586  1.00  0.00    -0.101 C  
HETATM   27  C   UNL     1      -6.218   5.441  70.161  1.00  0.00    -0.023 C  
HETATM   28  N   UNL     1      -6.892   6.294  72.552  1.00  0.00    -0.069 NA 
HETATM   29  C   UNL     1      -9.409   6.550  73.275  1.00  0.00    -0.131 C  
HETATM   30  C   UNL     1      -7.262   5.652  69.076  1.00  0.00    -0.073 A  
HETATM   31  C   UNL     1      -9.410   7.872  72.451  1.00  0.00    -0.246 C  
HETATM   32  C   UNL     1      -7.834   3.139  68.502  1.00  0.00    -0.060 A  
HETATM   33  O   UNL     1     -10.063   6.826  74.527  1.00  0.00    -0.444 OA 
HETATM   34  C   UNL     1      -8.448   8.766  70.179  1.00  0.00    -0.139 C  
HETATM   35  C   UNL     1      -7.033   7.604  71.941  1.00  0.00    -0.063 C  
HETATM   36  H   UNL     1     -10.954   7.098  74.340  1.00  0.00     0.000 HD 
HETATM   37  C   UNL     1      -7.786   6.836  68.516  1.00  0.00    -0.113 A  
HETATM   38  C   UNL     1      -8.656   2.339  67.695  1.00  0.00    -0.118 A  
HETATM   39  N   UNL     1      -8.533   6.417  67.431  1.00  0.00    -0.109 NA 
HETATM   40  C   UNL     1      -7.906   4.545  68.398  1.00  0.00    -0.079 A  
HETATM   41  C   UNL     1      -8.406   7.724  71.297  1.00  0.00    -0.108 C  
HETATM   42  C   UNL     1      -8.757   5.073  67.441  1.00  0.00    -0.103 A  
HETATM   43  C   UNL     1      -6.756   5.175  71.597  1.00  0.00    -0.051 C  
HETATM   44  C   UNL     1      -9.603   4.298  66.638  1.00  0.00    -0.218 A  
HETATM   45  H   UNL     1      -8.877   7.044  66.703  1.00  0.00     0.000 HD 
HETATM   46  C   UNL     1      -9.545   2.913  66.793  1.00  0.00     0.090 A  
BRANCH  25  47
HETATM   47  C   UNL     1      -6.105   8.652  68.990  1.00  0.00    -0.043 C  
HETATM   48  O   UNL     1      -5.223   8.039  68.386  1.00  0.00    -0.030 OA 
BRANCH  47  49
HETATM   49  O   UNL     1      -5.848   9.666  69.879  1.00  0.00    -0.038 OA 
HETATM   50  C   UNL     1      -5.295  10.853  69.298  1.00  0.00    -0.041 C  
ENDBRANCH  47  49
ENDBRANCH  25  47
BRANCH  29  51
HETATM   51  C   UNL     1     -10.209   5.418  72.576  1.00  0.00    -0.238 C  
HETATM   52  C   UNL     1     -11.631   5.799  72.169  1.00  0.00    -0.265 C  
ENDBRANCH  29  51
ENDBRANCH   8  25
BRANCH  18  53
HETATM   53  C   UNL     1      -8.684  14.648  67.882  1.00  0.00    -0.169 C  
HETATM   54  C   UNL     1      -7.636  13.771  68.555  1.00  0.00    -0.134 C  
ENDBRANCH  18  53
BRANCH  15  55
HETATM   55  O   UNL     1     -11.563  16.341  67.064  1.00  0.00     0.307 OA 
BRANCH  55  56
HETATM   56  C   UNL     1     -10.409  17.066  66.909  1.00  0.00    -0.303 C  
HETATM   57  O   UNL     1      -9.658  17.025  65.944  1.00  0.00    -0.488 OA 
HETATM   58  C   UNL     1     -10.270  18.074  68.023  1.00  0.00    -0.390 C  
ENDBRANCH  55  56
ENDBRANCH  15  55
BRANCH  14  59
HETATM   59  C   UNL     1     -12.118  14.597  64.657  1.00  0.00    -0.454 C  
HETATM   60  O   UNL     1     -12.186  15.615  63.979  1.00  0.00    -0.618 OA 
BRANCH  59  61
HETATM   61  O   UNL     1     -13.089  13.630  64.668  1.00  0.00    -0.561 OA 
HETATM   62  C   UNL     1     -13.035  12.690  63.590  1.00  0.00     0.098 C  
ENDBRANCH  59  61
ENDBRANCH  14  59
TORSDOF 10
ENDMDL
MODEL       10
REMARK 921   NORMALIZED FREE ENERGY PREDICTED BY IDOCK:   -3.98 KCAL/MOL
REMARK 922        TOTAL FREE ENERGY PREDICTED BY IDOCK:   -7.46 KCAL/MOL
REMARK 923 INTER-LIGAND FREE ENERGY PREDICTED BY IDOCK:   -6.21 KCAL/MOL
REMARK 924 INTRA-LIGAND FREE ENERGY PREDICTED BY IDOCK:   -1.26 KCAL/MOL
REMARK 927      BINDING AFFINITY PREDICTED BY RF-SCORE:    0.00 PKD
ROOT
HETATM    1  C   UNL     1      -7.328  14.989  67.825  1.00  0.00    -0.166 C  
HETATM    2  N   UNL     1      -6.479  14.196  68.745  1.00  0.00    -0.085 NA 
HETATM    3  C   UNL     1      -5.176  14.598  69.219  1.00  0.00    -0.085 C  
HETATM    4  C   UNL     1      -6.869  12.881  68.635  1.00  0.00    -0.099 A  
HETATM    5  C   UNL     1      -6.184  11.749  69.021  1.00  0.00    -0.072 A  
HETATM    6  C   UNL     1      -6.788  10.489  68.918  1.00  0.00    -0.063 A  
HETATM    7  N   UNL     1     -10.814  14.428  66.656  1.00  0.00    -0.299 NA 
HETATM    8  C   UNL     1      -8.154  10.384  68.568  1.00  0.00    -0.116 A  
HETATM    9  C   UNL     1      -8.811  11.561  68.141  1.00  0.00    -0.165 A  
HETATM   10  C   UNL     1     -11.849  15.393  66.396  1.00  0.00     0.323 C  
HETATM   11  H   UNL     1      -7.566  17.468  70.071  1.00  0.00     0.000 HD 
HETATM   12  O   UNL     1      -7.376  16.594  69.751  1.00  0.00     0.059 OA 
HETATM   13  C   UNL     1      -8.131  12.758  68.088  1.00  0.00    -0.158 A  
HETATM   14  C   UNL     1      -7.641  16.430  68.350  1.00  0.00    -0.178 C  
HETATM   15  C   UNL     1      -9.115  16.752  68.081  1.00  0.00    -0.227 C  
HETATM   16  C   UNL     1      -8.578  14.056  67.454  1.00  0.00    -0.211 C  
HETATM   17  C   UNL     1     -10.018  14.447  67.879  1.00  0.00    -0.228 C  
HETATM   18  C   UNL     1     -10.105  15.731  68.759  1.00  0.00    -0.215 C  
HETATM   19  C   UNL     1     -11.528  16.297  68.693  1.00  0.00    -0.288 C  
HETATM   20  C   UNL     1      -8.662  13.846  65.915  1.00  0.00     0.964 C  
HETATM   21  C   UNL     1     -12.307  16.133  67.615  1.00  0.00     1.544 C  
HETATM   22  C   UNL     1     -10.129  13.867  65.529  1.00  0.00    -0.298 C  
ENDROOT
BRANCH   6  23
HETATM   23  O   UNL     1      -6.069   9.360  69.196  1.00  0.00    -0.041 OA 
HETATM   24  C   UNL     1      -5.273   9.430  70.382  1.00  0.00    -0.027 C  
ENDBRANCH   6  23
BRANCH   8  25
HETATM   25  C   UNL     1      -9.010   9.061  68.588  1.00  0.00    -0.137 C  
HETATM   26  C   UNL     1      -9.440   3.838  67.996  1.00  0.00    -0.164 C  
HETATM   27  C   UNL     1     -11.091   6.658  70.096  1.00  0.00    -0.384 C  
HETATM   28  N   UNL     1     -10.358   4.973  68.219  1.00  0.00    -0.074 NA 
HETATM   29  C   UNL     1      -7.883   4.102  68.026  1.00  0.00    -0.078 C  
HETATM   30  C   UNL     1      -9.978   7.519  70.669  1.00  0.00    -0.183 A  
HETATM   31  C   UNL     1      -7.553   5.476  67.370  1.00  0.00    -0.089 C  
HETATM   32  C   UNL     1      -9.945   6.624  73.153  1.00  0.00    -0.201 A  
HETATM   33  O   UNL     1      -7.243   3.085  67.234  1.00  0.00    -0.056 OA 
HETATM   34  C   UNL     1      -8.189   8.002  67.688  1.00  0.00    -0.124 C  
HETATM   35  C   UNL     1      -9.905   6.139  67.481  1.00  0.00    -0.125 C  
HETATM   36  H   UNL     1      -6.306   3.244  67.252  1.00  0.00     0.000 HD 
HETATM   37  C   UNL     1      -9.181   8.517  70.071  1.00  0.00    -0.155 A  
HETATM   38  C   UNL     1      -9.282   6.765  74.381  1.00  0.00    -0.248 A  
HETATM   39  N   UNL     1      -8.495   9.102  71.119  1.00  0.00    -0.302 NA 
HETATM   40  C   UNL     1      -9.562   7.422  72.054  1.00  0.00    -0.177 A  
HETATM   41  C   UNL     1      -8.510   6.530  67.948  1.00  0.00    -0.118 C  
HETATM   42  C   UNL     1      -8.572   8.368  72.265  1.00  0.00    -0.197 A  
HETATM   43  C   UNL     1     -10.692   5.226  69.636  1.00  0.00    -0.085 C  
HETATM   44  C   UNL     1      -7.880   8.516  73.474  1.00  0.00    -0.067 A  
HETATM   45  H   UNL     1      -7.988   9.984  71.043  1.00  0.00     0.000 HD 
HETATM   46  C   UNL     1      -8.248   7.683  74.531  1.00  0.00    -0.258 A  
BRANCH  25  47
HETATM   47  C   UNL     1     -10.442   9.312  68.040  1.00  0.00    -0.223 C  
HETATM   48  O   UNL     1     -10.758   9.247  66.850  1.00  0.00    -0.206 OA 
BRANCH  47  49
HETATM   49  O   UNL     1     -11.329   9.613  69.042  1.00  0.00    -0.065 OA 
HETATM   50  C   UNL     1     -11.573  11.012  69.233  1.00  0.00    -0.314 C  
ENDBRANCH  47  49
ENDBRANCH  25  47
BRANCH  29  51
HETATM   51  C   UNL     1      -7.320   3.985  69.469  1.00  0.00    -0.053 C  
HETATM   52  C   UNL     1      -7.570   2.638  70.144  1.00  0.00    -0.043 C  
ENDBRANCH  29  51
ENDBRANCH   8  25
BRANCH  18  53
HETATM   53  C   UNL     1      -9.931  15.202  70.240  1.00  0.00     0.125 C  
HETATM   54  C   UNL     1     -11.074  14.962  71.217  1.00  0.00    -0.078 C  
ENDBRANCH  18  53
BRANCH  15  55
HETATM   55  O   UNL     1      -9.507  18.100  68.439  1.00  0.00    -0.295 OA 
BRANCH  55  56
HETATM   56  C   UNL     1      -9.942  18.838  67.369  1.00  0.00    -0.335 C  
HETATM   57  O   UNL     1      -9.753  18.575  66.188  1.00  0.00    -0.439 OA 
HETATM   58  C   UNL     1     -10.857  19.946  67.832  1.00  0.00    -0.182 C  
ENDBRANCH  55  56
ENDBRANCH  15  55
BRANCH  14  59
HETATM   59  C   UNL     1      -6.659  17.424  67.680  1.00  0.00    -0.153 C  
HETATM   60  O   UNL     1      -6.002  18.281  68.258  1.00  0.00    -0.172 OA 
BRANCH  59  61
HETATM   61  O   UNL     1      -6.728  17.316  66.316  1.00  0.00    -0.241 OA 
HETATM   62  C   UNL     1      -5.761  18.080  65.588  1.00  0.00    -0.179 C  
ENDBRANCH  59  61
ENDBRANCH  14  59
TORSDOF 10
ENDMDL
MODEL       11
REMARK 921   NORMALIZED FREE ENERGY PREDICTED BY IDOCK:   -3.95 KCAL/MOL
REMARK 922        TOTAL FREE ENERGY PREDICTED BY IDOCK:   -7.41 KCAL/MOL
REMARK 923 INTER-LIGAND FREE ENERGY PREDICTED BY IDOCK:   -7.74 KCAL/MOL
REMARK 924 INTRA-LIGAND FREE ENERGY PREDICTED BY IDOCK:    0.33 KCAL/MOL
REMARK 927      BINDING AFFINITY PREDICTED BY RF-SCORE:    0.00 PKD
ROOT
HETATM    1  C   UNL     1     -10.786  12.717  65.712  1.00  0.00    -0.272 C  
HETATM    2  N   UNL     1     -10.059  11.781  64.824  1.00  0.00    -0.257 NA 
HETATM    3  C   UNL     1     -10.140  11.779  63.382  1.00  0.00    -0.446 C  
HETATM    4  C   UNL     1      -9.758  10.661  65.564  1.00  0.00    -0.237 A  
HETATM    5  C   UNL     1      -9.397   9.408  65.115  1.00  0.00    -0.288 A  
HETATM    6  C   UNL     1      -9.031   8.410  66.027  1.00  0.00    -0.184 A  
HETATM    7  N   UNL     1     -10.584  13.215  69.393  1.00  0.00     0.147 NA 
HETATM    8  C   UNL     1      -8.876   8.722  67.397  1.00  0.00    -0.140 A  
HETATM    9  C   UNL     1      -9.293  10.004  67.825  1.00  0.00    -0.154 A  
HETATM   10  C   UNL     1     -10.678  14.436  70.149  1.00  0.00     0.240 C  
HETATM   11  H   UNL     1      -9.153  15.337  64.403  1.00  0.00     0.000 HD 
HETATM   12  O   UNL     1      -9.329  14.423  64.591  1.00  0.00     0.762 OA 
HETATM   13  C   UNL     1      -9.816  10.905  66.922  1.00  0.00    -0.222 A  
HETATM   14  C   UNL     1     -10.496  14.224  65.403  1.00  0.00    -0.365 C  
HETATM   15  C   UNL     1     -10.319  14.982  66.723  1.00  0.00    -0.270 C  
HETATM   16  C   UNL     1     -10.518  12.212  67.210  1.00  0.00    -0.238 C  
HETATM   17  C   UNL     1      -9.728  13.088  68.218  1.00  0.00    -0.221 C  
HETATM   18  C   UNL     1      -9.154  14.407  67.615  1.00  0.00    -0.194 C  
HETATM   19  C   UNL     1      -8.858  15.397  68.748  1.00  0.00    -0.196 C  
HETATM   20  C   UNL     1     -11.862  11.898  67.927  1.00  0.00    -0.308 C  
HETATM   21  C   UNL     1      -9.556  15.395  69.891  1.00  0.00    -0.109 C  
HETATM   22  C   UNL     1     -11.733  12.359  69.366  1.00  0.00    -0.322 C  
ENDROOT
BRANCH   6  23
HETATM   23  O   UNL     1      -8.782   7.139  65.588  1.00  0.00    -0.143 OA 
HETATM   24  C   UNL     1      -8.065   7.059  64.352  1.00  0.00    -0.052 C  
ENDBRANCH   6  23
BRANCH   8  25
HETATM   25  C   UNL     1      -8.299   7.759  68.502  1.00  0.00    -0.129 C  
HETATM   26  C   UNL     1      -5.914   6.967  73.139  1.00  0.00    -0.056 C  
HETATM   27  C   UNL     1      -8.517   5.175  70.881  1.00  0.00    -0.121 C  
HETATM   28  N   UNL     1      -6.342   6.137  71.996  1.00  0.00    -0.045 NA 
HETATM   29  C   UNL     1      -6.305   8.498  73.155  1.00  0.00    -0.091 C  
HETATM   30  C   UNL     1      -9.534   6.214  70.434  1.00  0.00    -0.179 A  
HETATM   31  C   UNL     1      -6.219   9.095  71.719  1.00  0.00    -0.034 C  
HETATM   32  C   UNL     1     -11.534   5.613  72.048  1.00  0.00    -0.199 A  
HETATM   33  O   UNL     1      -5.341   9.195  73.966  1.00  0.00    -0.107 OA 
HETATM   34  C   UNL     1      -7.253   8.651  69.348  1.00  0.00    -0.057 C  
HETATM   35  C   UNL     1      -6.132   6.851  70.748  1.00  0.00    -0.032 C  
HETATM   36  H   UNL     1      -5.577  10.116  73.976  1.00  0.00     0.000 HD 
HETATM   37  C   UNL     1      -9.456   7.215  69.443  1.00  0.00    -0.153 A  
HETATM   38  C   UNL     1     -12.834   6.001  72.405  1.00  0.00     0.355 A  
HETATM   39  N   UNL     1     -10.744   7.707  69.333  1.00  0.00    -0.323 NA 
HETATM   40  C   UNL     1     -10.854   6.304  71.023  1.00  0.00    -0.326 A  
HETATM   41  C   UNL     1      -6.941   8.140  70.755  1.00  0.00    -0.041 C  
HETATM   42  C   UNL     1     -11.543   7.310  70.364  1.00  0.00    -0.219 A  
HETATM   43  C   UNL     1      -7.679   5.526  72.144  1.00  0.00    -0.102 C  
HETATM   44  C   UNL     1     -12.833   7.730  70.713  1.00  0.00     0.156 A  
HETATM   45  H   UNL     1     -11.060   8.301  68.566  1.00  0.00     0.000 HD 
HETATM   46  C   UNL     1     -13.464   7.061  71.761  1.00  0.00    -0.307 A  
BRANCH  25  47
HETATM   47  C   UNL     1      -7.625   6.514  67.863  1.00  0.00    -0.103 C  
HETATM   48  O   UNL     1      -8.134   5.392  67.806  1.00  0.00    -0.100 OA 
BRANCH  47  49
HETATM   49  O   UNL     1      -6.382   6.806  67.358  1.00  0.00    -0.040 OA 
HETATM   50  C   UNL     1      -5.649   5.678  66.866  1.00  0.00    -0.016 C  
ENDBRANCH  47  49
ENDBRANCH  25  47
BRANCH  29  51
HETATM   51  C   UNL     1      -7.698   8.717  73.804  1.00  0.00     0.017 C  
HETATM   52  C   UNL     1      -8.363   7.446  74.331  1.00  0.00    -0.244 C  
ENDBRANCH  29  51
ENDBRANCH   8  25
BRANCH  18  53
HETATM   53  C   UNL     1      -7.740  13.991  67.040  1.00  0.00     0.151 C  
HETATM   54  C   UNL     1      -6.844  12.911  67.631  1.00  0.00    -0.149 C  
ENDBRANCH  18  53
BRANCH  15  55
HETATM   55  O   UNL     1     -10.137  16.411  66.572  1.00  0.00    -0.270 OA 
BRANCH  55  56
HETATM   56  C   UNL     1     -10.976  17.149  67.367  1.00  0.00    -0.057 C  
HETATM   57  O   UNL     1     -11.844  16.704  68.107  1.00  0.00     0.153 OA 
HETATM   58  C   UNL     1     -10.571  18.603  67.351  1.00  0.00    -0.490 C  
ENDBRANCH  55  56
ENDBRANCH  15  55
BRANCH  14  59
HETATM   59  C   UNL     1     -11.645  14.777  64.523  1.00  0.00    -0.361 C  
HETATM   60  O   UNL     1     -11.676  15.884  63.997  1.00  0.00    -0.549 OA 
BRANCH  59  61
HETATM   61  O   UNL     1     -12.707  13.911  64.523  1.00  0.00    -0.649 OA 
HETATM   62  C   UNL     1     -12.895  13.166  63.315  1.00  0.00     0.450 C  
ENDBRANCH  59  61
ENDBRANCH  14  59
TORSDOF 10
ENDMDL
MODEL       12
REMARK 921   NORMALIZED FREE ENERGY PREDICTED BY IDOCK:   -3.94 KCAL/MOL
REMARK 922        TOTAL FREE ENERGY PREDICTED BY IDOCK:   -7.39 KCAL/MOL
REMARK 923 INTER-LIGAND FREE ENERGY PREDICTED BY IDOCK:   -8.64 KCAL/MOL
REMARK 924 INTRA-LIGAND FREE ENERGY PREDICTED BY IDOCK:    1.25 KCAL/MOL
REMARK 927      BINDING AFFINITY PREDICTED BY RF-SCORE:    0.00 PKD
ROOT
HETATM    1  C   UNL     1     -11.038  12.237  66.101  1.00  0.00    -0.311 C  
HETATM    2  N   UNL     1     -10.441  11.062  65.425  1.00  0.00    -0.261 NA 
HETATM    3  C   UNL     1     -10.624  10.729  64.031  1.00  0.00    -0.105 C  
HETATM    4  C   UNL     1     -10.167  10.124  66.394  1.00  0.00    -0.221 A  
HETATM    5  C   UNL     1      -9.925   8.776  66.239  1.00  0.00    -0.315 A  
HETATM    6  C   UNL     1      -9.565   7.992  67.342  1.00  0.00    -0.153 A  
HETATM    7  N   UNL     1     -10.542  13.564  69.541  1.00  0.00     0.175 NA 
HETATM    8  C   UNL     1      -9.293   8.602  68.588  1.00  0.00    -0.142 A  
HETATM    9  C   UNL     1      -9.589   9.978  68.719  1.00  0.00    -0.168 A  
HETATM   10  C   UNL     1     -10.499  14.931  69.987  1.00  0.00    -0.033 C  
HETATM   11  H   UNL     1      -9.325  14.332  64.120  1.00  0.00     0.000 HD 
HETATM   12  O   UNL     1      -9.550  13.505  64.530  1.00  0.00     0.121 OA 
HETATM   13  C   UNL     1     -10.111  10.683  67.656  1.00  0.00    -0.208 A  
HETATM   14  C   UNL     1     -10.668  13.600  65.425  1.00  0.00    -0.308 C  
HETATM   15  C   UNL     1     -10.346  14.628  66.516  1.00  0.00    -0.282 C  
HETATM   16  C   UNL     1     -10.700  12.075  67.660  1.00  0.00    -0.252 C  
HETATM   17  C   UNL     1      -9.783  13.094  68.386  1.00  0.00    -0.196 C  
HETATM   18  C   UNL     1      -9.164  14.182  67.457  1.00  0.00    -0.192 C  
HETATM   19  C   UNL     1      -8.721  15.382  68.304  1.00  0.00    -0.164 C  
HETATM   20  C   UNL     1     -12.008  12.051  68.500  1.00  0.00    -0.273 C  
HETATM   21  C   UNL     1      -9.335  15.706  69.449  1.00  0.00    -0.279 C  
HETATM   22  C   UNL     1     -11.747  12.824  69.779  1.00  0.00    -0.282 C  
ENDROOT
BRANCH   6  23
HETATM   23  O   UNL     1      -9.435   6.637  67.207  1.00  0.00    -0.128 OA 
HETATM   24  C   UNL     1     -10.564   5.980  66.624  1.00  0.00    -0.245 C  
ENDBRANCH   6  23
BRANCH   8  25
HETATM   25  C   UNL     1      -8.706   7.879  69.859  1.00  0.00    -0.140 C  
HETATM   26  C   UNL     1      -9.131   4.368  73.772  1.00  0.00    -0.104 C  
HETATM   27  C   UNL     1      -6.331   5.944  71.589  1.00  0.00    -0.048 C  
HETATM   28  N   UNL     1      -8.183   5.430  73.380  1.00  0.00    -0.114 NA 
HETATM   29  C   UNL     1     -10.322   4.014  72.796  1.00  0.00    -0.168 C  
HETATM   30  C   UNL     1      -6.795   5.901  70.142  1.00  0.00    -0.053 A  
HETATM   31  C   UNL     1     -10.875   5.306  72.125  1.00  0.00    -0.252 C  
HETATM   32  C   UNL     1      -5.378   3.851  69.272  1.00  0.00    -0.012 A  
HETATM   33  O   UNL     1     -11.388   3.449  73.582  1.00  0.00    -0.220 OA 
HETATM   34  C   UNL     1      -9.984   7.279  70.641  1.00  0.00    -0.187 C  
HETATM   35  C   UNL     1      -8.899   6.565  72.826  1.00  0.00    -0.123 C  
HETATM   36  H   UNL     1     -12.104   3.236  72.995  1.00  0.00     0.000 HD 
HETATM   37  C   UNL     1      -7.711   6.714  69.442  1.00  0.00    -0.101 A  
HETATM   38  C   UNL     1      -5.143   3.058  68.139  1.00  0.00    -0.012 A  
HETATM   39  N   UNL     1      -7.569   6.349  68.115  1.00  0.00    -0.101 NA 
HETATM   40  C   UNL     1      -6.288   4.927  69.197  1.00  0.00    -0.031 A  
HETATM   41  C   UNL     1      -9.686   6.126  71.600  1.00  0.00    -0.177 C  
HETATM   42  C   UNL     1      -6.868   5.190  67.967  1.00  0.00    -0.060 A  
HETATM   43  C   UNL     1      -7.037   4.965  72.572  1.00  0.00    -0.077 C  
HETATM   44  C   UNL     1      -6.666   4.403  66.826  1.00  0.00    -0.051 A  
HETATM   45  H   UNL     1      -7.948   6.887  67.336  1.00  0.00     0.000 HD 
HETATM   46  C   UNL     1      -5.797   3.318  66.939  1.00  0.00    -0.023 A  
BRANCH  25  47
HETATM   47  C   UNL     1      -7.890   8.866  70.739  1.00  0.00    -0.119 C  
HETATM   48  O   UNL     1      -8.275   9.328  71.815  1.00  0.00    -0.287 OA 
BRANCH  47  49
HETATM   49  O   UNL     1      -6.674   9.167  70.178  1.00  0.00    -0.042 OA 
HETATM   50  C   UNL     1      -6.224  10.509  70.398  1.00  0.00    -0.128 C  
ENDBRANCH  47  49
ENDBRANCH  25  47
BRANCH  29  51
HETATM   51  C   UNL     1      -9.898   2.942  71.757  1.00  0.00    -0.218 C  
HETATM   52  C   UNL     1      -9.036   1.813  72.320  1.00  0.00    -0.112 C  
ENDBRANCH  29  51
ENDBRANCH   8  25
BRANCH  18  53
HETATM   53  C   UNL     1      -7.826  13.527  66.924  1.00  0.00     0.255 C  
HETATM   54  C   UNL     1      -6.782  12.847  67.800  1.00  0.00    -0.141 C  
ENDBRANCH  18  53
BRANCH  15  55
HETATM   55  O   UNL     1     -10.078  15.962  66.018  1.00  0.00    -0.291 OA 
BRANCH  55  56
HETATM   56  C   UNL     1     -10.877  16.921  66.586  1.00  0.00     0.023 C  
HETATM   57  O   UNL     1     -11.851  16.717  67.300  1.00  0.00     0.708 OA 
HETATM   58  C   UNL     1     -10.290  18.293  66.363  1.00  0.00    -0.418 C  
ENDBRANCH  55  56
ENDBRANCH  15  55
BRANCH  14  59
HETATM   59  C   UNL     1     -11.835  14.025  64.500  1.00  0.00    -0.434 C  
HETATM   60  O   UNL     1     -11.929  15.096  63.912  1.00  0.00    -0.415 OA 
BRANCH  59  61
HETATM   61  O   UNL     1     -12.838  13.093  64.536  1.00  0.00    -0.680 OA 
HETATM   62  C   UNL     1     -12.985  12.299  63.354  1.00  0.00    -0.064 C  
ENDBRANCH  59  61
ENDBRANCH  14  59
TORSDOF 10
ENDMDL
MODEL       13
REMARK 921   NORMALIZED FREE ENERGY PREDICTED BY IDOCK:   -3.90 KCAL/MOL
REMARK 922        TOTAL FREE ENERGY PREDICTED BY IDOCK:   -7.33 KCAL/MOL
REMARK 923 INTER-LIGAND FREE ENERGY PREDICTED BY IDOCK:   -8.19 KCAL/MOL
REMARK 924 INTRA-LIGAND FREE ENERGY PREDICTED BY IDOCK:    0.85 KCAL/MOL
REMARK 927      BINDING AFFINITY PREDICTED BY RF-SCORE:    0.00 PKD
ROOT
HETATM    1  C   UNL     1     -10.213   4.862  71.500  1.00  0.00    -0.194 C  
HETATM    2  N   UNL     1     -11.140   5.881  72.046  1.00  0.00    -0.265 NA 
HETATM    3  C   UNL     1     -12.236   5.602  72.944  1.00  0.00     0.272 C  
HETATM    4  C   UNL     1     -11.122   6.956  71.188  1.00  0.00    -0.260 A  
HETATM    5  C   UNL     1     -12.036   7.982  71.080  1.00  0.00    -0.284 A  
HETATM    6  C   UNL     1     -11.798   9.052  70.207  1.00  0.00     0.100 A  
HETATM    7  N   UNL     1      -7.135   5.242  69.446  1.00  0.00    -0.055 NA 
HETATM    8  C   UNL     1     -10.552   9.167  69.551  1.00  0.00    -0.233 A  
HETATM    9  C   UNL     1      -9.656   8.077  69.654  1.00  0.00    -0.168 A  
HETATM   10  C   UNL     1      -5.915   4.480  69.490  1.00  0.00    -0.018 C  
HETATM   11  H   UNL     1      -9.103   4.124  74.577  1.00  0.00     0.000 HD 
HETATM   12  O   UNL     1      -9.547   4.629  73.907  1.00  0.00    -0.122 OA 
HETATM   13  C   UNL     1     -10.000   6.960  70.383  1.00  0.00    -0.190 A  
HETATM   14  C   UNL     1      -9.480   4.029  72.604  1.00  0.00    -0.128 C  
HETATM   15  C   UNL     1      -8.009   3.858  72.210  1.00  0.00    -0.080 C  
HETATM   16  C   UNL     1      -9.296   5.623  70.426  1.00  0.00    -0.193 C  
HETATM   17  C   UNL     1      -7.768   5.774  70.648  1.00  0.00    -0.093 C  
HETATM   18  C   UNL     1      -7.257   5.230  72.017  1.00  0.00    -0.086 C  
HETATM   19  C   UNL     1      -5.750   4.964  71.927  1.00  0.00    -0.012 C  
HETATM   20  C   UNL     1      -9.429   4.954  69.028  1.00  0.00    -0.205 C  
HETATM   21  C   UNL     1      -5.157   4.627  70.773  1.00  0.00     0.000 C  
HETATM   22  C   UNL     1      -8.056   4.963  68.383  1.00  0.00    -0.085 C  
ENDROOT
BRANCH   6  23
HETATM   23  O   UNL     1     -12.756  10.009  70.020  1.00  0.00     0.019 OA 
HETATM   24  C   UNL     1     -13.981   9.781  70.722  1.00  0.00     0.439 C  
ENDBRANCH   6  23
BRANCH   8  25
HETATM   25  C   UNL     1     -10.075  10.397  68.690  1.00  0.00    -0.188 C  
HETATM   26  C   UNL     1     -10.553  13.542  64.483  1.00  0.00    -0.424 C  
HETATM   27  C   UNL     1      -9.330  13.795  68.160  1.00  0.00    -0.211 C  
HETATM   28  N   UNL     1      -9.586  13.360  65.583  1.00  0.00    -0.070 NA 
HETATM   29  C   UNL     1     -11.898  12.713  64.508  1.00  0.00    -0.379 C  
HETATM   30  C   UNL     1     -10.372  13.124  69.040  1.00  0.00     0.025 A  
HETATM   31  C   UNL     1     -11.640  11.277  65.051  1.00  0.00     0.204 C  
HETATM   32  C   UNL     1     -11.585  15.257  70.015  1.00  0.00    -0.331 A  
HETATM   33  O   UNL     1     -12.365  12.581  63.152  1.00  0.00    -0.676 OA 
HETATM   34  C   UNL     1     -10.668  10.144  67.210  1.00  0.00    -0.316 C  
HETATM   35  C   UNL     1      -9.448  11.950  65.903  1.00  0.00    -0.214 C  
HETATM   36  H   UNL     1     -13.174  12.082  63.167  1.00  0.00     0.000 HD 
HETATM   37  C   UNL     1     -10.632  11.759  69.287  1.00  0.00    -0.008 A  
HETATM   38  C   UNL     1     -12.639  15.657  70.850  1.00  0.00    -0.503 A  
HETATM   39  N   UNL     1     -11.541  11.753  70.329  1.00  0.00    -0.517 NA 
HETATM   40  C   UNL     1     -11.318  13.883  69.832  1.00  0.00    -0.176 A  
HETATM   41  C   UNL     1     -10.796  11.388  66.331  1.00  0.00    -0.323 C  
HETATM   42  C   UNL     1     -12.087  12.981  70.551  1.00  0.00    -0.292 A  
HETATM   43  C   UNL     1      -9.803  14.243  66.747  1.00  0.00    -0.270 C  
HETATM   44  C   UNL     1     -13.157  13.352  71.376  1.00  0.00    -0.373 A  
HETATM   45  H   UNL     1     -11.777  10.920  70.870  1.00  0.00     0.000 HD 
HETATM   46  C   UNL     1     -13.428  14.715  71.502  1.00  0.00    -0.464 A  
BRANCH  25  47
HETATM   47  C   UNL     1      -8.526  10.514  68.688  1.00  0.00    -0.138 C  
HETATM   48  O   UNL     1      -7.807  10.293  67.711  1.00  0.00    -0.100 OA 
BRANCH  47  49
HETATM   49  O   UNL     1      -8.039  10.899  69.912  1.00  0.00     0.211 OA 
HETATM   50  C   UNL     1      -6.789  11.598  69.873  1.00  0.00     0.143 C  
ENDBRANCH  47  49
ENDBRANCH  25  47
BRANCH  29  51
HETATM   51  C   UNL     1     -13.003  13.457  65.305  1.00  0.00    -0.258 C  
HETATM   52  C   UNL     1     -12.526  14.707  66.043  1.00  0.00    -0.052 C  
ENDBRANCH  29  51
ENDBRANCH   8  25
BRANCH  18  53
HETATM   53  C   UNL     1      -7.410   6.454  73.007  1.00  0.00    -0.090 C  
HETATM   54  C   UNL     1      -6.758   7.816  72.812  1.00  0.00    -0.072 C  
ENDBRANCH  18  53
BRANCH  15  55
HETATM   55  O   UNL     1      -7.242   3.021  73.110  1.00  0.00    -0.042 OA 
BRANCH  55  56
HETATM   56  C   UNL     1      -6.659   1.949  72.485  1.00  0.00    -0.014 C  
HETATM   57  O   UNL     1      -6.964   1.502  71.387  1.00  0.00    -0.026 OA 
HETATM   58  C   UNL     1      -5.448   1.486  73.259  1.00  0.00     0.000 C  
ENDBRANCH  55  56
ENDBRANCH  15  55
BRANCH  14  59
HETATM   59  C   UNL     1     -10.230   2.686  72.788  1.00  0.00    -0.155 C  
HETATM   60  O   UNL     1     -10.140   1.709  72.055  1.00  0.00    -0.134 OA 
BRANCH  59  61
HETATM   61  O   UNL     1     -11.133   2.780  73.814  1.00  0.00    -0.203 OA 
HETATM   62  C   UNL     1     -11.969   1.634  74.006  1.00  0.00     0.090 C  
ENDBRANCH  59  61
ENDBRANCH  14  59
TORSDOF 10
ENDMDL
MODEL       14
REMARK 921   NORMALIZED FREE ENERGY PREDICTED BY IDOCK:   -3.80 KCAL/MOL
REMARK 922        TOTAL FREE ENERGY PREDICTED BY IDOCK:   -7.17 KCAL/MOL
REMARK 923 INTER-LIGAND FREE ENERGY PREDICTED BY IDOCK:   -7.01 KCAL/MOL
REMARK 924 INTRA-LIGAND FREE ENERGY PREDICTED BY IDOCK:   -0.16 KCAL/MOL
REMARK 927      BINDING AFFINITY PREDICTED BY RF-SCORE:    0.00 PKD
ROOT
HETATM    1  C   UNL     1      -7.866  13.613  67.905  1.00  0.00    -0.159 C  
HETATM    2  N   UNL     1      -7.272  13.075  69.151  1.00  0.00     0.015 NA 
HETATM    3  C   UNL     1      -6.353  13.792  70.004  1.00  0.00    -0.084 C  
HETATM    4  C   UNL     1      -7.306  11.702  69.065  1.00  0.00    -0.074 A  
HETATM    5  C   UNL     1      -6.590  10.779  69.797  1.00  0.00    -0.128 A  
HETATM    6  C   UNL     1      -6.832   9.409  69.635  1.00  0.00    -0.056 A  
HETATM    7  N   UNL     1     -10.469  12.197  65.656  1.00  0.00    -0.247 NA 
HETATM    8  C   UNL     1      -7.915   8.969  68.841  1.00  0.00    -0.100 A  
HETATM    9  C   UNL     1      -8.600   9.940  68.075  1.00  0.00    -0.121 A  
HETATM   10  C   UNL     1     -11.513  12.878  64.937  1.00  0.00    -0.315 C  
HETATM   11  H   UNL     1      -9.437  16.031  69.618  1.00  0.00     0.000 HD 
HETATM   12  O   UNL     1      -8.963  15.218  69.490  1.00  0.00    -0.242 OA 
HETATM   13  C   UNL     1      -8.219  11.264  68.126  1.00  0.00    -0.140 A  
HETATM   14  C   UNL     1      -8.649  14.952  68.115  1.00  0.00    -0.159 C  
HETATM   15  C   UNL     1      -9.951  14.904  67.308  1.00  0.00    -0.230 C  
HETATM   16  C   UNL     1      -8.663  12.396  67.230  1.00  0.00    -0.191 C  
HETATM   17  C   UNL     1     -10.205  12.444  67.070  1.00  0.00    -0.220 C  
HETATM   18  C   UNL     1     -10.881  13.697  67.707  1.00  0.00    -0.266 C  
HETATM   19  C   UNL     1     -12.264  13.903  67.077  1.00  0.00    -0.392 C  
HETATM   20  C   UNL     1      -8.125  12.125  65.795  1.00  0.00     1.004 C  
HETATM   21  C   UNL     1     -12.534  13.524  65.821  1.00  0.00    -0.514 C  
HETATM   22  C   UNL     1      -9.313  11.782  64.917  1.00  0.00     0.054 C  
ENDROOT
BRANCH   6  23
HETATM   23  O   UNL     1      -6.045   8.494  70.278  1.00  0.00    -0.030 OA 
HETATM   24  C   UNL     1      -6.139   8.517  71.706  1.00  0.00    -0.058 C  
ENDBRANCH   6  23
BRANCH   8  25
HETATM   25  C   UNL     1      -8.418   7.481  68.712  1.00  0.00    -0.129 C  
HETATM   26  C   UNL     1      -7.531   2.284  68.880  1.00  0.00    -0.043 C  
HETATM   27  C   UNL     1     -10.461   4.743  69.554  1.00  0.00     0.119 C  
HETATM   28  N   UNL     1      -8.645   3.172  68.490  1.00  0.00    -0.083 NA 
HETATM   29  C   UNL     1      -6.242   2.923  69.534  1.00  0.00    -0.028 C  
HETATM   30  C   UNL     1      -9.920   5.885  70.398  1.00  0.00    -0.247 A  
HETATM   31  C   UNL     1      -5.916   4.291  68.863  1.00  0.00    -0.023 C  
HETATM   32  C   UNL     1     -10.861   5.188  72.764  1.00  0.00    -0.314 A  
HETATM   33  O   UNL     1      -5.131   2.045  69.278  1.00  0.00    -0.007 OA 
HETATM   34  C   UNL     1      -7.092   6.600  68.446  1.00  0.00    -0.083 C  
HETATM   35  C   UNL     1      -8.134   4.363  67.836  1.00  0.00    -0.094 C  
HETATM   36  H   UNL     1      -4.356   2.429  69.672  1.00  0.00     0.000 HD 
HETATM   37  C   UNL     1      -9.143   7.008  70.043  1.00  0.00    -0.145 A  
HETATM   38  C   UNL     1     -10.875   5.566  74.115  1.00  0.00     0.004 A  
HETATM   39  N   UNL     1      -9.138   7.809  71.171  1.00  0.00    -0.141 NA 
HETATM   40  C   UNL     1     -10.175   5.983  71.821  1.00  0.00    -0.242 A  
HETATM   41  C   UNL     1      -7.211   5.114  68.785  1.00  0.00    -0.062 C  
HETATM   42  C   UNL     1      -9.591   7.154  72.277  1.00  0.00    -0.142 A  
HETATM   43  C   UNL     1      -9.632   3.426  69.560  1.00  0.00    -0.081 C  
HETATM   44  C   UNL     1      -9.574   7.545  73.621  1.00  0.00    -0.347 A  
HETATM   45  H   UNL     1      -8.830   8.782  71.174  1.00  0.00     0.000 HD 
HETATM   46  C   UNL     1     -10.219   6.717  74.539  1.00  0.00    -0.197 A  
BRANCH  25  47
HETATM   47  C   UNL     1      -9.457   7.337  67.566  1.00  0.00    -0.129 C  
HETATM   48  O   UNL     1      -9.183   7.017  66.407  1.00  0.00    -0.158 OA 
BRANCH  47  49
HETATM   49  O   UNL     1     -10.733   7.606  67.994  1.00  0.00    -0.178 OA 
HETATM   50  C   UNL     1     -11.735   6.703  67.512  1.00  0.00     1.028 C  
ENDBRANCH  47  49
ENDBRANCH  25  47
BRANCH  29  51
HETATM   51  C   UNL     1      -6.393   3.041  71.074  1.00  0.00    -0.019 C  
HETATM   52  C   UNL     1      -6.307   4.467  71.617  1.00  0.00    -0.019 C  
ENDBRANCH  29  51
ENDBRANCH   8  25
BRANCH  18  53
HETATM   53  C   UNL     1     -11.161  13.271  69.205  1.00  0.00    -0.305 C  
HETATM   54  C   UNL     1     -11.803  14.164  70.258  1.00  0.00    -0.373 C  
ENDBRANCH  18  53
BRANCH  15  55
HETATM   55  O   UNL     1     -10.723  16.129  67.345  1.00  0.00    -0.312 OA 
BRANCH  55  56
HETATM   56  C   UNL     1     -10.508  16.935  66.257  1.00  0.00    -0.262 C  
HETATM   57  O   UNL     1     -10.341  18.148  66.280  1.00  0.00    -0.388 OA 
HETATM   58  C   UNL     1     -10.321  16.100  65.013  1.00  0.00    -0.086 C  
ENDBRANCH  55  56
ENDBRANCH  15  55
BRANCH  14  59
HETATM   59  C   UNL     1      -7.723  16.131  67.723  1.00  0.00    -0.140 C  
HETATM   60  O   UNL     1      -6.918  16.134  66.800  1.00  0.00    -0.197 OA 
BRANCH  59  61
HETATM   61  O   UNL     1      -7.818  17.140  68.645  1.00  0.00    -0.246 OA 
HETATM   62  C   UNL     1      -8.175  18.423  68.120  1.00  0.00    -0.287 C  
ENDBRANCH  59  61
ENDBRANCH  14  59
TORSDOF 10
ENDMDL
MODEL       15
REMARK 921   NORMALIZED FREE ENERGY PREDICTED BY IDOCK:   -3.47 KCAL/MOL
REMARK 922        TOTAL FREE ENERGY PREDICTED BY IDOCK:   -6.65 KCAL/MOL
REMARK 923 INTER-LIGAND FREE ENERGY PREDICTED BY IDOCK:   -5.67 KCAL/MOL
REMARK 924 INTRA-LIGAND FREE ENERGY PREDICTED BY IDOCK:   -0.98 KCAL/MOL
REMARK 927      BINDING AFFINITY PREDICTED BY RF-SCORE:    0.00 PKD
ROOT
HETATM    1  C   UNL     1      -8.165   5.252  69.956  1.00  0.00    -0.084 C  
HETATM    2  N   UNL     1      -8.422   5.183  68.499  1.00  0.00    -0.089 NA 
HETATM    3  C   UNL     1      -8.271   3.996  67.690  1.00  0.00    -0.094 C  
HETATM    4  C   UNL     1      -8.300   6.458  67.998  1.00  0.00    -0.115 A  
HETATM    5  C   UNL     1      -8.120   6.851  66.689  1.00  0.00    -0.110 A  
HETATM    6  C   UNL     1      -8.116   8.211  66.354  1.00  0.00    -0.106 A  
HETATM    7  N   UNL     1      -8.738   8.008  72.388  1.00  0.00    -0.149 NA 
HETATM    8  C   UNL     1      -8.452   9.182  67.326  1.00  0.00    -0.121 A  
HETATM    9  C   UNL     1      -8.591   8.745  68.664  1.00  0.00    -0.134 A  
HETATM   10  C   UNL     1      -9.167   7.932  73.760  1.00  0.00    -0.203 C  
HETATM   11  H   UNL     1     -10.618   3.048  70.564  1.00  0.00     0.000 HD 
HETATM   12  O   UNL     1     -10.110   3.673  70.060  1.00  0.00     0.062 OA 
HETATM   13  C   UNL     1      -8.414   7.417  68.985  1.00  0.00    -0.129 A  
HETATM   14  C   UNL     1      -9.002   4.224  70.788  1.00  0.00    -0.101 C  
HETATM   15  C   UNL     1      -9.530   4.912  72.051  1.00  0.00    -0.143 C  
HETATM   16  C   UNL     1      -8.293   6.799  70.359  1.00  0.00    -0.130 C  
HETATM   17  C   UNL     1      -9.413   7.282  71.317  1.00  0.00    -0.155 C  
HETATM   18  C   UNL     1     -10.423   6.173  71.742  1.00  0.00    -0.259 C  
HETATM   19  C   UNL     1     -11.141   6.603  73.026  1.00  0.00    -0.238 C  
HETATM   20  C   UNL     1      -6.973   7.303  71.008  1.00  0.00    -0.060 C  
HETATM   21  C   UNL     1     -10.558   7.403  73.929  1.00  0.00     0.012 C  
HETATM   22  C   UNL     1      -7.346   8.243  72.139  1.00  0.00    -0.102 C  
ENDROOT
BRANCH   6  23
HETATM   23  O   UNL     1      -7.827   8.602  65.076  1.00  0.00    -0.104 OA 
HETATM   24  C   UNL     1      -8.115   7.627  64.070  1.00  0.00    -0.045 C  
ENDBRANCH   6  23
BRANCH   8  25
HETATM   25  C   UNL     1      -8.666  10.719  67.056  1.00  0.00    -0.136 C  
HETATM   26  C   UNL     1     -11.383  15.187  67.747  1.00  0.00    -0.328 C  
HETATM   27  C   UNL     1      -7.710  14.106  67.096  1.00  0.00    -0.021 C  
HETATM   28  N   UNL     1     -10.253  14.735  66.911  1.00  0.00    -0.255 NA 
HETATM   29  C   UNL     1     -11.958  14.205  68.843  1.00  0.00    -0.341 C  
HETATM   30  C   UNL     1      -7.389  12.964  68.047  1.00  0.00    -0.120 A  
HETATM   31  C   UNL     1     -11.951  12.740  68.315  1.00  0.00    -0.276 C  
HETATM   32  C   UNL     1      -5.969  14.262  69.853  1.00  0.00    -0.132 A  
HETATM   33  O   UNL     1     -13.330  14.565  69.088  1.00  0.00     0.869 OA 
HETATM   34  C   UNL     1     -10.222  11.001  67.379  1.00  0.00    -0.229 C  
HETATM   35  C   UNL     1     -10.463  13.365  66.477  1.00  0.00    -0.283 C  
HETATM   36  H   UNL     1     -13.675  13.975  69.748  1.00  0.00     0.000 HD 
HETATM   37  C   UNL     1      -7.734  11.597  67.997  1.00  0.00    -0.121 A  
HETATM   38  C   UNL     1      -5.290  14.095  71.070  1.00  0.00    -0.153 A  
HETATM   39  N   UNL     1      -6.991  11.005  69.002  1.00  0.00    -0.087 NA 
HETATM   40  C   UNL     1      -6.592  13.154  69.241  1.00  0.00    -0.091 A  
HETATM   41  C   UNL     1     -10.576  12.455  67.692  1.00  0.00    -0.236 C  
HETATM   42  C   UNL     1      -6.445  11.919  69.853  1.00  0.00    -0.048 A  
HETATM   43  C   UNL     1      -8.918  15.008  67.481  1.00  0.00    -0.183 C  
HETATM   44  C   UNL     1      -5.790  11.728  71.076  1.00  0.00     0.187 A  
HETATM   45  H   UNL     1      -6.865   9.997  69.096  1.00  0.00     0.000 HD 
HETATM   46  C   UNL     1      -5.223  12.849  71.683  1.00  0.00    -0.102 A  
BRANCH  25  47
HETATM   47  C   UNL     1      -8.294  11.089  65.594  1.00  0.00    -0.060 C  
HETATM   48  O   UNL     1      -7.177  11.462  65.228  1.00  0.00     0.574 OA 
BRANCH  47  49
HETATM   49  O   UNL     1      -9.361  10.949  64.743  1.00  0.00    -0.210 OA 
HETATM   50  C   UNL     1      -9.220  11.616  63.483  1.00  0.00     0.024 C  
ENDBRANCH  47  49
ENDBRANCH  25  47
BRANCH  29  51
HETATM   51  C   UNL     1     -11.195  14.353  70.187  1.00  0.00    -0.152 C  
HETATM   52  C   UNL     1     -12.039  14.085  71.433  1.00  0.00    -0.252 C  
ENDBRANCH  29  51
ENDBRANCH   8  25
BRANCH  18  53
HETATM   53  C   UNL     1     -11.531   6.199  70.613  1.00  0.00    -0.331 C  
HETATM   54  C   UNL     1     -12.722   7.148  70.584  1.00  0.00    -0.021 C  
ENDBRANCH  18  53
BRANCH  15  55
HETATM   55  O   UNL     1     -10.246   4.035  72.955  1.00  0.00    -0.145 OA 
BRANCH  55  56
HETATM   56  C   UNL     1      -9.461   3.546  73.968  1.00  0.00    -0.092 C  
HETATM   57  O   UNL     1      -9.551   2.437  74.477  1.00  0.00    -0.084 OA 
HETATM   58  C   UNL     1      -8.331   4.502  74.263  1.00  0.00    -0.098 C  
ENDBRANCH  55  56
ENDBRANCH  15  55
BRANCH  14  59
HETATM   59  C   UNL     1      -8.115   2.988  71.083  1.00  0.00    -0.057 C  
HETATM   60  O   UNL     1      -8.485   1.820  71.066  1.00  0.00    -0.049 OA 
BRANCH  59  61
HETATM   61  O   UNL     1      -6.875   3.382  71.513  1.00  0.00    -0.029 OA 
HETATM   62  C   UNL     1      -5.783   2.571  71.069  1.00  0.00    -0.013 C  
ENDBRANCH  59  61
ENDBRANCH  14  59
TORSDOF 10
ENDMDL
MODEL       16
REMARK 921   NORMALIZED FREE ENERGY PREDICTED BY IDOCK:   -3.42 KCAL/MOL
REMARK 922        TOTAL FREE ENERGY PREDICTED BY IDOCK:   -6.57 KCAL/MOL
REMARK 923 INTER-LIGAND FREE ENERGY PREDICTED BY IDOCK:   -4.93 KCAL/MOL
REMARK 924 INTRA-LIGAND FREE ENERGY PREDICTED BY IDOCK:   -1.64 KCAL/MOL
REMARK 927      BINDING AFFINITY PREDICTED BY RF-SCORE:    0.00 PKD
ROOT
HETATM    1  C   UNL     1     -10.902   8.177  70.357  1.00  0.00    -0.236 C  
HETATM    2  N   UNL     1     -11.355   9.335  71.162  1.00  0.00    -0.311 NA 
HETATM    3  C   UNL     1     -12.203   9.249  72.328  1.00  0.00    -0.235 C  
HETATM    4  C   UNL     1     -11.293  10.448  70.356  1.00  0.00    -0.337 A  
HETATM    5  C   UNL     1     -11.908  11.670  70.531  1.00  0.00    -0.328 A  
HETATM    6  C   UNL     1     -11.647  12.725  69.648  1.00  0.00    -0.252 A  
HETATM    7  N   UNL     1      -8.499   7.991  67.523  1.00  0.00    -0.126 NA 
HETATM    8  C   UNL     1     -10.637  12.596  68.667  1.00  0.00    -0.245 A  
HETATM    9  C   UNL     1     -10.057  11.318  68.492  1.00  0.00    -0.210 A  
HETATM   10  C   UNL     1      -7.550   6.956  67.206  1.00  0.00    -0.108 C  
HETATM   11  H   UNL     1      -9.233   6.918  72.979  1.00  0.00     0.000 HD 
HETATM   12  O   UNL     1      -9.696   7.574  72.472  1.00  0.00    -0.152 OA 
HETATM   13  C   UNL     1     -10.466  10.254  69.266  1.00  0.00    -0.250 A  
HETATM   14  C   UNL     1     -10.138   7.096  71.192  1.00  0.00    -0.187 C  
HETATM   15  C   UNL     1      -8.922   6.613  70.394  1.00  0.00    -0.152 C  
HETATM   16  C   UNL     1     -10.145   8.789  69.083  1.00  0.00    -0.203 C  
HETATM   17  C   UNL     1      -8.627   8.548  68.865  1.00  0.00    -0.127 C  
HETATM   18  C   UNL     1      -7.924   7.775  70.023  1.00  0.00    -0.113 C  
HETATM   19  C   UNL     1      -6.617   7.163  69.505  1.00  0.00    -0.044 C  
HETATM   20  C   UNL     1     -10.815   8.302  67.766  1.00  0.00    -0.061 C  
HETATM   21  C   UNL     1      -6.463   6.800  68.225  1.00  0.00    -0.053 C  
HETATM   22  C   UNL     1      -9.711   8.038  66.760  1.00  0.00    -0.237 C  
ENDROOT
BRANCH   6  23
HETATM   23  O   UNL     1     -12.341  13.898  69.758  1.00  0.00    -0.329 OA 
HETATM   24  C   UNL     1     -12.471  14.397  71.092  1.00  0.00    -0.359 C  
ENDBRANCH   6  23
BRANCH   8  25
HETATM   25  C   UNL     1     -10.110  13.748  67.731  1.00  0.00    -0.245 C  
HETATM   26  C   UNL     1     -10.263  18.738  66.029  1.00  0.00    -0.372 C  
HETATM   27  C   UNL     1      -7.645  15.897  66.430  1.00  0.00     0.174 C  
HETATM   28  N   UNL     1      -9.577  17.491  65.638  1.00  0.00    -0.415 NA 
HETATM   29  C   UNL     1     -11.129  18.748  67.351  1.00  0.00    -0.013 C  
HETATM   30  C   UNL     1      -7.822  15.299  67.817  1.00  0.00    -0.161 A  
HETATM   31  C   UNL     1     -11.879  17.393  67.517  1.00  0.00     1.681 C  
HETATM   32  C   UNL     1      -5.783  16.424  69.060  1.00  0.00    -0.130 A  
HETATM   33  O   UNL     1     -12.127  19.777  67.222  1.00  0.00     1.406 OA 
HETATM   34  C   UNL     1     -11.299  14.838  67.679  1.00  0.00    -0.352 C  
HETATM   35  C   UNL     1     -10.461  16.353  65.817  1.00  0.00    -0.354 C  
HETATM   36  H   UNL     1     -12.647  19.783  68.017  1.00  0.00     0.000 HD 
HETATM   37  C   UNL     1      -8.785  14.397  68.318  1.00  0.00    -0.180 A  
HETATM   38  C   UNL     1      -5.153  16.518  70.310  1.00  0.00    -0.190 A  
HETATM   39  N   UNL     1      -8.323  14.043  69.572  1.00  0.00    -0.059 NA 
HETATM   40  C   UNL     1      -6.919  15.600  68.909  1.00  0.00    -0.130 A  
HETATM   41  C   UNL     1     -10.878  16.252  67.278  1.00  0.00    -0.216 C  
HETATM   42  C   UNL     1      -7.325  14.862  70.009  1.00  0.00     0.068 A  
HETATM   43  C   UNL     1      -8.227  17.324  66.213  1.00  0.00    -0.267 C  
HETATM   44  C   UNL     1      -6.726  14.952  71.272  1.00  0.00     0.909 A  
HETATM   45  H   UNL     1      -8.689  13.258  70.110  1.00  0.00     0.000 HD 
HETATM   46  C   UNL     1      -5.634  15.810  71.405  1.00  0.00     0.309 A  
BRANCH  25  47
HETATM   47  C   UNL     1      -9.751  13.205  66.320  1.00  0.00    -0.265 C  
HETATM   48  O   UNL     1      -8.630  12.819  65.982  1.00  0.00     0.327 OA 
BRANCH  47  49
HETATM   49  O   UNL     1     -10.838  13.198  65.482  1.00  0.00    -0.278 OA 
HETATM   50  C   UNL     1     -10.571  12.741  64.151  1.00  0.00    -0.415 C  
ENDBRANCH  47  49
ENDBRANCH  25  47
BRANCH  29  51
HETATM   51  C   UNL     1     -10.261  19.099  68.590  1.00  0.00    -0.407 C  
HETATM   52  C   UNL     1      -8.968  19.849  68.271  1.00  0.00    -0.294 C  
ENDBRANCH  29  51
ENDBRANCH   8  25
BRANCH  18  53
HETATM   53  C   UNL     1      -7.486   8.905  71.039  1.00  0.00    -0.124 C  
HETATM   54  C   UNL     1      -6.189   9.697  70.952  1.00  0.00    -0.087 C  
ENDBRANCH  18  53
BRANCH  15  55
HETATM   55  O   UNL     1      -8.183   5.538  71.024  1.00  0.00    -0.115 OA 
BRANCH  55  56
HETATM   56  C   UNL     1      -8.314   4.339  70.373  1.00  0.00    -0.065 C  
HETATM   57  O   UNL     1      -9.084   4.100  69.452  1.00  0.00    -0.102 OA 
HETATM   58  C   UNL     1      -7.243   3.376  70.825  1.00  0.00    -0.033 C  
ENDBRANCH  55  56
ENDBRANCH  15  55
BRANCH  14  59
HETATM   59  C   UNL     1     -11.129   5.962  71.555  1.00  0.00    -0.250 C  
HETATM   60  O   UNL     1     -11.986   5.495  70.814  1.00  0.00     0.831 OA 
BRANCH  59  61
HETATM   61  O   UNL     1     -11.020   5.637  72.881  1.00  0.00    -0.245 OA 
HETATM   62  C   UNL     1     -10.906   4.240  73.167  1.00  0.00    -0.219 C  
ENDBRANCH  59  61
ENDBRANCH  14  59
TORSDOF 10
ENDMDL
MODEL       17
REMARK 921   NORMALIZED FREE ENERGY PREDICTED BY IDOCK:   -3.18 KCAL/MOL
REMARK 922        TOTAL FREE ENERGY PREDICTED BY IDOCK:   -6.18 KCAL/MOL
REMARK 923 INTER-LIGAND FREE ENERGY PREDICTED BY IDOCK:   -6.20 KCAL/MOL
REMARK 924 INTRA-LIGAND FREE ENERGY PREDICTED BY IDOCK:    0.02 KCAL/MOL
REMARK 927      BINDING AFFINITY PREDICTED BY RF-SCORE:    0.00 PKD
ROOT
HETATM    1  C   UNL     1     -10.018   6.862  70.975  1.00  0.00    -0.188 C  
HETATM    2  N   UNL     1     -10.811   7.747  71.860  1.00  0.00    -0.227 NA 
HETATM    3  C   UNL     1     -11.631   7.295  72.959  1.00  0.00    -0.020 C  
HETATM    4  C   UNL     1     -11.051   8.913  71.169  1.00  0.00    -0.285 A  
HETATM    5  C   UNL     1     -11.998   9.881  71.425  1.00  0.00    -0.489 A  
HETATM    6  C   UNL     1     -12.028  11.057  70.665  1.00  0.00    -0.365 A  
HETATM    7  N   UNL     1      -7.583   7.679  68.284  1.00  0.00    -0.111 NA 
HETATM    8  C   UNL     1     -10.996  11.330  69.738  1.00  0.00    -0.170 A  
HETATM    9  C   UNL     1     -10.066  10.297  69.475  1.00  0.00    -0.260 A  
HETATM   10  C   UNL     1      -6.367   6.999  67.925  1.00  0.00    -0.043 C  
HETATM   11  H   UNL     1      -8.133   5.851  73.558  1.00  0.00     0.000 HD 
HETATM   12  O   UNL     1      -8.752   6.400  73.089  1.00  0.00    -0.123 OA 
HETATM   13  C   UNL     1     -10.172   9.083  70.118  1.00  0.00    -0.224 A  
HETATM   14  C   UNL     1      -8.999   5.959  71.746  1.00  0.00    -0.139 C  
HETATM   15  C   UNL     1      -7.672   5.932  70.979  1.00  0.00    -0.101 C  
HETATM   16  C   UNL     1      -9.434   7.800  69.813  1.00  0.00    -0.160 C  
HETATM   17  C   UNL     1      -7.907   8.027  69.664  1.00  0.00    -0.104 C  
HETATM   18  C   UNL     1      -7.044   7.364  70.781  1.00  0.00    -0.063 C  
HETATM   19  C   UNL     1      -5.601   7.211  70.285  1.00  0.00    -0.023 C  
HETATM   20  C   UNL     1      -9.896   7.289  68.418  1.00  0.00    -0.161 C  
HETATM   21  C   UNL     1      -5.311   7.049  68.987  1.00  0.00    -0.014 C  
HETATM   22  C   UNL     1      -8.735   7.463  67.458  1.00  0.00    -0.124 C  
ENDROOT
BRANCH   6  23
HETATM   23  O   UNL     1     -13.035  11.964  70.846  1.00  0.00    -0.177 OA 
HETATM   24  C   UNL     1     -13.485  12.102  72.197  1.00  0.00    -0.278 C  
ENDBRANCH   6  23
BRANCH   8  25
HETATM   25  C   UNL     1     -10.799  12.680  68.950  1.00  0.00    -0.238 C  
HETATM   26  C   UNL     1      -7.776  16.716  67.405  1.00  0.00    -0.163 C  
HETATM   27  C   UNL     1     -10.811  14.696  66.066  1.00  0.00    -0.318 C  
HETATM   28  N   UNL     1      -9.204  16.351  67.322  1.00  0.00    -0.213 NA 
HETATM   29  C   UNL     1      -6.755  15.664  67.994  1.00  0.00    -0.136 C  
HETATM   30  C   UNL     1     -10.501  13.219  66.254  1.00  0.00    -0.289 A  
HETATM   31  C   UNL     1      -7.401  14.885  69.177  1.00  0.00    -0.158 C  
HETATM   32  C   UNL     1      -9.849  12.573  63.779  1.00  0.00    -0.015 A  
HETATM   33  O   UNL     1      -5.627  16.386  68.522  1.00  0.00    -0.103 OA 
HETATM   34  C   UNL     1      -9.508  13.383  69.617  1.00  0.00     1.537 C  
HETATM   35  C   UNL     1      -9.624  15.683  68.542  1.00  0.00    -0.199 C  
HETATM   36  H   UNL     1      -5.013  15.754  68.876  1.00  0.00     0.000 HD 
HETATM   37  C   UNL     1     -10.548  12.406  67.406  1.00  0.00    -0.216 A  
HETATM   38  C   UNL     1      -9.407  11.504  62.985  1.00  0.00    -0.293 A  
HETATM   39  N   UNL     1     -10.378  11.115  66.938  1.00  0.00    -0.222 NA 
HETATM   40  C   UNL     1     -10.092  12.369  65.154  1.00  0.00    -0.276 A  
HETATM   41  C   UNL     1      -8.800  14.420  68.744  1.00  0.00    -0.131 C  
HETATM   42  C   UNL     1      -9.940  11.083  65.648  1.00  0.00    -0.248 A  
HETATM   43  C   UNL     1      -9.592  15.664  66.073  1.00  0.00    -0.351 C  
HETATM   44  C   UNL     1      -9.482  10.004  64.882  1.00  0.00    -0.355 A  
HETATM   45  H   UNL     1     -10.560  10.281  67.496  1.00  0.00     0.000 HD 
HETATM   46  C   UNL     1      -9.204  10.243  63.536  1.00  0.00    -0.321 A  
BRANCH  25  47
HETATM   47  C   UNL     1     -12.067  13.573  69.042  1.00  0.00    -0.291 C  
HETATM   48  O   UNL     1     -12.885  13.724  68.132  1.00  0.00     0.685 OA 
BRANCH  47  49
HETATM   49  O   UNL     1     -12.177  14.181  70.267  1.00  0.00    -0.307 OA 
HETATM   50  C   UNL     1     -12.464  15.584  70.223  1.00  0.00    -0.367 C  
ENDBRANCH  47  49
ENDBRANCH  25  47
BRANCH  29  51
HETATM   51  C   UNL     1      -6.219  14.718  66.886  1.00  0.00     1.350 C  
HETATM   52  C   UNL     1      -5.707  13.370  67.391  1.00  0.00     0.118 C  
ENDBRANCH  29  51
ENDBRANCH   8  25
BRANCH  18  53
HETATM   53  C   UNL     1      -6.981   8.453  71.926  1.00  0.00    -0.097 C  
HETATM   54  C   UNL     1      -5.925   8.504  73.021  1.00  0.00    -0.085 C  
ENDBRANCH  18  53
BRANCH  15  55
HETATM   55  O   UNL     1      -6.672   5.050  71.545  1.00  0.00    -0.037 OA 
BRANCH  55  56
HETATM   56  C   UNL     1      -6.553   3.864  70.867  1.00  0.00    -0.031 C  
HETATM   57  O   UNL     1      -6.730   3.699  69.668  1.00  0.00    -0.033 OA 
HETATM   58  C   UNL     1      -5.992   2.796  71.774  1.00  0.00    -0.013 C  
ENDBRANCH  55  56
ENDBRANCH  15  55
BRANCH  14  59
HETATM   59  C   UNL     1      -9.629   4.556  71.938  1.00  0.00    -0.153 C  
HETATM   60  O   UNL     1     -10.262   3.934  71.094  1.00  0.00    -0.071 OA 
BRANCH  59  61
HETATM   61  O   UNL     1      -9.509   4.153  73.241  1.00  0.00    -0.111 OA 
HETATM   62  C   UNL     1     -10.659   3.506  73.796  1.00  0.00    -0.202 C  
ENDBRANCH  59  61
ENDBRANCH  14  59
TORSDOF 10
ENDMDL
MODEL       18
REMARK 921   NORMALIZED FREE ENERGY PREDICTED BY IDOCK:   -3.12 KCAL/MOL
REMARK 922        TOTAL FREE ENERGY PREDICTED BY IDOCK:   -6.09 KCAL/MOL
REMARK 923 INTER-LIGAND FREE ENERGY PREDICTED BY IDOCK:   -5.74 KCAL/MOL
REMARK 924 INTRA-LIGAND FREE ENERGY PREDICTED BY IDOCK:   -0.35 KCAL/MOL
REMARK 927      BINDING AFFINITY PREDICTED BY RF-SCORE:    0.00 PKD
ROOT
HETATM    1  C   UNL     1      -9.690  16.825  68.778  1.00  0.00    -0.261 C  
HETATM    2  N   UNL     1     -10.867  15.931  68.681  1.00  0.00    -0.274 NA 
HETATM    3  C   UNL     1     -12.230  16.329  68.947  1.00  0.00     0.500 C  
HETATM    4  C   UNL     1     -10.417  14.639  68.825  1.00  0.00    -0.246 A  
HETATM    5  C   UNL     1     -11.141  13.508  69.135  1.00  0.00    -0.271 A  
HETATM    6  C   UNL     1     -10.521  12.252  69.142  1.00  0.00     0.082 A  
HETATM    7  N   UNL     1      -6.127  16.244  67.878  1.00  0.00    -0.115 NA 
HETATM    8  C   UNL     1      -9.192  12.115  68.680  1.00  0.00    -0.021 A  
HETATM    9  C   UNL     1      -8.470  13.299  68.409  1.00  0.00    -0.128 A  
HETATM   10  C   UNL     1      -5.176  17.159  67.306  1.00  0.00    -0.144 C  
HETATM   11  H   UNL     1     -10.884  18.778  66.327  1.00  0.00     0.000 HD 
HETATM   12  O   UNL     1     -10.817  18.002  66.872  1.00  0.00    -0.254 OA 
HETATM   13  C   UNL     1      -9.062  14.532  68.582  1.00  0.00    -0.187 A  
HETATM   14  C   UNL     1      -9.801  18.103  67.881  1.00  0.00    -0.313 C  
HETATM   15  C   UNL     1      -8.450  18.359  67.203  1.00  0.00    -0.254 C  
HETATM   16  C   UNL     1      -8.403  15.892  68.569  1.00  0.00    -0.182 C  
HETATM   17  C   UNL     1      -7.474  16.078  67.341  1.00  0.00    -0.178 C  
HETATM   18  C   UNL     1      -7.963  17.149  66.318  1.00  0.00    -0.339 C  
HETATM   19  C   UNL     1      -6.781  17.606  65.456  1.00  0.00     0.146 C  
HETATM   20  C   UNL     1      -7.455  15.989  69.799  1.00  0.00     0.145 C  
HETATM   21  C   UNL     1      -5.523  17.602  65.918  1.00  0.00    -0.186 C  
HETATM   22  C   UNL     1      -6.030  15.974  69.283  1.00  0.00    -0.132 C  
ENDROOT
BRANCH   6  23
HETATM   23  O   UNL     1     -11.213  11.149  69.558  1.00  0.00    -0.244 OA 
HETATM   24  C   UNL     1     -12.532  11.414  70.045  1.00  0.00    -0.154 C  
ENDBRANCH   6  23
BRANCH   8  25
HETATM   25  C   UNL     1      -8.430  10.753  68.460  1.00  0.00    -0.143 C  
HETATM   26  C   UNL     1      -8.325   5.480  68.438  1.00  0.00    -0.098 C  
HETATM   27  C   UNL     1      -6.602   8.416  66.568  1.00  0.00    -0.056 C  
HETATM   28  N   UNL     1      -7.346   6.574  68.287  1.00  0.00    -0.085 NA 
HETATM   29  C   UNL     1      -9.860   5.841  68.534  1.00  0.00    -0.141 C  
HETATM   30  C   UNL     1      -7.684   9.404  66.164  1.00  0.00    -0.100 A  
HETATM   31  C   UNL     1     -10.060   7.148  69.358  1.00  0.00    -0.178 C  
HETATM   32  C   UNL     1      -7.912   8.805  63.603  1.00  0.00    -0.158 A  
HETATM   33  O   UNL     1     -10.524   4.781  69.246  1.00  0.00    -0.086 OA 
HETATM   34  C   UNL     1      -9.271   9.650  69.285  1.00  0.00    -0.186 C  
HETATM   35  C   UNL     1      -7.678   7.673  69.177  1.00  0.00    -0.109 C  
HETATM   36  H   UNL     1     -11.447   4.998  69.303  1.00  0.00     0.000 HD 
HETATM   37  C   UNL     1      -8.377  10.374  66.918  1.00  0.00    -0.124 A  
HETATM   38  C   UNL     1      -8.629   9.128  62.441  1.00  0.00    -0.226 A  
HETATM   39  N   UNL     1      -9.078  11.117  65.985  1.00  0.00    -0.198 NA 
HETATM   40  C   UNL     1      -8.180   9.493  64.805  1.00  0.00    -0.143 A  
HETATM   41  C   UNL     1      -9.066   8.201  68.844  1.00  0.00    -0.147 C  
HETATM   42  C   UNL     1      -9.114  10.516  64.762  1.00  0.00    -0.211 A  
HETATM   43  C   UNL     1      -7.073   6.968  66.890  1.00  0.00    -0.075 C  
HETATM   44  C   UNL     1      -9.858  10.845  63.622  1.00  0.00    -0.403 A  
HETATM   45  H   UNL     1      -9.519  12.014  66.190  1.00  0.00     0.000 HD 
HETATM   46  C   UNL     1      -9.605  10.119  62.459  1.00  0.00    -0.178 A  
BRANCH  25  47
HETATM   47  C   UNL     1      -6.957  10.850  68.944  1.00  0.00    -0.084 C  
HETATM   48  O   UNL     1      -5.987  11.029  68.205  1.00  0.00    -0.049 OA 
BRANCH  47  49
HETATM   49  O   UNL     1      -6.856  10.717  70.306  1.00  0.00    -0.234 OA 
HETATM   50  C   UNL     1      -5.539  10.423  70.787  1.00  0.00    -0.092 C  
ENDBRANCH  47  49
ENDBRANCH  25  47
BRANCH  29  51
HETATM   51  C   UNL     1     -10.507   5.926  67.125  1.00  0.00    -0.335 C  
HETATM   52  C   UNL     1     -10.093   4.813  66.164  1.00  0.00    -0.288 C  
ENDBRANCH  29  51
ENDBRANCH   8  25
BRANCH  18  53
HETATM   53  C   UNL     1      -8.913  16.349  65.338  1.00  0.00     0.879 C  
HETATM   54  C   UNL     1      -9.431  14.939  65.588  1.00  0.00    -0.152 C  
ENDBRANCH  18  53
BRANCH  15  55
HETATM   55  O   UNL     1      -8.397  19.573  66.416  1.00  0.00    -0.317 OA 
BRANCH  55  56
HETATM   56  C   UNL     1      -7.237  20.283  66.596  1.00  0.00    -0.265 C  
HETATM   57  O   UNL     1      -6.658  20.944  65.744  1.00  0.00    -0.213 OA 
HETATM   58  C   UNL     1      -6.849  20.292  68.054  1.00  0.00    -0.335 C  
ENDBRANCH  55  56
ENDBRANCH  15  55
BRANCH  14  59
HETATM   59  C   UNL     1     -10.283  19.283  68.761  1.00  0.00    -0.309 C  
HETATM   60  O   UNL     1     -10.827  20.304  68.355  1.00  0.00    -0.008 OA 
BRANCH  59  61
HETATM   61  O   UNL     1      -9.889  19.103  70.061  1.00  0.00     0.337 OA 
HETATM   62  C   UNL     1      -9.821  20.291  70.855  1.00  0.00     1.778 C  
ENDBRANCH  59  61
ENDBRANCH  14  59
TORSDOF 10
ENDMDL
MODEL       19
REMARK 921   NORMALIZED FREE ENERGY PREDICTED BY IDOCK:   -2.98 KCAL/MOL
REMARK 922        TOTAL FREE ENERGY PREDICTED BY IDOCK:   -5.87 KCAL/MOL
REMARK 923 INTER-LIGAND FREE ENERGY PREDICTED BY IDOCK:   -5.41 KCAL/MOL
REMARK 924 INTRA-LIGAND FREE ENERGY PREDICTED BY IDOCK:   -0.47 KCAL/MOL
REMARK 927      BINDING AFFINITY PREDICTED BY RF-SCORE:    0.00 PKD
ROOT
HETATM    1  C   UNL     1      -9.512  17.365  67.358  1.00  0.00    -0.246 C  
HETATM    2  N   UNL     1     -10.040  16.940  66.040  1.00  0.00    -0.433 NA 
HETATM    3  C   UNL     1     -10.758  17.795  65.124  1.00  0.00     0.405 C  
HETATM    4  C   UNL     1     -10.201  15.574  66.082  1.00  0.00    -0.306 A  
HETATM    5  C   UNL     1     -10.955  14.775  65.249  1.00  0.00    -0.382 A  
HETATM    6  C   UNL     1     -10.920  13.381  65.387  1.00  0.00    -0.286 A  
HETATM    7  N   UNL     1      -7.376  15.556  69.808  1.00  0.00    -0.151 NA 
HETATM    8  C   UNL     1      -9.995  12.779  66.270  1.00  0.00    -0.269 A  
HETATM    9  C   UNL     1      -9.269  13.630  67.135  1.00  0.00    -0.244 A  
HETATM   10  C   UNL     1      -6.330  16.071  70.653  1.00  0.00     0.539 C  
HETATM   11  H   UNL     1      -7.457  19.577  65.899  1.00  0.00     0.000 HD 
HETATM   12  O   UNL     1      -8.048  18.835  65.949  1.00  0.00    -0.476 OA 
HETATM   13  C   UNL     1      -9.460  14.994  67.092  1.00  0.00    -0.223 A  
HETATM   14  C   UNL     1      -8.538  18.587  67.275  1.00  0.00    -0.262 C  
HETATM   15  C   UNL     1      -7.346  18.342  68.208  1.00  0.00    -0.273 C  
HETATM   16  C   UNL     1      -8.963  16.036  68.068  1.00  0.00    -0.187 C  
HETATM   17  C   UNL     1      -7.454  15.867  68.384  1.00  0.00    -0.127 C  
HETATM   18  C   UNL     1      -6.551  17.026  67.863  1.00  0.00    -0.151 C  
HETATM   19  C   UNL     1      -5.227  17.026  68.636  1.00  0.00    -0.132 C  
HETATM   20  C   UNL     1      -9.680  15.811  69.430  1.00  0.00    -0.286 C  
HETATM   21  C   UNL     1      -5.144  16.587  69.899  1.00  0.00    -0.155 C  
HETATM   22  C   UNL     1      -8.649  15.290  70.411  1.00  0.00     1.132 C  
ENDROOT
BRANCH   6  23
HETATM   23  O   UNL     1     -11.751  12.597  64.635  1.00  0.00    -0.325 OA 
HETATM   24  C   UNL     1     -11.973  13.062  63.301  1.00  0.00    -0.421 C  
ENDBRANCH   6  23
BRANCH   8  25
HETATM   25  C   UNL     1      -9.715  11.234  66.397  1.00  0.00    -0.238 C  
HETATM   26  C   UNL     1      -7.248   6.850  64.810  1.00  0.00    -0.075 C  
HETATM   27  C   UNL     1      -8.692   8.328  68.099  1.00  0.00    -0.136 C  
HETATM   28  N   UNL     1      -8.326   7.192  65.759  1.00  0.00    -0.138 NA 
HETATM   29  C   UNL     1      -6.470   8.021  64.090  1.00  0.00    -0.062 C  
HETATM   30  C   UNL     1      -8.219   9.769  68.204  1.00  0.00    -0.109 A  
HETATM   31  C   UNL     1      -7.445   9.182  63.733  1.00  0.00    -0.106 C  
HETATM   32  C   UNL     1      -6.289   9.484  69.982  1.00  0.00    -0.054 A  
HETATM   33  O   UNL     1      -5.942   7.510  62.852  1.00  0.00    -0.049 OA 
HETATM   34  C   UNL     1      -9.117  10.785  64.966  1.00  0.00    -0.226 C  
HETATM   35  C   UNL     1      -9.154   8.257  65.219  1.00  0.00     0.142 C  
HETATM   36  H   UNL     1      -5.474   8.214  62.419  1.00  0.00     0.000 HD 
HETATM   37  C   UNL     1      -8.669  10.938  67.555  1.00  0.00    -0.130 A  
HETATM   38  C   UNL     1      -5.295  10.193  70.673  1.00  0.00    -0.059 A  
HETATM   39  N   UNL     1      -8.020  11.976  68.200  1.00  0.00    -0.144 NA 
HETATM   40  C   UNL     1      -7.144  10.166  69.090  1.00  0.00    -0.073 A  
HETATM   41  C   UNL     1      -8.301   9.493  64.971  1.00  0.00    -0.148 C  
HETATM   42  C   UNL     1      -6.996  11.540  68.987  1.00  0.00    -0.112 A  
HETATM   43  C   UNL     1      -7.878   7.400  67.151  1.00  0.00    -0.117 C  
HETATM   44  C   UNL     1      -6.000  12.269  69.649  1.00  0.00    -0.121 A  
HETATM   45  H   UNL     1      -8.280  12.957  68.099  1.00  0.00     0.000 HD 
HETATM   46  C   UNL     1      -5.139  11.563  70.489  1.00  0.00    -0.099 A  
BRANCH  25  47
HETATM   47  C   UNL     1     -11.010  10.457  66.761  1.00  0.00    -0.046 C  
HETATM   48  O   UNL     1     -11.371   9.406  66.226  1.00  0.00     1.088 OA 
BRANCH  47  49
HETATM   49  O   UNL     1     -11.716  11.077  67.761  1.00  0.00    -0.573 OA 
HETATM   50  C   UNL     1     -11.566  10.490  69.060  1.00  0.00    -0.207 C  
ENDBRANCH  47  49
ENDBRANCH  25  47
BRANCH  29  51
HETATM   51  C   UNL     1      -5.264   8.503  64.941  1.00  0.00    -0.035 C  
HETATM   52  C   UNL     1      -5.355   9.953  65.414  1.00  0.00    -0.054 C  
ENDBRANCH  29  51
ENDBRANCH   8  25
BRANCH  18  53
HETATM   53  C   UNL     1      -6.176  16.597  66.387  1.00  0.00     0.287 C  
HETATM   54  C   UNL     1      -5.321  17.420  65.433  1.00  0.00     0.573 C  
ENDBRANCH  18  53
BRANCH  15  55
HETATM   55  O   UNL     1      -6.416  19.449  68.292  1.00  0.00    -0.230 OA 
BRANCH  55  56
HETATM   56  C   UNL     1      -6.457  20.098  69.499  1.00  0.00    -0.296 C  
HETATM   57  O   UNL     1      -7.310  19.956  70.365  1.00  0.00     0.193 OA 
HETATM   58  C   UNL     1      -5.194  20.898  69.708  1.00  0.00    -0.410 C  
ENDBRANCH  55  56
ENDBRANCH  15  55
BRANCH  14  59
HETATM   59  C   UNL     1      -9.331  19.874  67.613  1.00  0.00    -0.354 C  
HETATM   60  O   UNL     1      -9.116  20.990  67.154  1.00  0.00    -0.204 OA 
BRANCH  59  61
HETATM   61  O   UNL     1     -10.231  19.632  68.618  1.00  0.00    -0.433 OA 
HETATM   62  C   UNL     1     -10.405  20.695  69.559  1.00  0.00     0.601 C  
ENDBRANCH  59  61
ENDBRANCH  14  59
TORSDOF 10
ENDMDL
MODEL       20
REMARK 921   NORMALIZED FREE ENERGY PREDICTED BY IDOCK:   -2.86 KCAL/MOL
REMARK 922        TOTAL FREE ENERGY PREDICTED BY IDOCK:   -5.68 KCAL/MOL
REMARK 923 INTER-LIGAND FREE ENERGY PREDICTED BY IDOCK:   -5.05 KCAL/MOL
REMARK 924 INTRA-LIGAND FREE ENERGY PREDICTED BY IDOCK:   -0.63 KCAL/MOL
REMARK 927      BINDING AFFINITY PREDICTED BY RF-SCORE:    0.00 PKD
ROOT
HETATM    1  C   UNL     1     -10.929  12.929  70.016  1.00  0.00     0.662 C  
HETATM    2  N   UNL     1     -11.733  11.710  70.269  1.00  0.00    -0.308 NA 
HETATM    3  C   UNL     1     -12.871  11.641  71.155  1.00  0.00    -0.294 C  
HETATM    4  C   UNL     1     -10.940  10.625  69.972  1.00  0.00    -0.259 A  
HETATM    5  C   UNL     1     -11.111   9.310  70.351  1.00  0.00    -0.300 A  
HETATM    6  C   UNL     1     -10.247   8.319  69.868  1.00  0.00    -0.201 A  
HETATM    7  N   UNL     1      -8.168  13.551  67.602  1.00  0.00    -0.164 NA 
HETATM    8  C   UNL     1      -9.297   8.631  68.870  1.00  0.00    -0.145 A  
HETATM    9  C   UNL     1      -9.125   9.995  68.536  1.00  0.00    -0.127 A  
HETATM   10  C   UNL     1      -7.868  14.745  66.856  1.00  0.00     0.080 C  
HETATM   11  H   UNL     1     -13.587  14.493  68.700  1.00  0.00     0.000 HD 
HETATM   12  O   UNL     1     -13.073  13.759  69.015  1.00  0.00     1.096 OA 
HETATM   13  C   UNL     1      -9.875  10.966  69.163  1.00  0.00    -0.164 A  
HETATM   14  C   UNL     1     -11.775  14.138  69.498  1.00  0.00    -0.312 C  
HETATM   15  C   UNL     1     -11.010  14.839  68.369  1.00  0.00    -0.252 C  
HETATM   16  C   UNL     1      -9.685  12.464  69.117  1.00  0.00     0.466 C  
HETATM   17  C   UNL     1      -9.512  12.986  67.666  1.00  0.00    -0.201 C  
HETATM   18  C   UNL     1     -10.681  13.884  67.159  1.00  0.00    -0.282 C  
HETATM   19  C   UNL     1     -10.197  14.729  65.975  1.00  0.00    -0.320 C  
HETATM   20  C   UNL     1      -8.343  12.810  69.825  1.00  0.00     2.187 C  
HETATM   21  C   UNL     1      -8.918  15.108  65.851  1.00  0.00     0.061 C  
HETATM   22  C   UNL     1      -7.368  13.272  68.759  1.00  0.00    -0.070 C  
ENDROOT
BRANCH   6  23
HETATM   23  O   UNL     1     -10.349   7.036  70.332  1.00  0.00    -0.199 OA 
HETATM   24  C   UNL     1     -11.674   6.625  70.679  1.00  0.00    -0.394 C  
ENDBRANCH   6  23
BRANCH   8  25
HETATM   25  C   UNL     1      -8.389   7.594  68.105  1.00  0.00    -0.124 C  
HETATM   26  C   UNL     1      -7.824   3.262  65.150  1.00  0.00    -0.082 C  
HETATM   27  C   UNL     1      -5.993   6.642  65.711  1.00  0.00    -0.030 C  
HETATM   28  N   UNL     1      -6.934   4.195  65.871  1.00  0.00    -0.064 NA 
HETATM   29  C   UNL     1      -9.367   3.589  65.075  1.00  0.00    -0.155 C  
HETATM   30  C   UNL     1      -7.041   7.743  65.696  1.00  0.00    -0.060 A  
HETATM   31  C   UNL     1      -9.856   4.209  66.418  1.00  0.00    -0.214 C  
HETATM   32  C   UNL     1      -6.646   8.711  63.272  1.00  0.00    -0.089 A  
HETATM   33  O   UNL     1     -10.077   2.350  64.892  1.00  0.00    -0.339 OA 
HETATM   34  C   UNL     1      -9.292   6.266  67.948  1.00  0.00    -0.114 C  
HETATM   35  C   UNL     1      -7.548   4.613  67.119  1.00  0.00    -0.086 C  
HETATM   36  H   UNL     1     -11.005   2.547  64.847  1.00  0.00     0.000 HD 
HETATM   37  C   UNL     1      -7.965   8.152  66.680  1.00  0.00    -0.102 A  
HETATM   38  C   UNL     1      -7.115   9.673  62.365  1.00  0.00    -0.109 A  
HETATM   39  N   UNL     1      -8.505   9.329  66.195  1.00  0.00    -0.125 NA 
HETATM   40  C   UNL     1      -7.231   8.612  64.552  1.00  0.00    -0.093 A  
HETATM   41  C   UNL     1      -8.869   5.312  66.830  1.00  0.00    -0.110 C  
HETATM   42  C   UNL     1      -8.218   9.529  64.877  1.00  0.00    -0.140 A  
HETATM   43  C   UNL     1      -6.395   5.294  65.045  1.00  0.00    -0.034 C  
HETATM   44  C   UNL     1      -8.718  10.485  63.985  1.00  0.00    -0.176 A  
HETATM   45  H   UNL     1      -9.056   9.975  66.759  1.00  0.00     0.000 HD 
HETATM   46  C   UNL     1      -8.153  10.532  62.710  1.00  0.00    -0.159 A  
BRANCH  25  47
HETATM   47  C   UNL     1      -7.073   7.320  68.884  1.00  0.00    -0.084 C  
HETATM   48  O   UNL     1      -6.057   8.014  68.810  1.00  0.00    -0.038 OA 
BRANCH  47  49
HETATM   49  O   UNL     1      -7.171   6.205  69.679  1.00  0.00    -0.070 OA 
HETATM   50  C   UNL     1      -6.371   6.238  70.867  1.00  0.00    -0.040 C  
ENDBRANCH  47  49
ENDBRANCH  25  47
BRANCH  29  51
HETATM   51  C   UNL     1      -9.693   4.492  63.855  1.00  0.00     0.078 C  
HETATM   52  C   UNL     1      -8.830   4.232  62.621  1.00  0.00    -0.111 C  
ENDBRANCH  29  51
ENDBRANCH   8  25
BRANCH  18  53
HETATM   53  C   UNL     1     -11.723  12.862  66.549  1.00  0.00    -0.453 C  
HETATM   54  C   UNL     1     -11.417  11.412  66.201  1.00  0.00    -0.002 C  
ENDBRANCH  18  53
BRANCH  15  55
HETATM   55  O   UNL     1     -11.650  16.037  67.867  1.00  0.00    -0.218 OA 
BRANCH  55  56
HETATM   56  C   UNL     1     -10.943  17.180  68.136  1.00  0.00    -0.231 C  
HETATM   57  O   UNL     1     -10.589  17.565  69.243  1.00  0.00    -0.268 OA 
HETATM   58  C   UNL     1     -10.489  17.831  66.851  1.00  0.00    -0.308 C  
ENDBRANCH  55  56
ENDBRANCH  15  55
BRANCH  14  59
HETATM   59  C   UNL     1     -12.095  15.067  70.696  1.00  0.00    -0.321 C  
HETATM   60  O   UNL     1     -11.272  15.577  71.447  1.00  0.00    -0.368 OA 
BRANCH  59  61
HETATM   61  O   UNL     1     -13.448  15.134  70.901  1.00  0.00    -0.420 OA 
HETATM   62  C   UNL     1     -13.856  15.745  72.129  1.00  0.00    -0.348 C  
ENDBRANCH  59  61
ENDBRANCH  14  59
TORSDOF 10
ENDMDL
MODEL       21
REMARK 921   NORMALIZED FREE ENERGY PREDICTED BY IDOCK:   -2.37 KCAL/MOL
REMARK 922        TOTAL FREE ENERGY PREDICTED BY IDOCK:   -4.91 KCAL/MOL
REMARK 923 INTER-LIGAND FREE ENERGY PREDICTED BY IDOCK:   -7.55 KCAL/MOL
REMARK 924 INTRA-LIGAND FREE ENERGY PREDICTED BY IDOCK:    2.64 KCAL/MOL
REMARK 927      BINDING AFFINITY PREDICTED BY RF-SCORE:    0.00 PKD
ROOT
HETATM    1  C   UNL     1     -10.413  13.418  68.197  1.00  0.00    -0.245 C  
HETATM    2  N   UNL     1     -11.553  13.132  69.100  1.00  0.00    -0.297 NA 
HETATM    3  C   UNL     1     -12.394  14.135  69.710  1.00  0.00    -0.299 C  
HETATM    4  C   UNL     1     -11.342  11.888  69.649  1.00  0.00    -0.195 A  
HETATM    5  C   UNL     1     -11.926  11.335  70.769  1.00  0.00    -0.383 A  
HETATM    6  C   UNL     1     -11.657  10.007  71.122  1.00  0.00    -0.378 A  
HETATM    7  N   UNL     1      -8.254  11.121  66.222  1.00  0.00    -0.169 NA 
HETATM    8  C   UNL     1     -10.913   9.178  70.252  1.00  0.00    -0.279 A  
HETATM    9  C   UNL     1     -10.298   9.790  69.135  1.00  0.00    -0.225 A  
HETATM   10  C   UNL     1      -7.686  11.313  64.914  1.00  0.00     0.844 C  
HETATM   11  H   UNL     1     -12.461  14.819  65.942  1.00  0.00     0.000 HD 
HETATM   12  O   UNL     1     -12.222  14.303  66.702  1.00  0.00    -0.449 OA 
HETATM   13  C   UNL     1     -10.442  11.142  68.914  1.00  0.00    -0.233 A  
HETATM   14  C   UNL     1     -10.807  14.269  66.945  1.00  0.00    -0.298 C  
HETATM   15  C   UNL     1     -10.104  13.697  65.708  1.00  0.00    -0.298 C  
HETATM   16  C   UNL     1      -9.692  12.011  67.931  1.00  0.00    -0.194 C  
HETATM   17  C   UNL     1      -9.659  11.388  66.510  1.00  0.00    -0.198 C  
HETATM   18  C   UNL     1     -10.462  12.187  65.437  1.00  0.00    -0.305 C  
HETATM   19  C   UNL     1      -9.965  11.799  64.039  1.00  0.00    -0.320 C  
HETATM   20  C   UNL     1      -8.200  12.072  68.369  1.00  0.00    -0.151 C  
HETATM   21  C   UNL     1      -8.704  11.403  63.819  1.00  0.00     0.360 C  
HETATM   22  C   UNL     1      -7.391  11.290  67.354  1.00  0.00    -0.115 C  
ENDROOT
BRANCH   6  23
HETATM   23  O   UNL     1     -12.148   9.496  72.292  1.00  0.00    -0.248 OA 
HETATM   24  C   UNL     1     -13.508   9.839  72.574  1.00  0.00    -0.156 C  
ENDBRANCH   6  23
BRANCH   8  25
HETATM   25  C   UNL     1     -10.686   7.629  70.426  1.00  0.00    -0.241 C  
HETATM   26  C   UNL     1      -8.825   3.016  68.670  1.00  0.00    -0.119 C  
HETATM   27  C   UNL     1      -9.465   4.770  72.076  1.00  0.00    -0.186 C  
HETATM   28  N   UNL     1      -9.660   3.479  69.797  1.00  0.00    -0.173 NA 
HETATM   29  C   UNL     1      -8.163   4.093  67.722  1.00  0.00    -0.094 C  
HETATM   30  C   UNL     1      -8.913   6.183  71.979  1.00  0.00    -0.139 A  
HETATM   31  C   UNL     1      -9.135   5.289  67.497  1.00  0.00    -0.110 C  
HETATM   32  C   UNL     1      -6.665   5.885  73.330  1.00  0.00    -0.075 A  
HETATM   33  O   UNL     1      -7.935   3.478  66.441  1.00  0.00    -0.087 OA 
HETATM   34  C   UNL     1     -10.428   7.061  68.937  1.00  0.00    -0.217 C  
HETATM   35  C   UNL     1     -10.531   4.559  69.368  1.00  0.00     0.535 C  
HETATM   36  H   UNL     1      -7.536   4.126  65.871  1.00  0.00     0.000 HD 
HETATM   37  C   UNL     1      -9.433   7.338  71.357  1.00  0.00    -0.160 A  
HETATM   38  C   UNL     1      -5.513   6.571  73.745  1.00  0.00    -0.046 A  
HETATM   39  N   UNL     1      -8.614   8.369  71.778  1.00  0.00    -0.160 NA 
HETATM   40  C   UNL     1      -7.656   6.564  72.590  1.00  0.00    -0.101 A  
HETATM   41  C   UNL     1      -9.692   5.723  68.861  1.00  0.00    -0.174 C  
HETATM   42  C   UNL     1      -7.468   7.918  72.362  1.00  0.00    -0.092 A  
HETATM   43  C   UNL     1      -8.917   3.740  71.047  1.00  0.00    -0.098 C  
HETATM   44  C   UNL     1      -6.320   8.622  72.748  1.00  0.00    -0.065 A  
HETATM   45  H   UNL     1      -8.842   9.357  71.664  1.00  0.00     0.000 HD 
HETATM   46  C   UNL     1      -5.335   7.915  73.437  1.00  0.00    -0.045 A  
BRANCH  25  47
HETATM   47  C   UNL     1     -11.911   6.956  71.106  1.00  0.00    -0.349 C  
HETATM   48  O   UNL     1     -11.878   6.379  72.195  1.00  0.00    -0.315 OA 
BRANCH  47  49
HETATM   49  O   UNL     1     -13.049   7.080  70.350  1.00  0.00     0.195 OA 
HETATM   50  C   UNL     1     -14.276   6.970  71.082  1.00  0.00     0.105 C  
ENDBRANCH  47  49
ENDBRANCH  25  47
BRANCH  29  51
HETATM   51  C   UNL     1      -6.782   4.548  68.267  1.00  0.00    -0.047 C  
HETATM   52  C   UNL     1      -5.811   5.055  67.201  1.00  0.00    -0.025 C  
ENDBRANCH  29  51
ENDBRANCH   8  25
BRANCH  18  53
HETATM   53  C   UNL     1     -11.931  11.608  65.536  1.00  0.00     0.320 C  
HETATM   54  C   UNL     1     -12.899  11.488  64.367  1.00  0.00     0.787 C  
ENDBRANCH  18  53
BRANCH  15  55
HETATM   55  O   UNL     1     -10.316  14.459  64.494  1.00  0.00    -0.314 OA 
BRANCH  55  56
HETATM   56  C   UNL     1     -11.596  14.934  64.372  1.00  0.00    -0.288 C  
HETATM   57  O   UNL     1     -12.617  14.259  64.368  1.00  0.00    -0.665 OA 
HETATM   58  C   UNL     1     -11.603  16.442  64.420  1.00  0.00     0.069 C  
ENDBRANCH  55  56
ENDBRANCH  15  55
BRANCH  14  59
HETATM   59  C   UNL     1     -10.455  15.752  67.224  1.00  0.00    -0.308 C  
HETATM   60  O   UNL     1     -11.238  16.616  67.600  1.00  0.00    -0.177 OA 
BRANCH  59  61
HETATM   61  O   UNL     1      -9.162  16.013  66.855  1.00  0.00    -0.206 OA 
HETATM   62  C   UNL     1      -8.819  17.399  66.748  1.00  0.00    -0.251 C  
ENDBRANCH  59  61
ENDBRANCH  14  59
TORSDOF 10
ENDMDL
MODEL       22
REMARK 921   NORMALIZED FREE ENERGY PREDICTED BY IDOCK:   -2.17 KCAL/MOL
REMARK 922        TOTAL FREE ENERGY PREDICTED BY IDOCK:   -4.59 KCAL/MOL
REMARK 923 INTER-LIGAND FREE ENERGY PREDICTED BY IDOCK:   -6.40 KCAL/MOL
REMARK 924 INTRA-LIGAND FREE ENERGY PREDICTED BY IDOCK:    1.81 KCAL/MOL
REMARK 927      BINDING AFFINITY PREDICTED BY RF-SCORE:    0.00 PKD
ROOT
HETATM    1  C   UNL     1     -11.578   7.213  71.370  1.00  0.00    -0.283 C  
HETATM    2  N   UNL     1     -11.997   8.372  72.192  1.00  0.00    -0.350 NA 
HETATM    3  C   UNL     1     -12.714   8.281  73.442  1.00  0.00     1.878 C  
HETATM    4  C   UNL     1     -12.069   9.464  71.358  1.00  0.00    -0.363 A  
HETATM    5  C   UNL     1     -12.716  10.663  71.570  1.00  0.00    -0.549 A  
HETATM    6  C   UNL     1     -12.596  11.704  70.641  1.00  0.00    -0.230 A  
HETATM    7  N   UNL     1      -9.477   7.051  68.304  1.00  0.00    -0.129 NA 
HETATM    8  C   UNL     1     -11.688  11.591  69.563  1.00  0.00    -0.413 A  
HETATM    9  C   UNL     1     -11.073  10.335  69.356  1.00  0.00    -0.299 A  
HETATM   10  C   UNL     1      -8.521   6.049  67.913  1.00  0.00    -0.115 C  
HETATM   11  H   UNL     1      -9.592   6.096  73.830  1.00  0.00     0.000 HD 
HETATM   12  O   UNL     1     -10.134   6.718  73.359  1.00  0.00    -0.192 OA 
HETATM   13  C   UNL     1     -11.352   9.276  70.193  1.00  0.00    -0.193 A  
HETATM   14  C   UNL     1     -10.685   6.188  72.144  1.00  0.00    -0.236 C  
HETATM   15  C   UNL     1      -9.538   5.734  71.234  1.00  0.00    -0.166 C  
HETATM   16  C   UNL     1     -10.986   7.821  70.010  1.00  0.00    -0.218 C  
HETATM   17  C   UNL     1      -9.490   7.639  69.640  1.00  0.00    -0.156 C  
HETATM   18  C   UNL     1      -8.637   6.927  70.734  1.00  0.00    -0.144 C  
HETATM   19  C   UNL     1      -7.365   6.357  70.096  1.00  0.00    -0.086 C  
HETATM   20  C   UNL     1     -11.766   7.271  68.782  1.00  0.00     0.919 C  
HETATM   21  C   UNL     1      -7.328   5.966  68.815  1.00  0.00    -0.084 C  
HETATM   22  C   UNL     1     -10.763   7.027  67.671  1.00  0.00    -0.261 C  
ENDROOT
BRANCH   6  23
HETATM   23  O   UNL     1     -13.326  12.849  70.796  1.00  0.00     0.209 OA 
HETATM   24  C   UNL     1     -13.717  13.135  72.143  1.00  0.00    -0.495 C  
ENDBRANCH   6  23
BRANCH   8  25
HETATM   25  C   UNL     1     -11.314  12.739  68.551  1.00  0.00    -0.326 C  
HETATM   26  C   UNL     1     -10.218  17.792  67.511  1.00  0.00    -0.356 C  
HETATM   27  C   UNL     1      -9.291  14.286  66.121  1.00  0.00    -0.191 C  
HETATM   28  N   UNL     1     -10.453  16.562  66.730  1.00  0.00    -0.292 NA 
HETATM   29  C   UNL     1     -10.144  17.691  69.085  1.00  0.00    -0.232 C  
HETATM   30  C   UNL     1      -8.935  13.400  67.304  1.00  0.00    -0.221 A  
HETATM   31  C   UNL     1     -11.178  16.653  69.612  1.00  0.00    -0.050 C  
HETATM   32  C   UNL     1      -6.303  13.420  67.110  1.00  0.00     0.461 A  
HETATM   33  O   UNL     1     -10.507  18.972  69.632  1.00  0.00    -0.281 OA 
HETATM   34  C   UNL     1     -11.750  14.113  69.276  1.00  0.00    -0.368 C  
HETATM   35  C   UNL     1     -11.487  15.757  67.356  1.00  0.00    -0.019 C  
HETATM   36  H   UNL     1     -10.462  18.911  70.579  1.00  0.00     0.000 HD 
HETATM   37  C   UNL     1      -9.755  12.741  68.245  1.00  0.00    -0.216 A  
HETATM   38  C   UNL     1      -5.135  12.948  67.727  1.00  0.00    -0.103 A  
HETATM   39  N   UNL     1      -8.898  11.914  68.948  1.00  0.00    -0.376 NA 
HETATM   40  C   UNL     1      -7.564  13.074  67.640  1.00  0.00    -0.160 A  
HETATM   41  C   UNL     1     -11.056  15.376  68.765  1.00  0.00    -0.284 C  
HETATM   42  C   UNL     1      -7.587  12.216  68.728  1.00  0.00    -0.056 A  
HETATM   43  C   UNL     1      -9.228  15.822  66.363  1.00  0.00    -0.312 C  
HETATM   44  C   UNL     1      -6.437  11.746  69.374  1.00  0.00    -0.120 A  
HETATM   45  H   UNL     1      -9.212  11.163  69.562  1.00  0.00     0.000 HD 
HETATM   46  C   UNL     1      -5.203  12.141  68.858  1.00  0.00    -0.054 A  
BRANCH  25  47
HETATM   47  C   UNL     1     -12.033  12.542  67.188  1.00  0.00    -0.215 C  
HETATM   48  O   UNL     1     -11.922  11.542  66.475  1.00  0.00    -0.386 OA 
BRANCH  47  49
HETATM   49  O   UNL     1     -12.820  13.618  66.863  1.00  0.00     0.090 OA 
HETATM   50  C   UNL     1     -12.679  14.085  65.516  1.00  0.00    -0.486 C  
ENDBRANCH  47  49
ENDBRANCH  25  47
BRANCH  29  51
HETATM   51  C   UNL     1      -8.699  17.380  69.562  1.00  0.00     0.655 C  
HETATM   52  C   UNL     1      -7.660  17.308  68.443  1.00  0.00    -0.241 C  
ENDBRANCH  29  51
ENDBRANCH   8  25
BRANCH  18  53
HETATM   53  C   UNL     1      -8.146   8.101  71.674  1.00  0.00    -0.150 C  
HETATM   54  C   UNL     1      -6.967   8.013  72.632  1.00  0.00    -0.100 C  
ENDBRANCH  18  53
BRANCH  15  55
HETATM   55  O   UNL     1      -8.690   4.709  71.807  1.00  0.00    -0.118 OA 
BRANCH  55  56
HETATM   56  C   UNL     1      -8.650   3.561  71.058  1.00  0.00    -0.072 C  
HETATM   57  O   UNL     1      -7.979   2.566  71.300  1.00  0.00    -0.043 OA 
HETATM   58  C   UNL     1      -9.693   3.609  69.969  1.00  0.00    -0.180 C  
ENDBRANCH  55  56
ENDBRANCH  15  55
BRANCH  14  59
HETATM   59  C   UNL     1     -11.581   5.023  72.634  1.00  0.00    -0.036 C  
HETATM   60  O   UNL     1     -12.802   4.970  72.541  1.00  0.00     0.684 OA 
BRANCH  59  61
HETATM   61  O   UNL     1     -10.836   4.105  73.327  1.00  0.00    -0.197 OA 
HETATM   62  C   UNL     1     -11.480   2.852  73.580  1.00  0.00    -0.091 C  
ENDBRANCH  59  61
ENDBRANCH  14  59
TORSDOF 10
ENDMDL
MODEL       23
REMARK 921   NORMALIZED FREE ENERGY PREDICTED BY IDOCK:   -2.12 KCAL/MOL
REMARK 922        TOTAL FREE ENERGY PREDICTED BY IDOCK:   -4.51 KCAL/MOL
REMARK 923 INTER-LIGAND FREE ENERGY PREDICTED BY IDOCK:   -4.94 KCAL/MOL
REMARK 924 INTRA-LIGAND FREE ENERGY PREDICTED BY IDOCK:    0.43 KCAL/MOL
REMARK 927      BINDING AFFINITY PREDICTED BY RF-SCORE:    0.00 PKD
ROOT
HETATM    1  C   UNL     1      -7.314   5.944  67.171  1.00  0.00    -0.077 C  
HETATM    2  N   UNL     1      -8.168   6.396  66.049  1.00  0.00    -0.120 NA 
HETATM    3  C   UNL     1      -8.483   5.606  64.881  1.00  0.00    -0.122 C  
HETATM    4  C   UNL     1      -8.153   7.772  66.047  1.00  0.00    -0.117 A  
HETATM    5  C   UNL     1      -8.509   8.632  65.030  1.00  0.00    -0.192 A  
HETATM    6  C   UNL     1      -8.521  10.015  65.248  1.00  0.00    -0.154 A  
HETATM    7  N   UNL     1      -6.550   7.557  70.435  1.00  0.00    -0.042 NA 
HETATM    8  C   UNL     1      -8.325  10.530  66.549  1.00  0.00    -0.141 A  
HETATM    9  C   UNL     1      -7.924   9.623  67.557  1.00  0.00    -0.106 A  
HETATM   10  C   UNL     1      -6.364   6.948  71.725  1.00  0.00    -0.042 C  
HETATM   11  H   UNL     1      -9.471   3.486  67.914  1.00  0.00     0.000 HD 
HETATM   12  O   UNL     1      -9.169   4.290  67.508  1.00  0.00    -0.129 OA 
HETATM   13  C   UNL     1      -7.751   8.287  67.263  1.00  0.00    -0.101 A  
HETATM   14  C   UNL     1      -7.812   4.620  67.841  1.00  0.00    -0.082 C  
HETATM   15  C   UNL     1      -7.690   4.751  69.363  1.00  0.00    -0.063 C  
HETATM   16  C   UNL     1      -7.117   7.219  68.124  1.00  0.00    -0.081 C  
HETATM   17  C   UNL     1      -7.678   7.227  69.570  1.00  0.00    -0.113 C  
HETATM   18  C   UNL     1      -8.511   5.963  69.947  1.00  0.00    -0.129 C  
HETATM   19  C   UNL     1      -8.575   5.833  71.473  1.00  0.00    -0.132 C  
HETATM   20  C   UNL     1      -5.606   7.551  68.284  1.00  0.00    -0.027 C  
HETATM   21  C   UNL     1      -7.595   6.287  72.265  1.00  0.00    -0.095 C  
HETATM   22  C   UNL     1      -5.379   7.976  69.721  1.00  0.00    -0.023 C  
ENDROOT
BRANCH   6  23
HETATM   23  O   UNL     1      -8.765  10.870  64.209  1.00  0.00    -0.123 OA 
HETATM   24  C   UNL     1     -10.050  10.722  63.597  1.00  0.00    -0.312 C  
ENDBRANCH   6  23
BRANCH   8  25
HETATM   25  C   UNL     1      -8.490  12.038  66.978  1.00  0.00    -0.183 C  
HETATM   26  C   UNL     1     -10.459  16.866  66.186  1.00  0.00    -0.272 C  
HETATM   27  C   UNL     1      -9.415  14.622  69.180  1.00  0.00    -0.070 C  
HETATM   28  N   UNL     1      -9.494  16.238  67.110  1.00  0.00    -0.221 NA 
HETATM   29  C   UNL     1     -11.267  15.945  65.188  1.00  0.00    -0.224 C  
HETATM   30  C   UNL     1     -10.008  13.242  68.951  1.00  0.00     0.053 A  
HETATM   31  C   UNL     1     -10.361  14.793  64.661  1.00  0.00    -0.092 C  
HETATM   32  C   UNL     1     -12.050  13.343  70.621  1.00  0.00    -0.374 A  
HETATM   33  O   UNL     1     -11.647  16.744  64.053  1.00  0.00    -1.441 OA 
HETATM   34  C   UNL     1      -8.930  12.821  65.637  1.00  0.00     0.576 C  
HETATM   35  C   UNL     1      -8.713  15.231  66.414  1.00  0.00    -0.230 C  
HETATM   36  H   UNL     1     -12.133  16.190  63.453  1.00  0.00     0.000 HD 
HETATM   37  C   UNL     1      -9.601  12.190  68.102  1.00  0.00    -0.208 A  
HETATM   38  C   UNL     1     -13.152  12.607  71.082  1.00  0.00    -0.144 A  
HETATM   39  N   UNL     1     -10.382  11.111  68.473  1.00  0.00    -0.185 NA 
HETATM   40  C   UNL     1     -11.182  12.778  69.663  1.00  0.00    -0.072 A  
HETATM   41  C   UNL     1      -9.638  14.158  65.859  1.00  0.00    -0.208 C  
HETATM   42  C   UNL     1     -11.430  11.474  69.265  1.00  0.00    -0.305 A  
HETATM   43  C   UNL     1     -10.071  15.796  68.397  1.00  0.00    -0.222 C  
HETATM   44  C   UNL     1     -12.532  10.724  69.695  1.00  0.00    -0.166 A  
HETATM   45  H   UNL     1     -10.194  10.150  68.185  1.00  0.00     0.000 HD 
HETATM   46  C   UNL     1     -13.401  11.324  70.606  1.00  0.00     0.483 A  
BRANCH  25  47
HETATM   47  C   UNL     1      -7.171  12.598  67.579  1.00  0.00    -0.155 C  
HETATM   48  O   UNL     1      -6.970  12.778  68.781  1.00  0.00    -0.091 OA 
BRANCH  47  49
HETATM   49  O   UNL     1      -6.241  12.869  66.607  1.00  0.00     0.249 OA 
HETATM   50  C   UNL     1      -5.240  13.825  66.980  1.00  0.00     1.110 C  
ENDBRANCH  47  49
ENDBRANCH  25  47
BRANCH  29  51
HETATM   51  C   UNL     1     -12.573  15.418  65.841  1.00  0.00     1.177 C  
HETATM   52  C   UNL     1     -12.505  13.972  66.330  1.00  0.00    -0.439 C  
ENDBRANCH  29  51
ENDBRANCH   8  25
BRANCH  18  53
HETATM   53  C   UNL     1      -9.984   6.316  69.492  1.00  0.00    -0.198 C  
HETATM   54  C   UNL     1     -10.703   7.621  69.809  1.00  0.00    -0.243 C  
ENDBRANCH  18  53
BRANCH  15  55
HETATM   55  O   UNL     1      -8.034   3.550  70.096  1.00  0.00    -0.047 OA 
BRANCH  55  56
HETATM   56  C   UNL     1      -7.020   3.102  70.903  1.00  0.00    -0.033 C  
HETATM   57  O   UNL     1      -7.012   2.053  71.535  1.00  0.00    -0.029 OA 
HETATM   58  C   UNL     1      -5.812   3.998  70.775  1.00  0.00    -0.014 C  
ENDBRANCH  55  56
ENDBRANCH  15  55
BRANCH  14  59
HETATM   59  C   UNL     1      -7.000   3.436  67.257  1.00  0.00    -0.057 C  
HETATM   60  O   UNL     1      -5.868   3.109  67.591  1.00  0.00    -0.021 OA 
BRANCH  59  61
HETATM   61  O   UNL     1      -7.667   2.876  66.199  1.00  0.00    -0.076 OA 
HETATM   62  C   UNL     1      -6.938   2.824  64.968  1.00  0.00    -0.049 C  
ENDBRANCH  59  61
ENDBRANCH  14  59
TORSDOF 10
ENDMDL
MODEL       24
REMARK 921   NORMALIZED FREE ENERGY PREDICTED BY IDOCK:   -0.39 KCAL/MOL
REMARK 922        TOTAL FREE ENERGY PREDICTED BY IDOCK:   -1.78 KCAL/MOL
REMARK 923 INTER-LIGAND FREE ENERGY PREDICTED BY IDOCK:   -0.73 KCAL/MOL
REMARK 924 INTRA-LIGAND FREE ENERGY PREDICTED BY IDOCK:   -1.05 KCAL/MOL
REMARK 927      BINDING AFFINITY PREDICTED BY RF-SCORE:    0.00 PKD
ROOT
HETATM    1  C   UNL     1      -9.433  15.485  67.447  1.00  0.00    -0.211 C  
HETATM    2  N   UNL     1      -9.682  14.391  66.479  1.00  0.00    -0.279 NA 
HETATM    3  C   UNL     1     -10.497  14.508  65.292  1.00  0.00    -0.390 C  
HETATM    4  C   UNL     1      -9.479  13.202  67.140  1.00  0.00    -0.239 A  
HETATM    5  C   UNL     1      -9.898  11.938  66.780  1.00  0.00    -0.214 A  
HETATM    6  C   UNL     1      -9.509  10.824  67.535  1.00  0.00    -0.154 A  
HETATM    7  N   UNL     1      -7.174  15.640  70.398  1.00  0.00     0.498 NA 
HETATM    8  C   UNL     1      -8.560  10.967  68.573  1.00  0.00    -0.152 A  
HETATM    9  C   UNL     1      -8.185  12.280  68.938  1.00  0.00     0.189 A  
HETATM   10  C   UNL     1      -6.402  16.749  70.891  1.00  0.00     1.428 C  
HETATM   11  H   UNL     1      -7.892  17.310  65.092  1.00  0.00     0.000 HD 
HETATM   12  O   UNL     1      -8.267  16.532  65.488  1.00  0.00     0.100 OA 
HETATM   13  C   UNL     1      -8.725  13.367  68.285  1.00  0.00    -0.172 A  
HETATM   14  C   UNL     1      -8.815  16.766  66.794  1.00  0.00    -0.230 C  
HETATM   15  C   UNL     1      -7.710  17.311  67.707  1.00  0.00    -0.190 C  
HETATM   16  C   UNL     1      -8.632  14.825  68.669  1.00  0.00    -0.169 C  
HETATM   17  C   UNL     1      -7.176  15.253  68.991  1.00  0.00    -0.151 C  
HETATM   18  C   UNL     1      -6.562  16.267  67.978  1.00  0.00    -0.145 C  
HETATM   19  C   UNL     1      -5.378  16.987  68.634  1.00  0.00    -0.132 C  
HETATM   20  C   UNL     1      -9.408  15.031  70.002  1.00  0.00     0.305 C  
HETATM   21  C   UNL     1      -5.320  17.195  69.956  1.00  0.00    -0.214 C  
HETATM   22  C   UNL     1      -8.389  15.316  71.088  1.00  0.00     3.223 C  
ENDROOT
BRANCH   6  23
HETATM   23  O   UNL     1     -10.015   9.588  67.242  1.00  0.00    -0.167 OA 
HETATM   24  C   UNL     1     -10.744   9.512  66.014  1.00  0.00     0.488 C  
ENDBRANCH   6  23
BRANCH   8  25
HETATM   25  C   UNL     1      -7.896   9.789  69.381  1.00  0.00    -0.114 C  
HETATM   26  C   UNL     1      -8.237   5.203  71.965  1.00  0.00    -0.117 C  
HETATM   27  C   UNL     1      -5.633   7.130  69.823  1.00  0.00    -0.023 C  
HETATM   28  N   UNL     1      -7.200   6.227  71.727  1.00  0.00    -0.085 NA 
HETATM   29  C   UNL     1      -9.625   5.339  71.223  1.00  0.00    -0.159 C  
HETATM   30  C   UNL     1      -6.345   7.643  68.582  1.00  0.00    -0.036 A  
HETATM   31  C   UNL     1     -10.051   6.835  71.140  1.00  0.00    -0.198 C  
HETATM   32  C   UNL     1      -5.489   5.885  66.808  1.00  0.00    -0.009 A  
HETATM   33  O   UNL     1     -10.619   4.654  72.008  1.00  0.00    -0.166 OA 
HETATM   34  C   UNL     1      -9.101   9.094  70.200  1.00  0.00    -0.229 C  
HETATM   35  C   UNL     1      -7.791   7.554  71.740  1.00  0.00    -0.086 C  
HETATM   36  H   UNL     1     -11.453   4.736  71.562  1.00  0.00     0.000 HD 
HETATM   37  C   UNL     1      -7.212   8.742  68.402  1.00  0.00    -0.081 A  
HETATM   38  C   UNL     1      -5.602   5.515  65.460  1.00  0.00    -0.013 A  
HETATM   39  N   UNL     1      -7.374   8.848  67.033  1.00  0.00    -0.083 NA 
HETATM   40  C   UNL     1      -6.193   7.010  67.287  1.00  0.00    -0.041 A  
HETATM   41  C   UNL     1      -8.847   7.655  70.649  1.00  0.00    -0.145 C  
HETATM   42  C   UNL     1      -6.926   7.745  66.369  1.00  0.00    -0.063 A  
HETATM   43  C   UNL     1      -6.316   5.952  70.576  1.00  0.00    -0.032 C  
HETATM   44  C   UNL     1      -7.072   7.387  65.023  1.00  0.00    -0.064 A  
HETATM   45  H   UNL     1      -7.783   9.661  66.572  1.00  0.00     0.000 HD 
HETATM   46  C   UNL     1      -6.402   6.244  64.586  1.00  0.00    -0.034 A  
BRANCH  25  47
HETATM   47  C   UNL     1      -6.776  10.315  70.321  1.00  0.00    -0.142 C  
HETATM   48  O   UNL     1      -6.686  10.051  71.522  1.00  0.00    -0.236 OA 
BRANCH  47  49
HETATM   49  O   UNL     1      -5.882  11.115  69.654  1.00  0.00    -0.057 OA 
HETATM   50  C   UNL     1      -5.175  12.048  70.479  1.00  0.00    -0.128 C  
ENDBRANCH  47  49
ENDBRANCH  25  47
BRANCH  29  51
HETATM   51  C   UNL     1      -9.588   4.657  69.829  1.00  0.00    -0.258 C  
HETATM   52  C   UNL     1      -9.160   3.190  69.848  1.00  0.00    -0.196 C  
ENDBRANCH  29  51
ENDBRANCH   8  25
BRANCH  18  53
HETATM   53  C   UNL     1      -5.928  15.357  66.850  1.00  0.00     0.900 C  
HETATM   54  C   UNL     1      -5.201  14.042  67.099  1.00  0.00     0.861 C  
ENDBRANCH  18  53
BRANCH  15  55
HETATM   55  O   UNL     1      -7.122  18.556  67.257  1.00  0.00    -0.202 OA 
BRANCH  55  56
HETATM   56  C   UNL     1      -7.277  19.581  68.153  1.00  0.00    -0.295 C  
HETATM   57  O   UNL     1      -7.824  19.507  69.246  1.00  0.00    -0.308 OA 
HETATM   58  C   UNL     1      -6.516  20.801  67.692  1.00  0.00    -0.366 C  
ENDBRANCH  55  56
ENDBRANCH  15  55
BRANCH  14  59
HETATM   59  C   UNL     1      -9.954  17.783  66.529  1.00  0.00    -0.346 C  
HETATM   60  O   UNL     1     -10.319  18.179  65.429  1.00  0.00    -0.537 OA 
BRANCH  59  61
HETATM   61  O   UNL     1     -10.415  18.303  67.710  1.00  0.00    -0.387 OA 
HETATM   62  C   UNL     1     -10.832  19.671  67.661  1.00  0.00    -0.282 C  
ENDBRANCH  59  61
ENDBRANCH  14  59
TORSDOF 10
ENDMDL
MODEL       25
REMARK 921   NORMALIZED FREE ENERGY PREDICTED BY IDOCK:    1.14 KCAL/MOL
REMARK 922        TOTAL FREE ENERGY PREDICTED BY IDOCK:    0.65 KCAL/MOL
REMARK 923 INTER-LIGAND FREE ENERGY PREDICTED BY IDOCK:   -2.75 KCAL/MOL
REMARK 924 INTRA-LIGAND FREE ENERGY PREDICTED BY IDOCK:    3.40 KCAL/MOL
REMARK 927      BINDING AFFINITY PREDICTED BY RF-SCORE:    0.00 PKD
ROOT
HETATM    1  C   UNL     1      -7.823   6.440  68.630  1.00  0.00    -0.102 C  
HETATM    2  N   UNL     1      -7.898   6.991  67.257  1.00  0.00    -0.109 NA 
HETATM    3  C   UNL     1      -7.333   6.366  66.084  1.00  0.00    -0.080 C  
HETATM    4  C   UNL     1      -8.092   8.349  67.368  1.00  0.00    -0.106 A  
HETATM    5  C   UNL     1      -7.898   9.324  66.413  1.00  0.00    -0.103 A  
HETATM    6  C   UNL     1      -8.245  10.654  66.681  1.00  0.00    -0.134 A  
HETATM    7  N   UNL     1      -9.404   7.594  71.793  1.00  0.00    -0.143 NA 
HETATM    8  C   UNL     1      -8.942  10.980  67.868  1.00  0.00    -0.144 A  
HETATM    9  C   UNL     1      -9.088   9.962  68.839  1.00  0.00    -0.156 A  
HETATM   10  C   UNL     1      -9.933   6.813  72.880  1.00  0.00    -0.174 C  
HETATM   11  H   UNL     1      -9.599   3.745  67.718  1.00  0.00     0.000 HD 
HETATM   12  O   UNL     1      -9.239   4.621  67.642  1.00  0.00    -0.117 OA 
HETATM   13  C   UNL     1      -8.575   8.703  68.612  1.00  0.00    -0.131 A  
HETATM   14  C   UNL     1      -8.415   4.996  68.756  1.00  0.00    -0.086 C  
HETATM   15  C   UNL     1      -9.244   4.905  70.042  1.00  0.00    -0.127 C  
HETATM   16  C   UNL     1      -8.426   7.567  69.597  1.00  0.00    -0.135 C  
HETATM   17  C   UNL     1      -9.730   7.315  70.399  1.00  0.00    -0.172 C  
HETATM   18  C   UNL     1     -10.422   5.951  70.094  1.00  0.00    -0.329 C  
HETATM   19  C   UNL     1     -11.361   5.587  71.250  1.00  0.00     0.056 C  
HETATM   20  C   UNL     1      -7.378   7.982  70.669  1.00  0.00    -0.056 C  
HETATM   21  C   UNL     1     -11.126   5.988  72.506  1.00  0.00    -0.321 C  
HETATM   22  C   UNL     1      -8.118   8.201  71.974  1.00  0.00    -0.138 C  
ENDROOT
BRANCH   6  23
HETATM   23  O   UNL     1      -7.949  11.635  65.777  1.00  0.00     0.232 OA 
HETATM   24  C   UNL     1      -8.481  11.425  64.465  1.00  0.00     0.613 C  
ENDBRANCH   6  23
BRANCH   8  25
HETATM   25  C   UNL     1      -9.554  12.388  68.219  1.00  0.00    -0.211 C  
HETATM   26  C   UNL     1      -9.226  17.651  68.366  1.00  0.00    -0.288 C  
HETATM   27  C   UNL     1     -11.977  14.932  68.007  1.00  0.00    -0.216 C  
HETATM   28  N   UNL     1     -10.155  16.618  68.866  1.00  0.00    -0.258 NA 
HETATM   29  C   UNL     1      -8.027  17.209  67.437  1.00  0.00    -0.180 C  
HETATM   30  C   UNL     1     -11.495  13.920  66.980  1.00  0.00    -0.367 A  
HETATM   31  C   UNL     1      -7.448  15.843  67.911  1.00  0.00    -0.145 C  
HETATM   32  C   UNL     1     -12.927  14.674  64.895  1.00  0.00     0.298 A  
HETATM   33  O   UNL     1      -6.978  18.186  67.567  1.00  0.00    -0.194 OA 
HETATM   34  C   UNL     1      -8.294  13.392  68.322  1.00  0.00    -0.160 C  
HETATM   35  C   UNL     1      -9.417  15.448  69.308  1.00  0.00    -0.261 C  
HETATM   36  H   UNL     1      -6.258  17.921  67.008  1.00  0.00     0.000 HD 
HETATM   37  C   UNL     1     -10.559  12.870  67.087  1.00  0.00    -0.238 A  
HETATM   38  C   UNL     1     -13.157  14.393  63.539  1.00  0.00     1.918 A  
HETATM   39  N   UNL     1     -10.688  12.156  65.909  1.00  0.00    -0.257 NA 
HETATM   40  C   UNL     1     -12.002  13.896  65.623  1.00  0.00    -0.409 A  
HETATM   41  C   UNL     1      -8.619  14.876  68.145  1.00  0.00    -0.159 C  
HETATM   42  C   UNL     1     -11.402  12.833  64.966  1.00  0.00    -0.309 A  
HETATM   43  C   UNL     1     -11.296  16.331  67.973  1.00  0.00    -0.205 C  
HETATM   44  C   UNL     1     -11.599  12.544  63.610  1.00  0.00    -0.580 A  
HETATM   45  H   UNL     1     -10.292  11.227  65.763  1.00  0.00     0.000 HD 
HETATM   46  C   UNL     1     -12.484  13.357  62.902  1.00  0.00     0.541 A  
BRANCH  25  47
HETATM   47  C   UNL     1     -10.368  12.332  69.541  1.00  0.00     0.622 C  
HETATM   48  O   UNL     1     -10.544  13.290  70.297  1.00  0.00     1.118 OA 
BRANCH  47  49
HETATM   49  O   UNL     1     -10.881  11.081  69.774  1.00  0.00    -0.231 OA 
HETATM   50  C   UNL     1     -12.268  11.053  70.133  1.00  0.00    -0.344 C  
ENDBRANCH  47  49
ENDBRANCH  25  47
BRANCH  29  51
HETATM   51  C   UNL     1      -8.452  17.185  65.943  1.00  0.00    -0.014 C  
HETATM   52  C   UNL     1      -9.939  16.924  65.707  1.00  0.00    -0.209 C  
ENDBRANCH  29  51
ENDBRANCH   8  25
BRANCH  18  53
HETATM   53  C   UNL     1     -11.369   6.258  68.864  1.00  0.00    -0.269 C  
HETATM   54  C   UNL     1     -11.492   7.612  68.179  1.00  0.00     0.929 C  
ENDBRANCH  18  53
BRANCH  15  55
HETATM   55  O   UNL     1      -9.771   3.585  70.321  1.00  0.00    -0.183 OA 
BRANCH  55  56
HETATM   56  C   UNL     1      -9.183   2.988  71.406  1.00  0.00    -0.120 C  
HETATM   57  O   UNL     1      -8.687   3.564  72.365  1.00  0.00    -0.084 OA 
HETATM   58  C   UNL     1      -9.384   1.492  71.355  1.00  0.00    -0.169 C  
ENDBRANCH  55  56
ENDBRANCH  15  55
BRANCH  14  59
HETATM   59  C   UNL     1      -7.249   3.978  68.700  1.00  0.00    -0.055 C  
HETATM   60  O   UNL     1      -6.709   3.453  69.666  1.00  0.00    -0.033 OA 
BRANCH  59  61
HETATM   61  O   UNL     1      -6.794   3.842  67.415  1.00  0.00    -0.052 OA 
HETATM   62  C   UNL     1      -5.377   3.955  67.247  1.00  0.00    -0.012 C  
ENDBRANCH  59  61
ENDBRANCH  14  59
TORSDOF 10
ENDMDL
MODEL       26
REMARK 921   NORMALIZED FREE ENERGY PREDICTED BY IDOCK:    2.22 KCAL/MOL
REMARK 922        TOTAL FREE ENERGY PREDICTED BY IDOCK:    2.36 KCAL/MOL
REMARK 923 INTER-LIGAND FREE ENERGY PREDICTED BY IDOCK:    0.92 KCAL/MOL
REMARK 924 INTRA-LIGAND FREE ENERGY PREDICTED BY IDOCK:    1.44 KCAL/MOL
REMARK 927      BINDING AFFINITY PREDICTED BY RF-SCORE:    0.00 PKD
ROOT
HETATM    1  C   UNL     1     -10.075  15.879  69.349  1.00  0.00    -0.267 C  
HETATM    2  N   UNL     1     -11.389  15.218  69.173  1.00  0.00    -0.276 NA 
HETATM    3  C   UNL     1     -12.665  15.823  69.475  1.00  0.00     0.403 C  
HETATM    4  C   UNL     1     -11.173  13.860  69.199  1.00  0.00    -0.269 A  
HETATM    5  C   UNL     1     -12.089  12.850  69.406  1.00  0.00    -0.254 A  
HETATM    6  C   UNL     1     -11.698  11.509  69.299  1.00  0.00    -0.330 A  
HETATM    7  N   UNL     1      -6.656  14.765  68.397  1.00  0.00    -0.094 NA 
HETATM    8  C   UNL     1     -10.407  11.183  68.825  1.00  0.00    -0.222 A  
HETATM    9  C   UNL     1      -9.485  12.242  68.661  1.00  0.00    -0.030 A  
HETATM   10  C   UNL     1      -5.551  15.547  67.909  1.00  0.00    -0.137 C  
HETATM   11  H   UNL     1     -10.873  18.222  67.086  1.00  0.00     0.000 HD 
HETATM   12  O   UNL     1     -10.950  17.401  67.558  1.00  0.00    -0.256 OA 
HETATM   13  C   UNL     1      -9.854  13.538  68.946  1.00  0.00     0.048 A  
HETATM   14  C   UNL     1      -9.948  17.232  68.572  1.00  0.00    -0.320 C  
HETATM   15  C   UNL     1      -8.563  17.306  67.919  1.00  0.00    -0.223 C  
HETATM   16  C   UNL     1      -8.968  14.757  69.056  1.00  0.00    -0.135 C  
HETATM   17  C   UNL     1      -8.002  14.887  67.848  1.00  0.00    -0.138 C  
HETATM   18  C   UNL     1      -8.282  16.114  66.927  1.00  0.00    -0.273 C  
HETATM   19  C   UNL     1      -7.025  16.432  66.109  1.00  0.00     0.680 C  
HETATM   20  C   UNL     1      -8.037  14.576  70.289  1.00  0.00     1.163 C  
HETATM   21  C   UNL     1      -5.795  16.166  66.568  1.00  0.00     0.906 C  
HETATM   22  C   UNL     1      -6.628  14.358  69.772  1.00  0.00    -0.142 C  
ENDROOT
BRANCH   6  23
HETATM   23  O   UNL     1     -12.579  10.512  69.613  1.00  0.00    -0.177 OA 
HETATM   24  C   UNL     1     -12.918  10.424  71.000  1.00  0.00    -0.399 C  
ENDBRANCH   6  23
BRANCH   8  25
HETATM   25  C   UNL     1      -9.892   9.734  68.481  1.00  0.00    -0.169 C  
HETATM   26  C   UNL     1      -6.852   6.470  65.667  1.00  0.00    -0.049 C  
HETATM   27  C   UNL     1      -8.377   6.648  69.234  1.00  0.00    -0.124 C  
HETATM   28  N   UNL     1      -7.932   6.339  66.664  1.00  0.00    -0.107 NA 
HETATM   29  C   UNL     1      -6.288   7.909  65.341  1.00  0.00    -0.041 C  
HETATM   30  C   UNL     1      -8.124   8.046  69.775  1.00  0.00    -0.115 A  
HETATM   31  C   UNL     1      -7.440   8.956  65.343  1.00  0.00    -0.086 C  
HETATM   32  C   UNL     1      -6.106   7.546  71.402  1.00  0.00    -0.036 A  
HETATM   33  O   UNL     1      -5.736   7.881  64.012  1.00  0.00    -0.050 OA 
HETATM   34  C   UNL     1      -9.288   9.834  66.987  1.00  0.00    -0.178 C  
HETATM   35  C   UNL     1      -8.931   7.373  66.463  1.00  0.00    -0.159 C  
HETATM   36  H   UNL     1      -5.397   8.747  63.816  1.00  0.00     0.000 HD 
HETATM   37  C   UNL     1      -8.770   9.272  69.505  1.00  0.00    -0.146 A  
HETATM   38  C   UNL     1      -5.205   8.161  72.284  1.00  0.00    -0.036 A  
HETATM   39  N   UNL     1      -8.261  10.155  70.440  1.00  0.00    -0.397 NA 
HETATM   40  C   UNL     1      -7.088   8.322  70.750  1.00  0.00    -0.044 A  
HETATM   41  C   UNL     1      -8.286   8.744  66.609  1.00  0.00    -0.107 C  
HETATM   42  C   UNL     1      -7.154   9.669  71.068  1.00  0.00     0.067 A  
HETATM   43  C   UNL     1      -7.468   6.186  68.058  1.00  0.00    -0.089 C  
HETATM   44  C   UNL     1      -6.255  10.312  71.928  1.00  0.00     0.827 A  
HETATM   45  H   UNL     1      -8.670  11.069  70.637  1.00  0.00     0.000 HD 
HETATM   46  C   UNL     1      -5.265   9.530  72.524  1.00  0.00    -0.061 A  
BRANCH  25  47
HETATM   47  C   UNL     1     -11.040   8.692  68.580  1.00  0.00     0.310 C  
HETATM   48  O   UNL     1     -11.878   8.486  67.700  1.00  0.00     2.134 OA 
BRANCH  47  49
HETATM   49  O   UNL     1     -11.014   8.013  69.773  1.00  0.00    -0.227 OA 
HETATM   50  C   UNL     1     -11.867   6.864  69.833  1.00  0.00    -0.082 C  
ENDBRANCH  47  49
ENDBRANCH  25  47
BRANCH  29  51
HETATM   51  C   UNL     1      -5.137   8.295  66.310  1.00  0.00    -0.024 C  
HETATM   52  C   UNL     1      -5.595   8.890  67.640  1.00  0.00    -0.039 C  
ENDBRANCH  29  51
ENDBRANCH   8  25
BRANCH  18  53
HETATM   53  C   UNL     1      -9.342  15.584  65.880  1.00  0.00    -0.355 C  
HETATM   54  C   UNL     1      -9.762  14.128  65.728  1.00  0.00    -0.246 C  
ENDBRANCH  18  53
BRANCH  15  55
HETATM   55  O   UNL     1      -8.286  18.558  67.244  1.00  0.00    -0.248 OA 
BRANCH  55  56
HETATM   56  C   UNL     1      -7.076  19.101  67.589  1.00  0.00    -0.225 C  
HETATM   57  O   UNL     1      -6.372  18.754  68.529  1.00  0.00    -0.217 OA 
HETATM   58  C   UNL     1      -6.623  20.086  66.538  1.00  0.00    -0.226 C  
ENDBRANCH  55  56
ENDBRANCH  15  55
BRANCH  14  59
HETATM   59  C   UNL     1     -10.229  18.395  69.555  1.00  0.00     0.358 C  
HETATM   60  O   UNL     1     -10.790  18.297  70.640  1.00  0.00     1.545 OA 
BRANCH  59  61
HETATM   61  O   UNL     1      -9.893  19.595  68.985  1.00  0.00    -0.431 OA 
HETATM   62  C   UNL     1     -10.968  20.303  68.358  1.00  0.00     0.729 C  
ENDBRANCH  59  61
ENDBRANCH  14  59
TORSDOF 10
ENDMDL
MODEL       27
REMARK 921   NORMALIZED FREE ENERGY PREDICTED BY IDOCK:    3.23 KCAL/MOL
REMARK 922        TOTAL FREE ENERGY PREDICTED BY IDOCK:    3.97 KCAL/MOL
REMARK 923 INTER-LIGAND FREE ENERGY PREDICTED BY IDOCK:    4.57 KCAL/MOL
REMARK 924 INTRA-LIGAND FREE ENERGY PREDICTED BY IDOCK:   -0.60 KCAL/MOL
REMARK 927      BINDING AFFINITY PREDICTED BY RF-SCORE:    0.00 PKD
ROOT
HETATM    1  C   UNL     1      -8.776  10.246  66.205  1.00  0.00    -0.152 C  
HETATM    2  N   UNL     1      -9.905  11.100  65.766  1.00  0.00    -0.224 NA 
HETATM    3  C   UNL     1     -11.004  10.656  64.942  1.00  0.00     0.317 C  
HETATM    4  C   UNL     1      -9.475  12.406  65.811  1.00  0.00    -0.086 A  
HETATM    5  C   UNL     1     -10.027  13.512  65.198  1.00  0.00    -0.201 A  
HETATM    6  C   UNL     1      -9.502  14.788  65.440  1.00  0.00     0.150 A  
HETATM    7  N   UNL     1      -5.977  10.950  68.551  1.00  0.00    -0.043 NA 
HETATM    8  C   UNL     1      -8.511  14.971  66.431  1.00  0.00     0.033 A  
HETATM    9  C   UNL     1      -7.943  13.812  67.008  1.00  0.00     0.050 A  
HETATM   10  C   UNL     1      -5.342  10.068  69.495  1.00  0.00    -0.038 C  
HETATM   11  H   UNL     1     -10.858   8.259  67.926  1.00  0.00     0.000 HD 
HETATM   12  O   UNL     1     -10.584   9.036  67.452  1.00  0.00    -0.275 OA 
HETATM   13  C   UNL     1      -8.364  12.560  66.616  1.00  0.00     0.040 A  
HETATM   14  C   UNL     1      -9.228   8.967  66.986  1.00  0.00    -0.136 C  
HETATM   15  C   UNL     1      -8.298   8.759  68.187  1.00  0.00    -0.122 C  
HETATM   16  C   UNL     1      -7.736  11.223  66.936  1.00  0.00    -0.152 C  
HETATM   17  C   UNL     1      -7.427  11.071  68.449  1.00  0.00    -0.100 C  
HETATM   18  C   UNL     1      -8.281   9.986  69.175  1.00  0.00    -0.137 C  
HETATM   19  C   UNL     1      -7.577   9.571  70.473  1.00  0.00    -0.165 C  
HETATM   20  C   UNL     1      -6.346  11.156  66.240  1.00  0.00    -0.090 C  
HETATM   21  C   UNL     1      -6.244   9.616  70.602  1.00  0.00    -0.084 C  
HETATM   22  C   UNL     1      -5.287  11.220  67.324  1.00  0.00    -0.055 C  
ENDROOT
BRANCH   6  23
HETATM   23  O   UNL     1      -9.978  15.866  64.747  1.00  0.00    -0.228 OA 
HETATM   24  C   UNL     1     -11.380  15.831  64.466  1.00  0.00    -0.316 C  
ENDBRANCH   6  23
BRANCH   8  25
HETATM   25  C   UNL     1      -7.961  16.358  66.938  1.00  0.00    -0.269 C  
HETATM   26  C   UNL     1      -8.644  20.954  69.433  1.00  0.00     2.377 C  
HETATM   27  C   UNL     1      -5.775  18.423  68.765  1.00  0.00    -0.196 C  
HETATM   28  N   UNL     1      -7.587  20.320  68.621  1.00  0.00    -0.035 NA 
HETATM   29  C   UNL     1      -9.918  20.105  69.820  1.00  0.00     0.308 C  
HETATM   30  C   UNL     1      -6.312  17.030  69.053  1.00  0.00    -0.198 A  
HETATM   31  C   UNL     1     -10.331  19.177  68.639  1.00  0.00    -0.311 C  
HETATM   32  C   UNL     1      -5.219  16.603  71.418  1.00  0.00     0.073 A  
HETATM   33  O   UNL     1     -11.009  21.016  70.050  1.00  0.00    -0.208 OA 
HETATM   34  C   UNL     1      -9.266  17.279  67.173  1.00  0.00    -0.240 C  
HETATM   35  C   UNL     1      -8.175  19.545  67.544  1.00  0.00    -0.293 C  
HETATM   36  H   UNL     1     -11.775  20.505  70.284  1.00  0.00     0.000 HD 
HETATM   37  C   UNL     1      -7.148  16.187  68.291  1.00  0.00    -0.128 A  
HETATM   38  C   UNL     1      -5.147  15.667  72.461  1.00  0.00     0.524 A  
HETATM   39  N   UNL     1      -7.122  14.971  68.949  1.00  0.00    -0.111 NA 
HETATM   40  C   UNL     1      -5.984  16.312  70.268  1.00  0.00    -0.067 A  
HETATM   41  C   UNL     1      -9.073  18.461  68.123  1.00  0.00    -0.325 C  
HETATM   42  C   UNL     1      -6.586  15.066  70.198  1.00  0.00    -0.116 A  
HETATM   43  C   UNL     1      -6.553  19.610  69.403  1.00  0.00    -0.348 C  
HETATM   44  C   UNL     1      -6.546  14.122  71.232  1.00  0.00     0.750 A  
HETATM   45  H   UNL     1      -7.465  14.100  68.543  1.00  0.00     0.000 HD 
HETATM   46  C   UNL     1      -5.821  14.453  72.377  1.00  0.00     0.137 A  
BRANCH  25  47
HETATM   47  C   UNL     1      -6.980  16.983  65.907  1.00  0.00     0.272 C  
HETATM   48  O   UNL     1      -5.827  16.593  65.711  1.00  0.00     0.543 OA 
BRANCH  47  49
HETATM   49  O   UNL     1      -7.551  18.030  65.227  1.00  0.00    -0.151 OA 
HETATM   50  C   UNL     1      -6.642  19.070  64.848  1.00  0.00     0.011 C  
ENDBRANCH  47  49
ENDBRANCH  25  47
BRANCH  29  51
HETATM   51  C   UNL     1      -9.690  19.317  71.139  1.00  0.00     2.792 C  
HETATM   52  C   UNL     1      -9.012  20.117  72.251  1.00  0.00     2.759 C  
ENDBRANCH  29  51
ENDBRANCH   8  25
BRANCH  18  53
HETATM   53  C   UNL     1      -9.585  10.755  69.632  1.00  0.00     0.136 C  
HETATM   54  C   UNL     1     -10.686  10.161  70.500  1.00  0.00    -0.295 C  
ENDBRANCH  18  53
BRANCH  15  55
HETATM   55  O   UNL     1      -8.557   7.548  68.939  1.00  0.00    -0.129 OA 
BRANCH  55  56
HETATM   56  C   UNL     1      -7.506   6.668  68.922  1.00  0.00    -0.096 C  
HETATM   57  O   UNL     1      -6.642   6.594  68.058  1.00  0.00    -0.056 OA 
HETATM   58  C   UNL     1      -7.444   5.899  70.220  1.00  0.00    -0.089 C  
ENDBRANCH  55  56
ENDBRANCH  15  55
BRANCH  14  59
HETATM   59  C   UNL     1      -9.245   7.769  66.003  1.00  0.00    -0.082 C  
HETATM   60  O   UNL     1      -9.777   6.685  66.206  1.00  0.00    -0.115 OA 
BRANCH  59  61
HETATM   61  O   UNL     1      -8.453   8.031  64.916  1.00  0.00    -0.136 OA 
HETATM   62  C   UNL     1      -7.867   6.886  64.291  1.00  0.00    -0.104 C  
ENDBRANCH  59  61
ENDBRANCH  14  59
TORSDOF 10
ENDMDL
MODEL       28
REMARK 921   NORMALIZED FREE ENERGY PREDICTED BY IDOCK:    3.34 KCAL/MOL
REMARK 922        TOTAL FREE ENERGY PREDICTED BY IDOCK:    4.14 KCAL/MOL
REMARK 923 INTER-LIGAND FREE ENERGY PREDICTED BY IDOCK:    1.91 KCAL/MOL
REMARK 924 INTRA-LIGAND FREE ENERGY PREDICTED BY IDOCK:    2.22 KCAL/MOL
REMARK 927      BINDING AFFINITY PREDICTED BY RF-SCORE:    0.00 PKD
ROOT
HETATM    1  C   UNL     1      -7.937  16.261  68.472  1.00  0.00    -0.184 C  
HETATM    2  N   UNL     1      -7.299  15.861  69.748  1.00  0.00    -0.073 NA 
HETATM    3  C   UNL     1      -6.593  16.757  70.634  1.00  0.00     1.413 C  
HETATM    4  C   UNL     1      -7.039  14.512  69.674  1.00  0.00    -0.090 A  
HETATM    5  C   UNL     1      -6.178  13.762  70.446  1.00  0.00    -0.078 A  
HETATM    6  C   UNL     1      -6.118  12.371  70.287  1.00  0.00    -0.071 A  
HETATM    7  N   UNL     1     -10.077  14.327  66.123  1.00  0.00    -0.301 NA 
HETATM    8  C   UNL     1      -7.046  11.712  69.450  1.00  0.00    -0.007 A  
HETATM    9  C   UNL     1      -7.886  12.517  68.646  1.00  0.00    -0.048 A  
HETATM   10  C   UNL     1     -11.207  14.771  65.352  1.00  0.00    -0.347 C  
HETATM   11  H   UNL     1     -10.059  18.293  70.088  1.00  0.00     0.000 HD 
HETATM   12  O   UNL     1      -9.418  17.599  69.990  1.00  0.00     1.018 OA 
HETATM   13  C   UNL     1      -7.795  13.891  68.700  1.00  0.00    -0.120 A  
HETATM   14  C   UNL     1      -8.993  17.405  68.633  1.00  0.00    -0.255 C  
HETATM   15  C   UNL     1     -10.217  17.082  67.769  1.00  0.00    -0.312 C  
HETATM   16  C   UNL     1      -8.427  14.904  67.773  1.00  0.00    -0.160 C  
HETATM   17  C   UNL     1      -9.936  14.624  67.545  1.00  0.00    -0.223 C  
HETATM   18  C   UNL     1     -10.889  15.706  68.139  1.00  0.00    -0.301 C  
HETATM   19  C   UNL     1     -12.254  15.615  67.447  1.00  0.00     0.919 C  
HETATM   20  C   UNL     1      -7.779  14.751  66.367  1.00  0.00     1.235 C  
HETATM   21  C   UNL     1     -12.381  15.187  66.184  1.00  0.00     0.537 C  
HETATM   22  C   UNL     1      -8.827  14.165  65.440  1.00  0.00     1.792 C  
ENDROOT
BRANCH   6  23
HETATM   23  O   UNL     1      -5.186  11.643  70.974  1.00  0.00    -0.121 OA 
HETATM   24  C   UNL     1      -5.359  11.631  72.394  1.00  0.00     0.643 C  
ENDBRANCH   6  23
BRANCH   8  25
HETATM   25  C   UNL     1      -7.217  10.152  69.314  1.00  0.00    -0.085 C  
HETATM   26  C   UNL     1      -6.744   5.274  71.266  1.00  0.00    -0.044 C  
HETATM   27  C   UNL     1      -9.065   7.198  68.816  1.00  0.00    -0.134 C  
HETATM   28  N   UNL     1      -7.106   5.882  69.970  1.00  0.00    -0.069 NA 
HETATM   29  C   UNL     1      -6.516   6.219  72.511  1.00  0.00    -0.059 C  
HETATM   30  C   UNL     1      -9.441   8.515  69.475  1.00  0.00    -0.165 A  
HETATM   31  C   UNL     1      -5.804   7.533  72.072  1.00  0.00    -0.036 C  
HETATM   32  C   UNL     1     -11.892   7.942  70.270  1.00  0.00     0.149 A  
HETATM   33  O   UNL     1      -5.637   5.542  73.429  1.00  0.00    -0.022 OA 
HETATM   34  C   UNL     1      -6.203   9.511  70.394  1.00  0.00    -0.064 C  
HETATM   35  C   UNL     1      -6.295   7.061  69.723  1.00  0.00    -0.039 C  
HETATM   36  H   UNL     1      -5.500   6.111  74.178  1.00  0.00     0.000 HD 
HETATM   37  C   UNL     1      -8.712   9.714  69.626  1.00  0.00    -0.197 A  
HETATM   38  C   UNL     1     -12.994   8.470  70.960  1.00  0.00     0.046 A  
HETATM   39  N   UNL     1      -9.629  10.631  70.106  1.00  0.00    -0.086 NA 
HETATM   40  C   UNL     1     -10.739   8.733  70.081  1.00  0.00    -0.239 A  
HETATM   41  C   UNL     1      -6.523   8.081  70.829  1.00  0.00    -0.037 C  
HETATM   42  C   UNL     1     -10.777  10.039  70.541  1.00  0.00    -0.285 A  
HETATM   43  C   UNL     1      -8.556   6.072  69.762  1.00  0.00    -0.130 C  
HETATM   44  C   UNL     1     -11.855  10.585  71.249  1.00  0.00    -0.323 A  
HETATM   45  H   UNL     1      -9.464  11.637  70.132  1.00  0.00     0.000 HD 
HETATM   46  C   UNL     1     -12.964   9.766  71.463  1.00  0.00    -0.504 A  
BRANCH  25  47
HETATM   47  C   UNL     1      -6.909   9.678  67.867  1.00  0.00    -0.074 C  
HETATM   48  O   UNL     1      -6.832   8.498  67.517  1.00  0.00    -0.069 OA 
BRANCH  47  49
HETATM   49  O   UNL     1      -6.735  10.734  67.008  1.00  0.00    -0.078 OA 
HETATM   50  C   UNL     1      -7.783  10.910  66.047  1.00  0.00    -0.107 C  
ENDBRANCH  47  49
ENDBRANCH  25  47
BRANCH  29  51
HETATM   51  C   UNL     1      -7.847   6.491  73.263  1.00  0.00    -0.096 C  
HETATM   52  C   UNL     1      -8.688   5.245  73.542  1.00  0.00    -0.114 C  
ENDBRANCH  29  51
ENDBRANCH   8  25
BRANCH  18  53
HETATM   53  C   UNL     1     -11.141  15.231  69.627  1.00  0.00    -0.284 C  
HETATM   54  C   UNL     1     -11.999  15.972  70.643  1.00  0.00    -0.300 C  
ENDBRANCH  18  53
BRANCH  15  55
HETATM   55  O   UNL     1     -11.231  18.117  67.760  1.00  0.00    -0.068 OA 
BRANCH  55  56
HETATM   56  C   UNL     1     -11.038  19.052  66.776  1.00  0.00     0.070 C  
HETATM   57  O   UNL     1     -11.422  20.214  66.802  1.00  0.00     0.480 OA 
HETATM   58  C   UNL     1     -10.120  18.509  65.708  1.00  0.00    -0.021 C  
ENDBRANCH  55  56
ENDBRANCH  15  55
BRANCH  14  59
HETATM   59  C   UNL     1      -8.320  18.753  68.271  1.00  0.00    -0.330 C  
HETATM   60  O   UNL     1      -7.594  18.954  67.305  1.00  0.00    -0.228 OA 
BRANCH  59  61
HETATM   61  O   UNL     1      -8.528  19.673  69.264  1.00  0.00    -0.202 OA 
HETATM   62  C   UNL     1      -7.430  20.552  69.530  1.00  0.00     0.790 C  
ENDBRANCH  59  61
ENDBRANCH  14  59
TORSDOF 10
ENDMDL
MODEL       29
REMARK 921   NORMALIZED FREE ENERGY PREDICTED BY IDOCK:    3.87 KCAL/MOL
REMARK 922        TOTAL FREE ENERGY PREDICTED BY IDOCK:    4.98 KCAL/MOL
REMARK 923 INTER-LIGAND FREE ENERGY PREDICTED BY IDOCK:    2.47 KCAL/MOL
REMARK 924 INTRA-LIGAND FREE ENERGY PREDICTED BY IDOCK:    2.51 KCAL/MOL
REMARK 927      BINDING AFFINITY PREDICTED BY RF-SCORE:    0.00 PKD
ROOT
HETATM    1  C   UNL     1     -10.875   9.377  67.659  1.00  0.00    -0.154 C  
HETATM    2  N   UNL     1     -11.502  10.196  68.722  1.00  0.00    -0.115 NA 
HETATM    3  C   UNL     1     -12.548   9.740  69.607  1.00  0.00     0.922 C  
HETATM    4  C   UNL     1     -11.325  11.518  68.382  1.00  0.00    -0.279 A  
HETATM    5  C   UNL     1     -11.997  12.623  68.859  1.00  0.00    -0.284 A  
HETATM    6  C   UNL     1     -11.609  13.910  68.465  1.00  0.00    -0.332 A  
HETATM    7  N   UNL     1      -7.985  10.102  65.431  1.00  0.00    -0.139 NA 
HETATM    8  C   UNL     1     -10.431  14.094  67.704  1.00  0.00    -0.245 A  
HETATM    9  C   UNL     1      -9.792  12.937  67.201  1.00  0.00    -0.225 A  
HETATM   10  C   UNL     1      -6.964   9.208  64.951  1.00  0.00    -0.088 C  
HETATM   11  H   UNL     1      -9.684   7.218  69.932  1.00  0.00     0.000 HD 
HETATM   12  O   UNL     1     -10.064   8.027  69.611  1.00  0.00    -0.189 OA 
HETATM   13  C   UNL     1     -10.306  11.686  67.465  1.00  0.00    -0.220 A  
HETATM   14  C   UNL     1     -10.248   8.044  68.187  1.00  0.00    -0.207 C  
HETATM   15  C   UNL     1      -8.891   7.824  67.508  1.00  0.00    -0.124 C  
HETATM   16  C   UNL     1      -9.913  10.367  66.842  1.00  0.00    -0.254 C  
HETATM   17  C   UNL     1      -8.376  10.159  66.836  1.00  0.00    -0.122 C  
HETATM   18  C   UNL     1      -7.877   9.004  67.757  1.00  0.00    -0.101 C  
HETATM   19  C   UNL     1      -6.479   8.563  67.306  1.00  0.00    -0.058 C  
HETATM   20  C   UNL     1     -10.314  10.396  65.339  1.00  0.00    -0.270 C  
HETATM   21  C   UNL     1      -6.080   8.665  66.032  1.00  0.00    -0.048 C  
HETATM   22  C   UNL     1      -9.036  10.459  64.525  1.00  0.00    -0.229 C  
ENDROOT
BRANCH   6  23
HETATM   23  O   UNL     1     -12.345  14.996  68.850  1.00  0.00    -0.139 OA 
HETATM   24  C   UNL     1     -12.676  15.036  70.241  1.00  0.00    -0.275 C  
ENDBRANCH   6  23
BRANCH   8  25
HETATM   25  C   UNL     1      -9.774  15.480  67.344  1.00  0.00    -0.218 C  
HETATM   26  C   UNL     1      -9.642  20.742  67.674  1.00  0.00    -0.238 C  
HETATM   27  C   UNL     1      -7.135  17.806  67.249  1.00  0.00    -0.201 C  
HETATM   28  N   UNL     1      -8.929  19.695  66.915  1.00  0.00    -0.315 NA 
HETATM   29  C   UNL     1     -10.668  20.305  68.793  1.00  0.00     0.453 C  
HETATM   30  C   UNL     1      -7.495  16.741  68.272  1.00  0.00    -0.186 A  
HETATM   31  C   UNL     1     -11.452  19.037  68.344  1.00  0.00     1.665 C  
HETATM   32  C   UNL     1      -5.614  17.186  70.070  1.00  0.00    -0.234 A  
HETATM   33  O   UNL     1     -11.627  21.366  68.956  1.00  0.00     1.879 OA 
HETATM   34  C   UNL     1     -10.932  16.580  67.580  1.00  0.00    -0.207 C  
HETATM   35  C   UNL     1      -9.844  18.630  66.545  1.00  0.00    -0.364 C  
HETATM   36  H   UNL     1     -12.244  21.103  69.630  1.00  0.00     0.000 HD 
HETATM   37  C   UNL     1      -8.525  15.777  68.279  1.00  0.00    -0.164 A  
HETATM   38  C   UNL     1      -5.146  16.764  71.323  1.00  0.00    -0.045 A  
HETATM   39  N   UNL     1      -8.231  14.949  69.347  1.00  0.00    -0.365 NA 
HETATM   40  C   UNL     1      -6.733  16.552  69.490  1.00  0.00    -0.198 A  
HETATM   41  C   UNL     1     -10.444  18.012  67.800  1.00  0.00    -0.421 C  
HETATM   42  C   UNL     1      -7.285  15.479  70.172  1.00  0.00     0.225 A  
HETATM   43  C   UNL     1      -7.665  19.242  67.530  1.00  0.00    -0.249 C  
HETATM   44  C   UNL     1      -6.850  15.049  71.432  1.00  0.00     1.335 A  
HETATM   45  H   UNL     1      -8.673  14.042  69.499  1.00  0.00     0.000 HD 
HETATM   46  C   UNL     1      -5.772  15.725  72.004  1.00  0.00     0.845 A  
BRANCH  25  47
HETATM   47  C   UNL     1      -9.247  15.488  65.883  1.00  0.00    -0.270 C  
HETATM   48  O   UNL     1      -8.514  16.357  65.407  1.00  0.00     0.225 OA 
BRANCH  47  49
HETATM   49  O   UNL     1      -9.692  14.402  65.172  1.00  0.00    -0.194 OA 
HETATM   50  C   UNL     1     -11.087  14.424  64.845  1.00  0.00    -0.398 C  
ENDBRANCH  47  49
ENDBRANCH  25  47
BRANCH  29  51
HETATM   51  C   UNL     1      -9.959  20.110  70.160  1.00  0.00     0.622 C  
HETATM   52  C   UNL     1      -9.894  18.661  70.644  1.00  0.00     2.436 C  
ENDBRANCH  29  51
ENDBRANCH   8  25
BRANCH  18  53
HETATM   53  C   UNL     1      -7.667   9.690  69.167  1.00  0.00    -0.087 C  
HETATM   54  C   UNL     1      -6.539   9.359  70.135  1.00  0.00    -0.062 C  
ENDBRANCH  18  53
BRANCH  15  55
HETATM   55  O   UNL     1      -8.250   6.569  67.845  1.00  0.00    -0.115 OA 
BRANCH  55  56
HETATM   56  C   UNL     1      -8.565   5.553  66.980  1.00  0.00    -0.109 C  
HETATM   57  O   UNL     1      -8.901   4.419  67.294  1.00  0.00    -0.104 OA 
HETATM   58  C   UNL     1      -8.617   6.069  65.563  1.00  0.00    -0.145 C  
ENDBRANCH  55  56
ENDBRANCH  15  55
BRANCH  14  59
HETATM   59  C   UNL     1     -11.255   6.893  67.941  1.00  0.00    -0.019 C  
HETATM   60  O   UNL     1     -11.832   6.659  66.886  1.00  0.00     0.665 OA 
BRANCH  59  61
HETATM   61  O   UNL     1     -11.534   6.243  69.114  1.00  0.00    -0.394 OA 
HETATM   62  C   UNL     1     -10.834   5.011  69.318  1.00  0.00     0.596 C  
ENDBRANCH  59  61
ENDBRANCH  14  59
TORSDOF 10
ENDMDL
MODEL       30
REMARK 921   NORMALIZED FREE ENERGY PREDICTED BY IDOCK:    6.63 KCAL/MOL
REMARK 922        TOTAL FREE ENERGY PREDICTED BY IDOCK:    9.36 KCAL/MOL
REMARK 923 INTER-LIGAND FREE ENERGY PREDICTED BY IDOCK:    3.93 KCAL/MOL
REMARK 924 INTRA-LIGAND FREE ENERGY PREDICTED BY IDOCK:    5.43 KCAL/MOL
REMARK 927      BINDING AFFINITY PREDICTED BY RF-SCORE:    0.00 PKD
ROOT
HETATM    1  C   UNL     1      -7.945  16.284  68.486  1.00  0.00    -0.184 C  
HETATM    2  N   UNL     1      -7.344  15.974  69.804  1.00  0.00    -0.033 NA 
HETATM    3  C   UNL     1      -6.655  16.926  70.643  1.00  0.00     1.476 C  
HETATM    4  C   UNL     1      -7.090  14.621  69.833  1.00  0.00    -0.056 A  
HETATM    5  C   UNL     1      -6.255  13.924  70.679  1.00  0.00    -0.065 A  
HETATM    6  C   UNL     1      -6.199  12.525  70.621  1.00  0.00     0.382 A  
HETATM    7  N   UNL     1     -10.035  14.197  66.225  1.00  0.00    -0.293 NA 
HETATM    8  C   UNL     1      -7.110  11.812  69.808  1.00  0.00     0.289 A  
HETATM    9  C   UNL     1      -7.922  12.561  68.927  1.00  0.00     0.165 A  
HETATM   10  C   UNL     1     -11.142  14.591  65.394  1.00  0.00    -0.345 C  
HETATM   11  H   UNL     1     -10.096  18.436  69.898  1.00  0.00     0.000 HD 
HETATM   12  O   UNL     1      -9.457  17.733  69.866  1.00  0.00     0.772 OA 
HETATM   13  C   UNL     1      -7.825  13.935  68.886  1.00  0.00    -0.022 A  
HETATM   14  C   UNL     1      -8.997  17.442  68.538  1.00  0.00    -0.276 C  
HETATM   15  C   UNL     1     -10.201  17.064  67.667  1.00  0.00    -0.317 C  
HETATM   16  C   UNL     1      -8.425  14.883  67.873  1.00  0.00    -0.154 C  
HETATM   17  C   UNL     1      -9.929  14.595  67.625  1.00  0.00    -0.227 C  
HETATM   18  C   UNL     1     -10.891  15.720  68.115  1.00  0.00    -0.307 C  
HETATM   19  C   UNL     1     -12.238  15.587  67.395  1.00  0.00     0.790 C  
HETATM   20  C   UNL     1      -7.742  14.628  66.499  1.00  0.00     0.957 C  
HETATM   21  C   UNL     1     -12.334  15.071  66.163  1.00  0.00     0.356 C  
HETATM   22  C   UNL     1      -8.768  13.982  65.589  1.00  0.00     1.523 C  
ENDROOT
BRANCH   6  23
HETATM   23  O   UNL     1      -5.290  11.844  71.382  1.00  0.00    -0.324 OA 
HETATM   24  C   UNL     1      -5.403  12.061  72.792  1.00  0.00     0.802 C  
ENDBRANCH   6  23
BRANCH   8  25
HETATM   25  C   UNL     1      -7.287  10.247  69.779  1.00  0.00    -0.167 C  
HETATM   26  C   UNL     1     -10.239   5.928  70.455  1.00  0.00    -0.213 C  
HETATM   27  C   UNL     1      -7.269   7.085  68.235  1.00  0.00    -0.091 C  
HETATM   28  N   UNL     1      -8.821   6.227  70.173  1.00  0.00    -0.148 NA 
HETATM   29  C   UNL     1     -11.275   7.120  70.483  1.00  0.00    -0.290 C  
HETATM   30  C   UNL     1      -7.609   8.463  67.691  1.00  0.00    -0.098 A  
HETATM   31  C   UNL     1     -10.631   8.384  71.125  1.00  0.00    -0.266 C  
HETATM   32  C   UNL     1      -8.309   7.818  65.229  1.00  0.00    -0.128 A  
HETATM   33  O   UNL     1     -12.380   6.731  71.321  1.00  0.00    -0.363 OA 
HETATM   34  C   UNL     1      -8.552   9.939  70.733  1.00  0.00     0.516 C  
HETATM   35  C   UNL     1      -8.399   7.408  70.905  1.00  0.00    -0.115 C  
HETATM   36  H   UNL     1     -13.003   7.448  71.337  1.00  0.00     0.000 HD 
HETATM   37  C   UNL     1      -7.565   9.734  68.302  1.00  0.00    -0.081 A  
HETATM   38  C   UNL     1      -8.786   8.361  64.026  1.00  0.00     0.211 A  
HETATM   39  N   UNL     1      -7.770  10.632  67.271  1.00  0.00    -0.106 NA 
HETATM   40  C   UNL     1      -8.052   8.666  66.326  1.00  0.00    -0.103 A  
HETATM   41  C   UNL     1      -9.249   8.599  70.489  1.00  0.00    -0.201 C  
HETATM   42  C   UNL     1      -8.226  10.028  66.137  1.00  0.00    -0.121 A  
HETATM   43  C   UNL     1      -8.465   6.226  68.739  1.00  0.00    -0.119 C  
HETATM   44  C   UNL     1      -8.719  10.594  64.955  1.00  0.00    -0.178 A  
HETATM   45  H   UNL     1      -7.600  11.635  67.350  1.00  0.00     0.000 HD 
HETATM   46  C   UNL     1      -9.010   9.728  63.901  1.00  0.00    -0.277 A  
BRANCH  25  47
HETATM   47  C   UNL     1      -5.998   9.527  70.264  1.00  0.00    -0.047 C  
HETATM   48  O   UNL     1      -5.697   9.351  71.446  1.00  0.00    -0.064 OA 
BRANCH  47  49
HETATM   49  O   UNL     1      -5.224   9.100  69.214  1.00  0.00    -0.035 OA 
HETATM   50  C   UNL     1      -5.200   7.680  69.021  1.00  0.00    -0.019 C  
ENDBRANCH  47  49
ENDBRANCH  25  47
BRANCH  29  51
HETATM   51  C   UNL     1     -11.848   7.402  69.068  1.00  0.00     1.115 C  
HETATM   52  C   UNL     1     -10.901   7.063  67.917  1.00  0.00    -0.252 C  
ENDBRANCH  29  51
ENDBRANCH   8  25
BRANCH  18  53
HETATM   53  C   UNL     1     -11.184  15.354  69.626  1.00  0.00    -0.289 C  
HETATM   54  C   UNL     1     -12.341  15.908  70.447  1.00  0.00    -0.253 C  
ENDBRANCH  18  53
BRANCH  15  55
HETATM   55  O   UNL     1     -11.208  18.099  67.557  1.00  0.00    -0.089 OA 
BRANCH  55  56
HETATM   56  C   UNL     1     -11.008  18.935  66.488  1.00  0.00     0.020 C  
HETATM   57  O   UNL     1     -10.199  18.768  65.585  1.00  0.00    -0.519 OA 
HETATM   58  C   UNL     1     -12.056  20.022  66.469  1.00  0.00     2.879 C  
ENDBRANCH  55  56
ENDBRANCH  15  55
BRANCH  14  59
HETATM   59  C   UNL     1      -8.307  18.757  68.099  1.00  0.00    -0.306 C  
HETATM   60  O   UNL     1      -8.215  19.777  68.771  1.00  0.00    -0.291 OA 
BRANCH  59  61
HETATM   61  O   UNL     1      -7.928  18.682  66.784  1.00  0.00    -0.239 OA 
HETATM   62  C   UNL     1      -7.148  19.782  66.304  1.00  0.00    -0.252 C  
ENDBRANCH  59  61
ENDBRANCH  14  59
TORSDOF 10
ENDMDL
MODEL       31
REMARK 921   NORMALIZED FREE ENERGY PREDICTED BY IDOCK:    7.30 KCAL/MOL
REMARK 922        TOTAL FREE ENERGY PREDICTED BY IDOCK:   10.41 KCAL/MOL
REMARK 923 INTER-LIGAND FREE ENERGY PREDICTED BY IDOCK:    3.36 KCAL/MOL
REMARK 924 INTRA-LIGAND FREE ENERGY PREDICTED BY IDOCK:    7.05 KCAL/MOL
REMARK 927      BINDING AFFINITY PREDICTED BY RF-SCORE:    0.00 PKD
ROOT
HETATM    1  C   UNL     1      -7.554   7.430  71.161  1.00  0.00    -0.082 C  
HETATM    2  N   UNL     1      -6.685   7.722  69.997  1.00  0.00    -0.044 NA 
HETATM    3  C   UNL     1      -5.322   7.267  69.850  1.00  0.00    -0.023 C  
HETATM    4  C   UNL     1      -7.169   8.862  69.397  1.00  0.00    -0.061 A  
HETATM    5  C   UNL     1      -6.530   9.700  68.508  1.00  0.00    -0.051 A  
HETATM    6  C   UNL     1      -7.222  10.767  67.922  1.00  0.00    -0.087 A  
HETATM    7  N   UNL     1     -11.156   8.157  71.736  1.00  0.00    -0.256 NA 
HETATM    8  C   UNL     1      -8.616  10.899  68.114  1.00  0.00    -0.133 A  
HETATM    9  C   UNL     1      -9.228  10.047  69.062  1.00  0.00    -0.180 A  
HETATM   10  C   UNL     1     -12.144   7.363  72.417  1.00  0.00    -0.149 C  
HETATM   11  H   UNL     1      -7.436   4.142  70.512  1.00  0.00     0.000 HD 
HETATM   12  O   UNL     1      -7.332   5.071  70.340  1.00  0.00    -0.053 OA 
HETATM   13  C   UNL     1      -8.478   9.119  69.752  1.00  0.00    -0.140 A  
HETATM   14  C   UNL     1      -7.725   5.901  71.444  1.00  0.00    -0.107 C  
HETATM   15  C   UNL     1      -9.193   5.615  71.784  1.00  0.00    -0.145 C  
HETATM   16  C   UNL     1      -8.889   8.291  70.947  1.00  0.00    -0.171 C  
HETATM   17  C   UNL     1     -10.260   7.596  70.731  1.00  0.00    -0.201 C  
HETATM   18  C   UNL     1     -10.187   6.041  70.638  1.00  0.00    -0.260 C  
HETATM   19  C   UNL     1     -11.570   5.449  70.932  1.00  0.00     0.808 C  
HETATM   20  C   UNL     1      -9.118   9.249  72.152  1.00  0.00     0.759 C  
HETATM   21  C   UNL     1     -12.446   6.062  71.739  1.00  0.00     0.261 C  
HETATM   22  C   UNL     1     -10.607   9.281  72.436  1.00  0.00     0.742 C  
ENDROOT
BRANCH   6  23
HETATM   23  O   UNL     1      -6.558  11.661  67.128  1.00  0.00    -0.108 OA 
HETATM   24  C   UNL     1      -5.137  11.670  67.290  1.00  0.00    -0.078 C  
ENDBRANCH   6  23
BRANCH   8  25
HETATM   25  C   UNL     1      -9.553  11.931  67.380  1.00  0.00    -0.176 C  
HETATM   26  C   UNL     1     -13.149  15.788  67.500  1.00  0.00     3.758 C  
HETATM   27  C   UNL     1     -10.216  14.636  65.229  1.00  0.00    -0.421 C  
HETATM   28  N   UNL     1     -12.511  14.946  66.468  1.00  0.00     0.228 NA 
HETATM   29  C   UNL     1     -12.637  15.683  68.991  1.00  0.00     0.456 C  
HETATM   30  C   UNL     1      -9.026  14.339  66.127  1.00  0.00     0.117 A  
HETATM   31  C   UNL     1     -12.282  14.207  69.339  1.00  0.00    -0.329 C  
HETATM   32  C   UNL     1      -7.591  16.516  65.713  1.00  0.00     0.940 A  
HETATM   33  O   UNL     1     -13.714  16.081  69.860  1.00  0.00     0.232 OA 
HETATM   34  C   UNL     1     -10.700  12.310  68.452  1.00  0.00    -0.255 C  
HETATM   35  C   UNL     1     -12.314  13.598  66.970  1.00  0.00    -0.232 C  
HETATM   36  H   UNL     1     -13.405  16.017  70.757  1.00  0.00     0.000 HD 
HETATM   37  C   UNL     1      -8.744  13.228  66.949  1.00  0.00    -0.142 A  
HETATM   38  C   UNL     1      -6.403  17.158  66.093  1.00  0.00    -0.032 A  
HETATM   39  N   UNL     1      -7.434  13.407  67.353  1.00  0.00    -0.290 NA 
HETATM   40  C   UNL     1      -7.907  15.251  66.252  1.00  0.00     0.870 A  
HETATM   41  C   UNL     1     -11.421  13.635  68.202  1.00  0.00    -0.348 C  
HETATM   42  C   UNL     1      -6.978  14.667  67.098  1.00  0.00     0.270 A  
HETATM   43  C   UNL     1     -11.325  15.550  65.828  1.00  0.00    -0.039 C  
HETATM   44  C   UNL     1      -5.795  15.293  67.509  1.00  0.00    -0.019 A  
HETATM   45  H   UNL     1      -6.871  12.679  67.793  1.00  0.00     0.000 HD 
HETATM   46  C   UNL     1      -5.530  16.563  66.998  1.00  0.00    -0.087 A  
BRANCH  25  47
HETATM   47  C   UNL     1     -10.146  11.324  66.078  1.00  0.00    -0.239 C  
HETATM   48  O   UNL     1     -11.340  11.345  65.775  1.00  0.00    -0.173 OA 
BRANCH  47  49
HETATM   49  O   UNL     1      -9.176  10.758  65.289  1.00  0.00    -0.188 OA 
HETATM   50  C   UNL     1      -9.188  11.180  63.921  1.00  0.00    -0.119 C  
ENDBRANCH  47  49
ENDBRANCH  25  47
BRANCH  29  51
HETATM   51  C   UNL     1     -11.453  16.653  69.249  1.00  0.00     0.091 C  
HETATM   52  C   UNL     1     -11.211  17.675  68.139  1.00  0.00     0.276 C  
ENDBRANCH  29  51
ENDBRANCH   8  25
BRANCH  18  53
HETATM   53  C   UNL     1      -9.924   5.753  69.105  1.00  0.00    -0.232 C  
HETATM   54  C   UNL     1     -10.245   6.717  67.971  1.00  0.00    -0.200 C  
ENDBRANCH  18  53
BRANCH  15  55
HETATM   55  O   UNL     1      -9.463   4.242  72.159  1.00  0.00    -0.122 OA 
BRANCH  55  56
HETATM   56  C   UNL     1      -8.535   3.357  71.673  1.00  0.00    -0.072 C  
HETATM   57  O   UNL     1      -7.620   2.852  72.308  1.00  0.00    -0.050 OA 
HETATM   58  C   UNL     1      -8.896   2.938  70.268  1.00  0.00    -0.147 C  
ENDBRANCH  55  56
ENDBRANCH  15  55
BRANCH  14  59
HETATM   59  C   UNL     1      -6.741   5.493  72.569  1.00  0.00    -0.075 C  
HETATM   60  O   UNL     1      -6.179   4.409  72.671  1.00  0.00    -0.016 OA 
BRANCH  59  61
HETATM   61  O   UNL     1      -6.686   6.466  73.532  1.00  0.00    -0.073 OA 
HETATM   62  C   UNL     1      -5.371   6.878  73.918  1.00  0.00    -0.046 C  
ENDBRANCH  59  61
ENDBRANCH  14  59
TORSDOF 10
ENDMDL
MODEL       32
REMARK 921   NORMALIZED FREE ENERGY PREDICTED BY IDOCK:    7.64 KCAL/MOL
REMARK 922        TOTAL FREE ENERGY PREDICTED BY IDOCK:   10.96 KCAL/MOL
REMARK 923 INTER-LIGAND FREE ENERGY PREDICTED BY IDOCK:    4.10 KCAL/MOL
REMARK 924 INTRA-LIGAND FREE ENERGY PREDICTED BY IDOCK:    6.86 KCAL/MOL
REMARK 927      BINDING AFFINITY PREDICTED BY RF-SCORE:    0.00 PKD
ROOT
HETATM    1  C   UNL     1     -10.189  15.513  68.106  1.00  0.00    -0.227 C  
HETATM    2  N   UNL     1     -10.559  14.589  67.008  1.00  0.00    -0.276 NA 
HETATM    3  C   UNL     1     -11.680  14.774  66.116  1.00  0.00    -0.255 C  
HETATM    4  C   UNL     1     -10.035  13.355  67.314  1.00  0.00    -0.232 A  
HETATM    5  C   UNL     1     -10.377  12.125  66.793  1.00  0.00    -0.237 A  
HETATM    6  C   UNL     1      -9.659  10.979  67.158  1.00  0.00    -0.169 A  
HETATM    7  N   UNL     1      -7.235  15.525  70.367  1.00  0.00     0.395 NA 
HETATM    8  C   UNL     1      -8.484  11.096  67.936  1.00  0.00    -0.131 A  
HETATM    9  C   UNL     1      -8.188  12.365  68.483  1.00  0.00    -0.086 A  
HETATM   10  C   UNL     1      -6.500  16.645  70.892  1.00  0.00     1.636 C  
HETATM   11  H   UNL     1      -9.602  17.986  65.918  1.00  0.00     0.000 HD 
HETATM   12  O   UNL     1      -9.753  17.094  66.208  1.00  0.00    -0.276 OA 
HETATM   13  C   UNL     1      -9.018  13.439  68.245  1.00  0.00    -0.176 A  
HETATM   14  C   UNL     1      -9.940  16.982  67.627  1.00  0.00    -0.280 C  
HETATM   15  C   UNL     1      -8.702  17.539  68.339  1.00  0.00    -0.276 C  
HETATM   16  C   UNL     1      -9.004  14.794  68.913  1.00  0.00    -0.167 C  
HETATM   17  C   UNL     1      -7.580  15.409  68.954  1.00  0.00    -0.164 C  
HETATM   18  C   UNL     1      -7.403  16.686  68.076  1.00  0.00    -0.162 C  
HETATM   19  C   UNL     1      -6.182  17.473  68.566  1.00  0.00    -0.176 C  
HETATM   20  C   UNL     1      -9.398  14.609  70.406  1.00  0.00     1.394 C  
HETATM   21  C   UNL     1      -5.785  17.442  69.845  1.00  0.00    -0.236 C  
HETATM   22  C   UNL     1      -8.160  14.867  71.243  1.00  0.00     3.334 C  
ENDROOT
BRANCH   6  23
HETATM   23  O   UNL     1     -10.069   9.747  66.729  1.00  0.00    -0.206 OA 
HETATM   24  C   UNL     1     -10.367   9.666  65.332  1.00  0.00     0.358 C  
ENDBRANCH   6  23
BRANCH   8  25
HETATM   25  C   UNL     1      -7.480   9.928  68.269  1.00  0.00    -0.080 C  
HETATM   26  C   UNL     1      -5.398   6.465  71.660  1.00  0.00    -0.027 C  
HETATM   27  C   UNL     1      -6.103   6.717  67.848  1.00  0.00    -0.032 C  
HETATM   28  N   UNL     1      -5.127   6.913  70.279  1.00  0.00    -0.015 NA 
HETATM   29  C   UNL     1      -6.686   7.010  72.396  1.00  0.00    -0.057 C  
HETATM   30  C   UNL     1      -7.524   7.228  67.674  1.00  0.00    -0.101 A  
HETATM   31  C   UNL     1      -6.930   8.503  72.028  1.00  0.00    -0.102 C  
HETATM   32  C   UNL     1      -8.745   4.970  67.058  1.00  0.00    -0.103 A  
HETATM   33  O   UNL     1      -6.445   6.953  73.814  1.00  0.00    -0.067 OA 
HETATM   34  C   UNL     1      -7.306   9.955  69.874  1.00  0.00    -0.147 C  
HETATM   35  C   UNL     1      -5.363   8.341  70.157  1.00  0.00    -0.022 C  
HETATM   36  H   UNL     1      -7.220   7.280  74.257  1.00  0.00     0.000 HD 
HETATM   37  C   UNL     1      -8.060   8.527  67.795  1.00  0.00    -0.115 A  
HETATM   38  C   UNL     1     -10.004   4.427  66.761  1.00  0.00    -0.223 A  
HETATM   39  N   UNL     1      -9.353   8.426  67.315  1.00  0.00    -0.142 NA 
HETATM   40  C   UNL     1      -8.619   6.353  67.308  1.00  0.00    -0.110 A  
HETATM   41  C   UNL     1      -6.812   8.652  70.503  1.00  0.00    -0.042 C  
HETATM   42  C   UNL     1      -9.759   7.131  67.183  1.00  0.00    -0.164 A  
HETATM   43  C   UNL     1      -5.758   6.087  69.229  1.00  0.00    -0.016 C  
HETATM   44  C   UNL     1     -11.031   6.613  66.907  1.00  0.00    -0.396 A  
HETATM   45  H   UNL     1      -9.937   9.230  67.085  1.00  0.00     0.000 HD 
HETATM   46  C   UNL     1     -11.134   5.236  66.711  1.00  0.00     0.308 A  
BRANCH  25  47
HETATM   47  C   UNL     1      -6.129  10.122  67.529  1.00  0.00    -0.057 C  
HETATM   48  O   UNL     1      -5.163  10.740  67.982  1.00  0.00    -0.037 OA 
BRANCH  47  49
HETATM   49  O   UNL     1      -6.127   9.517  66.297  1.00  0.00    -0.058 OA 
HETATM   50  C   UNL     1      -6.110  10.416  65.182  1.00  0.00    -0.124 C  
ENDBRANCH  47  49
ENDBRANCH  25  47
BRANCH  29  51
HETATM   51  C   UNL     1      -7.922   6.118  72.102  1.00  0.00    -0.109 C  
HETATM   52  C   UNL     1      -8.045   4.883  72.993  1.00  0.00    -0.101 C  
ENDBRANCH  29  51
ENDBRANCH   8  25
BRANCH  18  53
HETATM   53  C   UNL     1      -7.000  16.128  66.652  1.00  0.00     0.035 C  
HETATM   54  C   UNL     1      -6.267  16.925  65.581  1.00  0.00     1.427 C  
ENDBRANCH  18  53
BRANCH  15  55
HETATM   55  O   UNL     1      -8.421  18.930  68.049  1.00  0.00    -0.279 OA 
BRANCH  55  56
HETATM   56  C   UNL     1      -8.427  19.725  69.166  1.00  0.00     0.057 C  
HETATM   57  O   UNL     1      -9.328  19.800  69.992  1.00  0.00     0.327 OA 
HETATM   58  C   UNL     1      -7.081  20.382  69.351  1.00  0.00     0.177 C  
ENDBRANCH  55  56
ENDBRANCH  15  55
BRANCH  14  59
HETATM   59  C   UNL     1     -11.225  17.810  67.886  1.00  0.00     0.282 C  
HETATM   60  O   UNL     1     -12.284  17.372  68.318  1.00  0.00     1.491 OA 
BRANCH  59  61
HETATM   61  O   UNL     1     -11.067  19.091  67.429  1.00  0.00    -0.395 OA 
HETATM   62  C   UNL     1     -10.832  19.220  66.023  1.00  0.00    -0.272 C  
ENDBRANCH  59  61
ENDBRANCH  14  59
TORSDOF 10
ENDMDL
MODEL       33
REMARK 921   NORMALIZED FREE ENERGY PREDICTED BY IDOCK:   10.52 KCAL/MOL
REMARK 922        TOTAL FREE ENERGY PREDICTED BY IDOCK:   15.52 KCAL/MOL
REMARK 923 INTER-LIGAND FREE ENERGY PREDICTED BY IDOCK:   16.09 KCAL/MOL
REMARK 924 INTRA-LIGAND FREE ENERGY PREDICTED BY IDOCK:   -0.58 KCAL/MOL
REMARK 927      BINDING AFFINITY PREDICTED BY RF-SCORE:    0.00 PKD
ROOT
HETATM    1  C   UNL     1      -9.262   7.892  68.697  1.00  0.00    -0.142 C  
HETATM    2  N   UNL     1      -9.497   8.873  69.782  1.00  0.00    -0.166 NA 
HETATM    3  C   UNL     1      -9.773   8.532  71.158  1.00  0.00    -0.201 C  
HETATM    4  C   UNL     1      -9.922  10.043  69.195  1.00  0.00    -0.204 A  
HETATM    5  C   UNL     1     -10.569  11.110  69.780  1.00  0.00     0.020 A  
HETATM    6  C   UNL     1     -10.838  12.266  69.037  1.00  0.00    -0.150 A  
HETATM    7  N   UNL     1      -8.228   8.395  65.159  1.00  0.00    -0.149 NA 
HETATM    8  C   UNL     1     -10.310  12.411  67.734  1.00  0.00    -0.222 A  
HETATM    9  C   UNL     1      -9.686  11.282  67.153  1.00  0.00    -0.201 A  
HETATM   10  C   UNL     1      -7.362   7.585  64.344  1.00  0.00    -0.088 C  
HETATM   11  H   UNL     1      -6.513   6.744  70.238  1.00  0.00     0.000 HD 
HETATM   12  O   UNL     1      -7.227   7.344  70.057  1.00  0.00    -0.070 OA 
HETATM   13  C   UNL     1      -9.595  10.099  67.854  1.00  0.00    -0.166 A  
HETATM   14  C   UNL     1      -8.085   6.903  68.994  1.00  0.00    -0.117 C  
HETATM   15  C   UNL     1      -7.249   6.723  67.722  1.00  0.00    -0.091 C  
HETATM   16  C   UNL     1      -9.182   8.740  67.338  1.00  0.00    -0.158 C  
HETATM   17  C   UNL     1      -7.870   8.803  66.514  1.00  0.00    -0.103 C  
HETATM   18  C   UNL     1      -6.657   8.077  67.174  1.00  0.00    -0.057 C  
HETATM   19  C   UNL     1      -5.607   7.764  66.101  1.00  0.00    -0.032 C  
HETATM   20  C   UNL     1     -10.260   8.251  66.329  1.00  0.00     0.022 C  
HETATM   21  C   UNL     1      -5.943   7.546  64.823  1.00  0.00    -0.038 C  
HETATM   22  C   UNL     1      -9.641   8.283  64.945  1.00  0.00     1.338 C  
ENDROOT
BRANCH   6  23
HETATM   23  O   UNL     1     -11.577  13.277  69.586  1.00  0.00    -0.285 OA 
HETATM   24  C   UNL     1     -12.898  12.905  69.990  1.00  0.00     0.482 C  
ENDBRANCH   6  23
BRANCH   8  25
HETATM   25  C   UNL     1     -10.373  13.716  66.854  1.00  0.00    -0.262 C  
HETATM   26  C   UNL     1     -11.911  18.707  66.114  1.00  0.00     3.218 C  
HETATM   27  C   UNL     1      -8.971  16.399  65.059  1.00  0.00     2.439 C  
HETATM   28  N   UNL     1     -11.266  17.651  65.309  1.00  0.00    -0.121 NA 
HETATM   29  C   UNL     1     -12.169  18.441  67.650  1.00  0.00     3.778 C  
HETATM   30  C   UNL     1      -8.491  15.665  66.302  1.00  0.00    -0.187 A  
HETATM   31  C   UNL     1     -12.586  16.958  67.881  1.00  0.00     3.152 C  
HETATM   32  C   UNL     1      -6.311  17.055  66.836  1.00  0.00    -0.242 A  
HETATM   33  O   UNL     1     -13.273  19.266  68.066  1.00  0.00     4.836 OA 
HETATM   34  C   UNL     1     -11.628  14.558  67.422  1.00  0.00    -0.406 C  
HETATM   35  C   UNL     1     -11.831  16.353  65.634  1.00  0.00     1.329 C  
HETATM   36  H   UNL     1     -13.427  19.106  68.990  1.00  0.00     0.000 HD 
HETATM   37  C   UNL     1      -9.033  14.557  66.987  1.00  0.00    -0.240 A  
HETATM   38  C   UNL     1      -5.255  17.166  67.753  1.00  0.00    -0.125 A  
HETATM   39  N   UNL     1      -8.062  14.197  67.904  1.00  0.00    -0.140 NA 
HETATM   40  C   UNL     1      -7.281  16.044  67.003  1.00  0.00    -0.249 A  
HETATM   41  C   UNL     1     -11.611  16.055  67.110  1.00  0.00     0.377 C  
HETATM   42  C   UNL     1      -7.102  15.153  68.049  1.00  0.00    -0.128 A  
HETATM   43  C   UNL     1      -9.790  17.701  65.297  1.00  0.00     1.029 C  
HETATM   44  C   UNL     1      -6.069  15.252  68.990  1.00  0.00    -0.099 A  
HETATM   45  H   UNL     1      -8.065  13.313  68.415  1.00  0.00     0.000 HD 
HETATM   46  C   UNL     1      -5.151  16.289  68.828  1.00  0.00    -0.104 A  
BRANCH  25  47
HETATM   47  C   UNL     1     -10.533  13.370  65.348  1.00  0.00    -0.302 C  
HETATM   48  O   UNL     1      -9.635  13.465  64.508  1.00  0.00     0.119 OA 
BRANCH  47  49
HETATM   49  O   UNL     1     -11.801  12.936  65.053  1.00  0.00    -0.333 OA 
HETATM   50  C   UNL     1     -12.513  13.747  64.111  1.00  0.00    -0.240 C  
ENDBRANCH  47  49
ENDBRANCH  25  47
BRANCH  29  51
HETATM   51  C   UNL     1     -10.940  18.849  68.506  1.00  0.00     0.615 C  
HETATM   52  C   UNL     1     -10.519  20.311  68.362  1.00  0.00    -0.228 C  
ENDBRANCH  29  51
ENDBRANCH   8  25
BRANCH  18  53
HETATM   53  C   UNL     1      -5.998   9.177  68.099  1.00  0.00    -0.045 C  
HETATM   54  C   UNL     1      -6.035  10.676  67.830  1.00  0.00    -0.043 C  
ENDBRANCH  18  53
BRANCH  15  55
HETATM   55  O   UNL     1      -6.179   5.753  67.842  1.00  0.00    -0.027 OA 
BRANCH  55  56
HETATM   56  C   UNL     1      -6.412   4.602  67.136  1.00  0.00    -0.042 C  
HETATM   57  O   UNL     1      -7.507   4.098  66.920  1.00  0.00    -0.075 OA 
HETATM   58  C   UNL     1      -5.138   4.115  66.490  1.00  0.00    -0.008 C  
ENDBRANCH  55  56
ENDBRANCH  15  55
BRANCH  14  59
HETATM   59  C   UNL     1      -8.678   5.579  69.536  1.00  0.00    -0.104 C  
HETATM   60  O   UNL     1      -9.858   5.252  69.494  1.00  0.00    -0.163 OA 
BRANCH  59  61
HETATM   61  O   UNL     1      -7.721   4.866  70.208  1.00  0.00    -0.060 OA 
HETATM   62  C   UNL     1      -7.812   3.443  70.087  1.00  0.00    -0.046 C  
ENDBRANCH  59  61
ENDBRANCH  14  59
TORSDOF 10
ENDMDL
MODEL       34
REMARK 921   NORMALIZED FREE ENERGY PREDICTED BY IDOCK:   10.54 KCAL/MOL
REMARK 922        TOTAL FREE ENERGY PREDICTED BY IDOCK:   15.54 KCAL/MOL
REMARK 923 INTER-LIGAND FREE ENERGY PREDICTED BY IDOCK:   16.01 KCAL/MOL
REMARK 924 INTRA-LIGAND FREE ENERGY PREDICTED BY IDOCK:   -0.46 KCAL/MOL
REMARK 927      BINDING AFFINITY PREDICTED BY RF-SCORE:    0.00 PKD
ROOT
HETATM    1  C   UNL     1      -9.532  10.497  65.679  1.00  0.00    -0.210 C  
HETATM    2  N   UNL     1     -10.698  11.264  65.183  1.00  0.00    -0.274 NA 
HETATM    3  C   UNL     1     -11.597  10.819  64.144  1.00  0.00     1.502 C  
HETATM    4  C   UNL     1     -10.469  12.591  65.465  1.00  0.00    -0.279 A  
HETATM    5  C   UNL     1     -11.081  13.701  64.923  1.00  0.00    -0.356 A  
HETATM    6  C   UNL     1     -10.783  14.980  65.409  1.00  0.00    -0.374 A  
HETATM    7  N   UNL     1      -7.216  11.173  68.511  1.00  0.00    -0.082 NA 
HETATM    8  C   UNL     1      -9.975  15.131  66.559  1.00  0.00    -0.279 A  
HETATM    9  C   UNL     1      -9.334  13.976  67.063  1.00  0.00    -0.256 A  
HETATM   10  C   UNL     1      -6.599  10.243  69.420  1.00  0.00    -0.058 C  
HETATM   11  H   UNL     1     -11.529   8.036  66.776  1.00  0.00     0.000 HD 
HETATM   12  O   UNL     1     -11.305   8.903  66.457  1.00  0.00     1.052 OA 
HETATM   13  C   UNL     1      -9.514  12.755  66.449  1.00  0.00    -0.229 A  
HETATM   14  C   UNL     1      -9.901   9.070  66.205  1.00  0.00    -0.291 C  
HETATM   15  C   UNL     1      -9.128   8.797  67.501  1.00  0.00    -0.133 C  
HETATM   16  C   UNL     1      -8.753  11.471  66.687  1.00  0.00    -0.182 C  
HETATM   17  C   UNL     1      -8.640  11.132  68.197  1.00  0.00    -0.140 C  
HETATM   18  C   UNL     1      -9.423   9.855  68.631  1.00  0.00    -0.153 C  
HETATM   19  C   UNL     1      -8.855   9.338  69.958  1.00  0.00    -0.212 C  
HETATM   20  C   UNL     1      -7.284  11.678  66.218  1.00  0.00     0.232 C  
HETATM   21  C   UNL     1      -7.574   9.524  70.301  1.00  0.00    -0.162 C  
HETATM   22  C   UNL     1      -6.407  11.706  67.454  1.00  0.00    -0.100 C  
ENDROOT
BRANCH   6  23
HETATM   23  O   UNL     1     -11.305  16.085  64.796  1.00  0.00    -0.376 OA 
HETATM   24  C   UNL     1     -12.212  15.807  63.725  1.00  0.00     0.679 C  
ENDBRANCH   6  23
BRANCH   8  25
HETATM   25  C   UNL     1      -9.704  16.482  67.323  1.00  0.00    -0.247 C  
HETATM   26  C   UNL     1      -7.148  19.264  71.004  1.00  0.00     1.676 C  
HETATM   27  C   UNL     1      -8.789  19.873  67.536  1.00  0.00    -0.411 C  
HETATM   28  N   UNL     1      -8.282  19.486  70.084  1.00  0.00     0.884 NA 
HETATM   29  C   UNL     1      -6.327  17.920  70.887  1.00  0.00     1.413 C  
HETATM   30  C   UNL     1      -8.322  18.767  66.604  1.00  0.00    -0.296 A  
HETATM   31  C   UNL     1      -7.278  16.729  70.566  1.00  0.00     2.276 C  
HETATM   32  C   UNL     1      -6.503  20.081  65.214  1.00  0.00    -0.310 A  
HETATM   33  O   UNL     1      -5.726  17.653  72.168  1.00  0.00     0.615 OA 
HETATM   34  C   UNL     1      -9.021  16.056  68.722  1.00  0.00    -0.226 C  
HETATM   35  C   UNL     1      -9.074  18.275  69.960  1.00  0.00     1.817 C  
HETATM   36  H   UNL     1      -5.231  16.845  72.098  1.00  0.00     0.000 HD 
HETATM   37  C   UNL     1      -8.731  17.421  66.491  1.00  0.00    -0.260 A  
HETATM   38  C   UNL     1      -5.552  19.927  64.194  1.00  0.00    -0.276 A  
HETATM   39  N   UNL     1      -8.122  16.959  65.338  1.00  0.00     0.663 NA 
HETATM   40  C   UNL     1      -7.302  18.983  65.598  1.00  0.00    -0.148 A  
HETATM   41  C   UNL     1      -8.207  17.149  69.416  1.00  0.00     0.311 C  
HETATM   42  C   UNL     1      -7.147  17.801  64.892  1.00  0.00     2.391 A  
HETATM   43  C   UNL     1      -7.919  20.124  68.802  1.00  0.00     0.121 C  
HETATM   44  C   UNL     1      -6.193  17.615  63.884  1.00  0.00     4.721 A  
HETATM   45  H   UNL     1      -8.374  16.086  64.874  1.00  0.00     0.000 HD 
HETATM   46  C   UNL     1      -5.384  18.703  63.555  1.00  0.00     0.007 A  
BRANCH  25  47
HETATM   47  C   UNL     1     -11.020  17.282  67.532  1.00  0.00    -0.102 C  
HETATM   48  O   UNL     1     -11.303  18.331  66.951  1.00  0.00     0.352 OA 
BRANCH  47  49
HETATM   49  O   UNL     1     -11.846  16.678  68.447  1.00  0.00     0.064 OA 
HETATM   50  C   UNL     1     -12.460  15.464  67.998  1.00  0.00     0.852 C  
ENDBRANCH  47  49
ENDBRANCH  25  47
BRANCH  29  51
HETATM   51  C   UNL     1      -5.175  18.052  69.855  1.00  0.00    -0.209 C  
HETATM   52  C   UNL     1      -5.296  17.131  68.642  1.00  0.00    -0.133 C  
ENDBRANCH  29  51
ENDBRANCH   8  25
BRANCH  18  53
HETATM   53  C   UNL     1     -10.874  10.383  68.973  1.00  0.00    -0.273 C  
HETATM   54  C   UNL     1     -11.334  10.833  70.353  1.00  0.00    -0.342 C  
ENDBRANCH  18  53
BRANCH  15  55
HETATM   55  O   UNL     1      -9.314   7.465  68.039  1.00  0.00    -0.135 OA 
BRANCH  55  56
HETATM   56  C   UNL     1      -8.208   6.667  67.897  1.00  0.00    -0.120 C  
HETATM   57  O   UNL     1      -7.242   6.895  67.180  1.00  0.00    -0.080 OA 
HETATM   58  C   UNL     1      -8.250   5.531  68.890  1.00  0.00    -0.099 C  
ENDBRANCH  55  56
ENDBRANCH  15  55
BRANCH  14  59
HETATM   59  C   UNL     1      -9.611   8.040  65.085  1.00  0.00     1.165 C  
HETATM   60  O   UNL     1      -9.761   6.827  65.170  1.00  0.00     1.052 OA 
BRANCH  59  61
HETATM   61  O   UNL     1      -9.018   8.654  64.013  1.00  0.00     0.105 OA 
HETATM   62  C   UNL     1      -7.624   8.382  63.839  1.00  0.00    -0.135 C  
ENDBRANCH  59  61
ENDBRANCH  14  59
TORSDOF 10
ENDMDL
MODEL       35
REMARK 921   NORMALIZED FREE ENERGY PREDICTED BY IDOCK:   10.55 KCAL/MOL
REMARK 922        TOTAL FREE ENERGY PREDICTED BY IDOCK:   15.57 KCAL/MOL
REMARK 923 INTER-LIGAND FREE ENERGY PREDICTED BY IDOCK:   11.42 KCAL/MOL
REMARK 924 INTRA-LIGAND FREE ENERGY PREDICTED BY IDOCK:    4.16 KCAL/MOL
REMARK 927      BINDING AFFINITY PREDICTED BY RF-SCORE:    0.00 PKD
ROOT
HETATM    1  C   UNL     1     -10.286   7.244  70.614  1.00  0.00    -0.204 C  
HETATM    2  N   UNL     1     -10.875   8.316  71.450  1.00  0.00    -0.231 NA 
HETATM    3  C   UNL     1     -11.772   8.098  72.560  1.00  0.00    -0.394 C  
HETATM    4  C   UNL     1     -10.864   9.473  70.705  1.00  0.00    -0.318 A  
HETATM    5  C   UNL     1     -11.587  10.630  70.907  1.00  0.00    -0.311 A  
HETATM    6  C   UNL     1     -11.369  11.749  70.094  1.00  0.00     0.051 A  
HETATM    7  N   UNL     1      -7.732   7.406  67.914  1.00  0.00    -0.114 NA 
HETATM    8  C   UNL     1     -10.302  11.756  69.167  1.00  0.00    -0.008 A  
HETATM    9  C   UNL     1      -9.610  10.540  68.960  1.00  0.00    -0.213 A  
HETATM   10  C   UNL     1      -6.686   6.470  67.599  1.00  0.00    -0.067 C  
HETATM   11  H   UNL     1      -8.657   5.981  73.259  1.00  0.00     0.000 HD 
HETATM   12  O   UNL     1      -9.147   6.625  72.760  1.00  0.00    -0.137 OA 
HETATM   13  C   UNL     1      -9.969   9.406  69.656  1.00  0.00    -0.209 A  
HETATM   14  C   UNL     1      -9.480   6.184  71.435  1.00  0.00    -0.156 C  
HETATM   15  C   UNL     1      -8.188   5.844  70.684  1.00  0.00    -0.120 C  
HETATM   16  C   UNL     1      -9.517   7.984  69.417  1.00  0.00    -0.159 C  
HETATM   17  C   UNL     1      -7.976   7.877  69.273  1.00  0.00    -0.117 C  
HETATM   18  C   UNL     1      -7.273   7.100  70.428  1.00  0.00    -0.070 C  
HETATM   19  C   UNL     1      -5.894   6.625  69.954  1.00  0.00    -0.019 C  
HETATM   20  C   UNL     1     -10.075   7.517  68.042  1.00  0.00    -0.221 C  
HETATM   21  C   UNL     1      -5.644   6.346  68.668  1.00  0.00    -0.015 C  
HETATM   22  C   UNL     1      -8.903   7.399  67.087  1.00  0.00    -0.125 C  
ENDROOT
BRANCH   6  23
HETATM   23  O   UNL     1     -12.163  12.855  70.224  1.00  0.00    -0.339 OA 
HETATM   24  C   UNL     1     -13.553  12.578  70.415  1.00  0.00     2.027 C  
ENDBRANCH   6  23
BRANCH   8  25
HETATM   25  C   UNL     1      -9.825  12.996  68.321  1.00  0.00    -0.225 C  
HETATM   26  C   UNL     1     -10.664  16.631  64.592  1.00  0.00     0.262 C  
HETATM   27  C   UNL     1      -8.669  16.294  67.907  1.00  0.00    -0.175 C  
HETATM   28  N   UNL     1      -9.529  16.192  65.428  1.00  0.00    -0.339 NA 
HETATM   29  C   UNL     1     -12.090  16.002  64.855  1.00  0.00     0.587 C  
HETATM   30  C   UNL     1      -9.596  15.680  68.944  1.00  0.00    -0.224 A  
HETATM   31  C   UNL     1     -11.958  14.491  65.210  1.00  0.00    -0.353 C  
HETATM   32  C   UNL     1     -10.215  17.838  70.333  1.00  0.00     1.573 A  
HETATM   33  O   UNL     1     -12.847  16.090  63.633  1.00  0.00    -0.287 OA 
HETATM   34  C   UNL     1     -10.750  12.997  66.998  1.00  0.00    -0.270 C  
HETATM   35  C   UNL     1      -9.557  14.750  65.597  1.00  0.00    -0.200 C  
HETATM   36  H   UNL     1     -13.704  15.711  63.791  1.00  0.00     0.000 HD 
HETATM   37  C   UNL     1     -10.015  14.347  69.134  1.00  0.00    -0.069 A  
HETATM   38  C   UNL     1     -10.991  18.286  71.413  1.00  0.00     3.136 A  
HETATM   39  N   UNL     1     -10.673  14.350  70.350  1.00  0.00    -0.319 NA 
HETATM   40  C   UNL     1     -10.219  16.470  69.987  1.00  0.00     0.148 A  
HETATM   41  C   UNL     1     -10.857  14.338  66.271  1.00  0.00    -0.310 C  
HETATM   42  C   UNL     1     -10.954  15.610  70.787  1.00  0.00    -0.311 A  
HETATM   43  C   UNL     1      -9.350  16.960  66.677  1.00  0.00    -0.258 C  
HETATM   44  C   UNL     1     -11.751  16.032  71.858  1.00  0.00    -0.594 A  
HETATM   45  H   UNL     1     -10.921  13.504  70.863  1.00  0.00     0.000 HD 
HETATM   46  C   UNL     1     -11.766  17.396  72.149  1.00  0.00     1.712 A  
BRANCH  25  47
HETATM   47  C   UNL     1      -8.313  12.893  67.979  1.00  0.00    -0.169 C  
HETATM   48  O   UNL     1      -7.539  12.065  68.463  1.00  0.00    -0.118 OA 
BRANCH  47  49
HETATM   49  O   UNL     1      -7.930  13.839  67.061  1.00  0.00    -0.093 OA 
HETATM   50  C   UNL     1      -6.524  14.114  67.028  1.00  0.00     1.034 C  
ENDBRANCH  47  49
ENDBRANCH  25  47
BRANCH  29  51
HETATM   51  C   UNL     1     -12.867  16.799  65.937  1.00  0.00     6.072 C  
HETATM   52  C   UNL     1     -12.526  16.418  67.377  1.00  0.00     2.457 C  
ENDBRANCH  29  51
ENDBRANCH   8  25
BRANCH  18  53
HETATM   53  C   UNL     1      -6.983   8.204  71.523  1.00  0.00    -0.062 C  
HETATM   54  C   UNL     1      -6.055   8.023  72.717  1.00  0.00    -0.061 C  
ENDBRANCH  18  53
BRANCH  15  55
HETATM   55  O   UNL     1      -7.396   4.798  71.299  1.00  0.00    -0.063 OA 
BRANCH  55  56
HETATM   56  C   UNL     1      -7.208   3.713  70.483  1.00  0.00    -0.041 C  
HETATM   57  O   UNL     1      -7.833   3.463  69.461  1.00  0.00    -0.050 OA 
HETATM   58  C   UNL     1      -5.987   2.937  70.916  1.00  0.00    -0.018 C  
ENDBRANCH  55  56
ENDBRANCH  15  55
BRANCH  14  59
HETATM   59  C   UNL     1     -10.391   4.955  71.684  1.00  0.00    -0.170 C  
HETATM   60  O   UNL     1     -10.649   4.077  70.869  1.00  0.00     0.369 OA 
BRANCH  59  61
HETATM   61  O   UNL     1     -10.999   5.051  72.908  1.00  0.00    -0.242 OA 
HETATM   62  C   UNL     1     -12.226   4.327  73.046  1.00  0.00     0.557 C  
ENDBRANCH  59  61
ENDBRANCH  14  59
TORSDOF 10
ENDMDL
MODEL       36
REMARK 921   NORMALIZED FREE ENERGY PREDICTED BY IDOCK:   13.24 KCAL/MOL
REMARK 922        TOTAL FREE ENERGY PREDICTED BY IDOCK:   19.82 KCAL/MOL
REMARK 923 INTER-LIGAND FREE ENERGY PREDICTED BY IDOCK:   15.96 KCAL/MOL
REMARK 924 INTRA-LIGAND FREE ENERGY PREDICTED BY IDOCK:    3.86 KCAL/MOL
REMARK 927      BINDING AFFINITY PREDICTED BY RF-SCORE:    0.00 PKD
ROOT
HETATM    1  C   UNL     1      -8.505  14.527  68.303  1.00  0.00    -0.161 C  
HETATM    2  N   UNL     1      -7.240  13.758  68.323  1.00  0.00    -0.101 NA 
HETATM    3  C   UNL     1      -5.967  14.249  67.848  1.00  0.00    -0.136 C  
HETATM    4  C   UNL     1      -7.570  12.422  68.350  1.00  0.00    -0.129 A  
HETATM    5  C   UNL     1      -6.776  11.337  68.046  1.00  0.00    -0.062 A  
HETATM    6  C   UNL     1      -7.260  10.035  68.228  1.00  0.00    -0.077 A  
HETATM    7  N   UNL     1     -11.854  13.717  69.706  1.00  0.00    -0.312 NA 
HETATM    8  C   UNL     1      -8.502   9.824  68.869  1.00  0.00    -0.129 A  
HETATM    9  C   UNL     1      -9.304  10.959  69.130  1.00  0.00    -0.096 A  
HETATM   10  C   UNL     1     -12.818  14.594  70.316  1.00  0.00    -0.206 C  
HETATM   11  H   UNL     1      -7.229  16.811  70.401  1.00  0.00     0.000 HD 
HETATM   12  O   UNL     1      -7.282  15.983  69.938  1.00  0.00    -0.058 OA 
HETATM   13  C   UNL     1      -8.867  12.217  68.776  1.00  0.00     0.134 A  
HETATM   14  C   UNL     1      -8.418  15.892  69.065  1.00  0.00    -0.242 C  
HETATM   15  C   UNL     1      -9.696  16.089  69.888  1.00  0.00     0.066 C  
HETATM   16  C   UNL     1      -9.655  13.506  68.757  1.00  0.00     0.009 C  
HETATM   17  C   UNL     1     -10.443  13.728  70.076  1.00  0.00     0.954 C  
HETATM   18  C   UNL     1      -9.945  14.934  70.930  1.00  0.00     1.209 C  
HETATM   19  C   UNL     1     -11.055  15.364  71.897  1.00  0.00    -0.241 C  
HETATM   20  C   UNL     1     -10.750  13.396  67.657  1.00  0.00    -0.257 C  
HETATM   21  C   UNL     1     -12.352  15.201  71.604  1.00  0.00    -0.415 C  
HETATM   22  C   UNL     1     -12.093  13.303  68.354  1.00  0.00    -0.209 C  
ENDROOT
BRANCH   6  23
HETATM   23  O   UNL     1      -6.515   8.963  67.822  1.00  0.00    -0.059 OA 
HETATM   24  C   UNL     1      -5.422   9.284  66.956  1.00  0.00    -0.040 C  
ENDBRANCH   6  23
BRANCH   8  25
HETATM   25  C   UNL     1      -9.089   8.427  69.303  1.00  0.00    -0.150 C  
HETATM   26  C   UNL     1      -9.216   4.300  72.585  1.00  0.00    -0.114 C  
HETATM   27  C   UNL     1     -11.665   6.236  70.274  1.00  0.00    -0.289 C  
HETATM   28  N   UNL     1      -9.824   4.661  71.289  1.00  0.00    -0.181 NA 
HETATM   29  C   UNL     1      -8.363   5.385  73.353  1.00  0.00    -0.114 C  
HETATM   30  C   UNL     1     -11.464   7.721  70.530  1.00  0.00    -0.219 A  
HETATM   31  C   UNL     1      -7.536   6.237  72.345  1.00  0.00    -0.093 C  
HETATM   32  C   UNL     1     -13.576   8.212  72.036  1.00  0.00    -0.331 A  
HETATM   33  O   UNL     1      -7.426   4.696  74.201  1.00  0.00    -0.076 OA 
HETATM   34  C   UNL     1      -7.965   7.765  70.255  1.00  0.00    -0.100 C  
HETATM   35  C   UNL     1      -8.876   5.403  70.477  1.00  0.00    -0.134 C  
HETATM   36  H   UNL     1      -6.913   5.349  74.663  1.00  0.00     0.000 HD 
HETATM   37  C   UNL     1     -10.454   8.604  70.094  1.00  0.00    -0.217 A  
HETATM   38  C   UNL     1     -14.220   9.228  72.757  1.00  0.00     0.002 A  
HETATM   39  N   UNL     1     -10.905   9.863  70.450  1.00  0.00    -0.298 NA 
HETATM   40  C   UNL     1     -12.393   8.500  71.324  1.00  0.00    -0.301 A  
HETATM   41  C   UNL     1      -8.466   6.676  71.204  1.00  0.00    -0.126 C  
HETATM   42  C   UNL     1     -11.953   9.814  71.320  1.00  0.00    -0.386 A  
HETATM   43  C   UNL     1     -11.167   5.268  71.387  1.00  0.00     0.202 C  
HETATM   44  C   UNL     1     -12.565  10.843  72.045  1.00  0.00    -0.065 A  
HETATM   45  H   UNL     1     -10.497  10.730  70.100  1.00  0.00     0.000 HD 
HETATM   46  C   UNL     1     -13.707  10.521  72.779  1.00  0.00     1.035 A  
BRANCH  25  47
HETATM   47  C   UNL     1      -9.404   7.542  68.066  1.00  0.00    -0.139 C  
HETATM   48  O   UNL     1     -10.134   6.549  68.082  1.00  0.00    -0.140 OA 
BRANCH  47  49
HETATM   49  O   UNL     1      -8.774   7.999  66.936  1.00  0.00    -0.124 OA 
HETATM   50  C   UNL     1      -8.469   6.990  65.965  1.00  0.00    -0.139 C  
ENDBRANCH  47  49
ENDBRANCH  25  47
BRANCH  29  51
HETATM   51  C   UNL     1      -9.259   6.260  74.270  1.00  0.00    -0.173 C  
HETATM   52  C   UNL     1      -9.233   7.754  73.951  1.00  0.00    -0.255 C  
ENDBRANCH  29  51
ENDBRANCH   8  25
BRANCH  18  53
HETATM   53  C   UNL     1      -8.806  14.323  71.843  1.00  0.00     7.526 C  
HETATM   54  C   UNL     1      -8.062  15.085  72.931  1.00  0.00     8.195 C  
ENDBRANCH  18  53
BRANCH  15  55
HETATM   55  O   UNL     1      -9.777  17.366  70.569  1.00  0.00     1.939 OA 
BRANCH  55  56
HETATM   56  C   UNL     1     -10.533  18.289  69.895  1.00  0.00     1.113 C  
HETATM   57  O   UNL     1     -10.379  19.504  69.921  1.00  0.00     0.129 OA 
HETATM   58  C   UNL     1     -11.490  17.598  68.954  1.00  0.00     1.411 C  
ENDBRANCH  55  56
ENDBRANCH  15  55
BRANCH  14  59
HETATM   59  C   UNL     1      -8.169  17.019  68.032  1.00  0.00    -0.206 C  
HETATM   60  O   UNL     1      -7.147  17.688  67.934  1.00  0.00    -0.181 OA 
BRANCH  59  61
HETATM   61  O   UNL     1      -9.311  17.275  67.320  1.00  0.00    -0.232 OA 
HETATM   62  C   UNL     1      -9.838  16.169  66.581  1.00  0.00    -0.249 C  
ENDBRANCH  59  61
ENDBRANCH  14  59
TORSDOF 10
ENDMDL
MODEL       37
REMARK 921   NORMALIZED FREE ENERGY PREDICTED BY IDOCK:   14.19 KCAL/MOL
REMARK 922        TOTAL FREE ENERGY PREDICTED BY IDOCK:   21.34 KCAL/MOL
REMARK 923 INTER-LIGAND FREE ENERGY PREDICTED BY IDOCK:   18.75 KCAL/MOL
REMARK 924 INTRA-LIGAND FREE ENERGY PREDICTED BY IDOCK:    2.59 KCAL/MOL
REMARK 927      BINDING AFFINITY PREDICTED BY RF-SCORE:    0.00 PKD
ROOT
HETATM    1  C   UNL     1     -12.033   9.235  70.770  1.00  0.00    -0.210 C  
HETATM    2  N   UNL     1     -12.051  10.194  71.899  1.00  0.00    -0.176 NA 
HETATM    3  C   UNL     1     -12.468   9.878  73.245  1.00  0.00     3.915 C  
HETATM    4  C   UNL     1     -12.129  11.460  71.363  1.00  0.00     0.151 A  
HETATM    5  C   UNL     1     -12.501  12.633  71.985  1.00  0.00     0.269 A  
HETATM    6  C   UNL     1     -12.425  13.851  71.298  1.00  0.00    -0.359 A  
HETATM    7  N   UNL     1     -10.748   9.605  67.298  1.00  0.00    -0.250 NA 
HETATM    8  C   UNL     1     -11.821  13.909  70.021  1.00  0.00    -0.384 A  
HETATM    9  C   UNL     1     -11.489  12.682  69.400  1.00  0.00    -0.330 A  
HETATM   10  C   UNL     1     -10.089   8.632  66.468  1.00  0.00    -0.269 C  
HETATM   11  H   UNL     1      -9.750   7.338  72.330  1.00  0.00     0.000 HD 
HETATM   12  O   UNL     1     -10.274   8.112  72.161  1.00  0.00    -0.217 OA 
HETATM   13  C   UNL     1     -11.741  11.487  70.038  1.00  0.00    -0.414 A  
HETATM   14  C   UNL     1     -11.170   7.960  71.049  1.00  0.00    -0.269 C  
HETATM   15  C   UNL     1     -10.354   7.622  69.796  1.00  0.00    -0.223 C  
HETATM   16  C   UNL     1     -11.675  10.091  69.462  1.00  0.00    -0.058 C  
HETATM   17  C   UNL     1     -10.356   9.843  68.684  1.00  0.00    -0.195 C  
HETATM   18  C   UNL     1      -9.406   8.796  69.340  1.00  0.00    -0.157 C  
HETATM   19  C   UNL     1      -8.427   8.266  68.285  1.00  0.00    -0.136 C  
HETATM   20  C   UNL     1     -12.797   9.949  68.395  1.00  0.00     5.107 C  
HETATM   21  C   UNL     1      -8.752   8.200  66.987  1.00  0.00    -0.136 C  
HETATM   22  C   UNL     1     -12.131   9.878  67.034  1.00  0.00     4.439 C  
ENDROOT
BRANCH   6  23
HETATM   23  O   UNL     1     -12.898  14.995  71.878  1.00  0.00    -0.305 OA 
HETATM   24  C   UNL     1     -13.040  14.935  73.300  1.00  0.00    -0.469 C  
ENDBRANCH   6  23
BRANCH   8  25
HETATM   25  C   UNL     1     -11.502  15.222  69.212  1.00  0.00    -0.334 C  
HETATM   26  C   UNL     1      -8.089  18.834  67.445  1.00  0.00    -0.251 C  
HETATM   27  C   UNL     1     -11.440  17.225  66.319  1.00  0.00     1.344 C  
HETATM   28  N   UNL     1      -9.555  18.657  67.457  1.00  0.00    -0.290 NA 
HETATM   29  C   UNL     1      -7.176  17.659  67.976  1.00  0.00    -0.216 C  
HETATM   30  C   UNL     1     -11.313  15.721  66.499  1.00  0.00     0.132 A  
HETATM   31  C   UNL     1      -7.840  16.969  69.204  1.00  0.00    -0.089 C  
HETATM   32  C   UNL     1     -10.910  14.998  63.992  1.00  0.00     0.954 A  
HETATM   33  O   UNL     1      -5.933  18.228  68.425  1.00  0.00    -0.179 OA 
HETATM   34  C   UNL     1     -10.091  15.752  69.789  1.00  0.00    -0.277 C  
HETATM   35  C   UNL     1      -9.978  18.049  68.706  1.00  0.00    -0.374 C  
HETATM   36  H   UNL     1      -5.384  17.521  68.743  1.00  0.00     0.000 HD 
HETATM   37  C   UNL     1     -11.389  14.919  67.657  1.00  0.00    -0.337 A  
HETATM   38  C   UNL     1     -10.663  13.881  63.179  1.00  0.00     3.252 A  
HETATM   39  N   UNL     1     -11.418  13.618  67.189  1.00  0.00    -0.325 NA 
HETATM   40  C   UNL     1     -11.088  14.826  65.381  1.00  0.00    -0.359 A  
HETATM   41  C   UNL     1      -9.312  16.689  68.865  1.00  0.00    -0.244 C  
HETATM   42  C   UNL     1     -11.072  13.531  65.873  1.00  0.00    -0.284 A  
HETATM   43  C   UNL     1     -10.109  18.028  66.241  1.00  0.00    -0.363 C  
HETATM   44  C   UNL     1     -10.808  12.402  65.088  1.00  0.00    -0.333 A  
HETATM   45  H   UNL     1     -11.670  12.814  67.764  1.00  0.00     0.000 HD 
HETATM   46  C   UNL     1     -10.589  12.604  63.725  1.00  0.00    -0.432 A  
BRANCH  25  47
HETATM   47  C   UNL     1     -12.635  16.272  69.378  1.00  0.00     1.136 C  
HETATM   48  O   UNL     1     -13.813  16.089  69.063  1.00  0.00     2.915 OA 
BRANCH  47  49
HETATM   49  O   UNL     1     -12.173  17.442  69.928  1.00  0.00     3.021 OA 
HETATM   50  C   UNL     1     -11.743  17.341  71.291  1.00  0.00     2.084 C  
ENDBRANCH  47  49
ENDBRANCH  25  47
BRANCH  29  51
HETATM   51  C   UNL     1      -6.840  16.652  66.843  1.00  0.00    -0.253 C  
HETATM   52  C   UNL     1      -6.592  15.220  67.314  1.00  0.00    -0.010 C  
ENDBRANCH  29  51
ENDBRANCH   8  25
BRANCH  18  53
HETATM   53  C   UNL     1      -8.524   9.642  70.344  1.00  0.00    -0.187 C  
HETATM   54  C   UNL     1      -7.049   9.965  70.146  1.00  0.00    -0.146 C  
ENDBRANCH  18  53
BRANCH  15  55
HETATM   55  O   UNL     1      -9.581   6.401  69.897  1.00  0.00    -0.153 OA 
BRANCH  55  56
HETATM   56  C   UNL     1      -9.983   5.434  69.012  1.00  0.00    -0.190 C  
HETATM   57  O   UNL     1      -9.274   4.561  68.528  1.00  0.00    -0.117 OA 
HETATM   58  C   UNL     1     -11.482   5.469  68.842  1.00  0.00     1.307 C  
ENDBRANCH  55  56
ENDBRANCH  15  55
BRANCH  14  59
HETATM   59  C   UNL     1     -12.111   6.815  71.500  1.00  0.00    -0.363 C  
HETATM   60  O   UNL     1     -11.763   5.768  72.032  1.00  0.00    -0.234 OA 
BRANCH  59  61
HETATM   61  O   UNL     1     -13.395   7.063  71.091  1.00  0.00    -0.302 OA 
HETATM   62  C   UNL     1     -14.406   6.883  72.087  1.00  0.00    -0.076 C  
ENDBRANCH  59  61
ENDBRANCH  14  59
TORSDOF 10
ENDMDL
MODEL       38
REMARK 921   NORMALIZED FREE ENERGY PREDICTED BY IDOCK:   14.92 KCAL/MOL
REMARK 922        TOTAL FREE ENERGY PREDICTED BY IDOCK:   22.48 KCAL/MOL
REMARK 923 INTER-LIGAND FREE ENERGY PREDICTED BY IDOCK:   17.56 KCAL/MOL
REMARK 924 INTRA-LIGAND FREE ENERGY PREDICTED BY IDOCK:    4.93 KCAL/MOL
REMARK 927      BINDING AFFINITY PREDICTED BY RF-SCORE:    0.00 PKD
ROOT
HETATM    1  C   UNL     1      -8.051  16.419  68.741  1.00  0.00    -0.234 C  
HETATM    2  N   UNL     1      -7.364  15.615  69.779  1.00  0.00    -0.134 NA 
HETATM    3  C   UNL     1      -6.382  16.128  70.705  1.00  0.00     0.617 C  
HETATM    4  C   UNL     1      -7.407  14.300  69.377  1.00  0.00    -0.011 A  
HETATM    5  C   UNL     1      -6.639  13.243  69.818  1.00  0.00     0.052 A  
HETATM    6  C   UNL     1      -6.894  11.945  69.359  1.00  0.00    -0.048 A  
HETATM    7  N   UNL     1     -10.820  15.524  66.423  1.00  0.00    -0.302 NA 
HETATM    8  C   UNL     1      -8.035  11.684  68.567  1.00  0.00    -0.144 A  
HETATM    9  C   UNL     1      -8.776  12.796  68.103  1.00  0.00    -0.193 A  
HETATM   10  C   UNL     1     -11.915  16.336  65.963  1.00  0.00     1.610 C  
HETATM   11  H   UNL     1      -9.483  18.345  71.082  1.00  0.00     0.000 HD 
HETATM   12  O   UNL     1      -9.021  17.592  70.734  1.00  0.00     4.275 OA 
HETATM   13  C   UNL     1      -8.390  14.077  68.433  1.00  0.00    -0.162 A  
HETATM   14  C   UNL     1      -8.813  17.659  69.315  1.00  0.00     0.267 C  
HETATM   15  C   UNL     1     -10.173  17.779  68.618  1.00  0.00    -0.377 C  
HETATM   16  C   UNL     1      -8.898  15.380  67.861  1.00  0.00    -0.168 C  
HETATM   17  C   UNL     1     -10.449  15.439  67.832  1.00  0.00    -0.256 C  
HETATM   18  C   UNL     1     -11.072  16.497  68.793  1.00  0.00    -0.309 C  
HETATM   19  C   UNL     1     -12.499  16.822  68.333  1.00  0.00     2.251 C  
HETATM   20  C   UNL     1      -8.472  15.459  66.367  1.00  0.00    -0.169 C  
HETATM   21  C   UNL     1     -12.864  16.742  67.047  1.00  0.00     5.213 C  
HETATM   22  C   UNL     1      -9.724  15.311  65.524  1.00  0.00    -0.278 C  
ENDROOT
BRANCH   6  23
HETATM   23  O   UNL     1      -6.062  10.918  69.710  1.00  0.00    -0.062 OA 
HETATM   24  C   UNL     1      -5.398  10.280  68.616  1.00  0.00    -0.038 C  
ENDBRANCH   6  23
BRANCH   8  25
HETATM   25  C   UNL     1      -8.549  10.259  68.132  1.00  0.00    -0.119 C  
HETATM   26  C   UNL     1      -7.805   5.070  67.554  1.00  0.00    -0.095 C  
HETATM   27  C   UNL     1     -10.745   7.512  68.245  1.00  0.00    -0.128 C  
HETATM   28  N   UNL     1      -8.838   6.055  67.178  1.00  0.00    -0.109 NA 
HETATM   29  C   UNL     1      -6.602   5.540  68.463  1.00  0.00    -0.052 C  
HETATM   30  C   UNL     1     -10.296   8.481  69.328  1.00  0.00    -0.227 A  
HETATM   31  C   UNL     1      -6.159   6.981  68.074  1.00  0.00    -0.034 C  
HETATM   32  C   UNL     1     -11.558   7.454  71.407  1.00  0.00    -0.303 A  
HETATM   33  O   UNL     1      -5.485   4.666  68.211  1.00  0.00    -0.014 OA 
HETATM   34  C   UNL     1      -7.219   9.376  67.896  1.00  0.00    -0.082 C  
HETATM   35  C   UNL     1      -8.219   7.313  66.798  1.00  0.00    -0.121 C  
HETATM   36  H   UNL     1      -4.762   4.949  68.757  1.00  0.00     0.000 HD 
HETATM   37  C   UNL     1      -9.454   9.611  69.264  1.00  0.00    -0.179 A  
HETATM   38  C   UNL     1     -11.743   7.611  72.789  1.00  0.00    -0.276 A  
HETATM   39  N   UNL     1      -9.582  10.220  70.499  1.00  0.00    -0.158 NA 
HETATM   40  C   UNL     1     -10.736   8.359  70.703  1.00  0.00    -0.245 A  
HETATM   41  C   UNL     1      -7.414   7.861  67.968  1.00  0.00    -0.108 C  
HETATM   42  C   UNL     1     -10.192   9.416  71.415  1.00  0.00    -0.227 A  
HETATM   43  C   UNL     1      -9.953   6.177  68.139  1.00  0.00    -0.142 C  
HETATM   44  C   UNL     1     -10.345   9.586  72.797  1.00  0.00     2.855 A  
HETATM   45  H   UNL     1      -9.256  11.166  70.702  1.00  0.00     0.000 HD 
HETATM   46  C   UNL     1     -11.124   8.650  73.477  1.00  0.00     2.369 A  
BRANCH  25  47
HETATM   47  C   UNL     1      -9.430  10.346  66.855  1.00  0.00    -0.168 C  
HETATM   48  O   UNL     1      -9.213   9.728  65.811  1.00  0.00    -0.163 OA 
BRANCH  47  49
HETATM   49  O   UNL     1     -10.493  11.198  67.023  1.00  0.00    -0.214 OA 
HETATM   50  C   UNL     1     -11.099  11.654  65.808  1.00  0.00    -0.256 C  
ENDBRANCH  47  49
ENDBRANCH  25  47
BRANCH  29  51
HETATM   51  C   UNL     1      -6.952   5.415  69.970  1.00  0.00    -0.060 C  
HETATM   52  C   UNL     1      -7.596   4.088  70.368  1.00  0.00    -0.045 C  
ENDBRANCH  29  51
ENDBRANCH   8  25
BRANCH  18  53
HETATM   53  C   UNL     1     -11.238  15.730  70.166  1.00  0.00    -0.357 C  
HETATM   54  C   UNL     1     -11.183  14.217  70.329  1.00  0.00     0.006 C  
ENDBRANCH  18  53
BRANCH  15  55
HETATM   55  O   UNL     1     -10.938  18.949  68.997  1.00  0.00     0.813 OA 
BRANCH  55  56
HETATM   56  C   UNL     1     -11.573  19.546  67.939  1.00  0.00     1.390 C  
HETATM   57  O   UNL     1     -12.778  19.535  67.722  1.00  0.00     3.352 OA 
HETATM   58  C   UNL     1     -10.599  20.386  67.148  1.00  0.00    -0.045 C  
ENDBRANCH  55  56
ENDBRANCH  15  55
BRANCH  14  59
HETATM   59  C   UNL     1      -7.918  18.912  69.141  1.00  0.00    -0.088 C  
HETATM   60  O   UNL     1      -8.043  19.767  68.273  1.00  0.00    -0.321 OA 
BRANCH  59  61
HETATM   61  O   UNL     1      -6.860  18.868  70.011  1.00  0.00     0.041 OA 
HETATM   62  C   UNL     1      -6.029  20.033  70.031  1.00  0.00    -0.338 C  
ENDBRANCH  59  61
ENDBRANCH  14  59
TORSDOF 10
ENDMDL
MODEL       39
REMARK 921   NORMALIZED FREE ENERGY PREDICTED BY IDOCK:   15.07 KCAL/MOL
REMARK 922        TOTAL FREE ENERGY PREDICTED BY IDOCK:   22.72 KCAL/MOL
REMARK 923 INTER-LIGAND FREE ENERGY PREDICTED BY IDOCK:   19.05 KCAL/MOL
REMARK 924 INTRA-LIGAND FREE ENERGY PREDICTED BY IDOCK:    3.67 KCAL/MOL
REMARK 927      BINDING AFFINITY PREDICTED BY RF-SCORE:    0.00 PKD
ROOT
HETATM    1  C   UNL     1     -11.125  14.939  66.333  1.00  0.00    -0.342 C  
HETATM    2  N   UNL     1     -11.268  13.649  65.618  1.00  0.00    -0.296 NA 
HETATM    3  C   UNL     1     -11.888  13.487  64.323  1.00  0.00    -0.428 C  
HETATM    4  C   UNL     1     -11.216  12.647  66.559  1.00  0.00    -0.296 A  
HETATM    5  C   UNL     1     -11.627  11.336  66.440  1.00  0.00     0.217 A  
HETATM    6  C   UNL     1     -11.403  10.429  67.483  1.00  0.00    -0.031 A  
HETATM    7  N   UNL     1      -9.337  15.773  69.486  1.00  0.00    -0.268 NA 
HETATM    8  C   UNL     1     -10.618  10.808  68.597  1.00  0.00    -0.226 A  
HETATM    9  C   UNL     1     -10.250  12.169  68.703  1.00  0.00    -0.186 A  
HETATM   10  C   UNL     1      -8.604  16.964  69.825  1.00  0.00     1.045 C  
HETATM   11  H   UNL     1      -9.171  16.153  63.893  1.00  0.00     0.000 HD 
HETATM   12  O   UNL     1      -9.633  15.492  64.394  1.00  0.00     0.841 OA 
HETATM   13  C   UNL     1     -10.639  13.074  67.739  1.00  0.00    -0.235 A  
HETATM   14  C   UNL     1     -10.363  16.029  65.508  1.00  0.00    -0.390 C  
HETATM   15  C   UNL     1      -9.389  16.768  66.432  1.00  0.00    -0.278 C  
HETATM   16  C   UNL     1     -10.547  14.581  67.785  1.00  0.00    -0.250 C  
HETATM   17  C   UNL     1      -9.140  15.066  68.225  1.00  0.00    -0.182 C  
HETATM   18  C   UNL     1      -8.338  15.812  67.114  1.00  0.00    -0.231 C  
HETATM   19  C   UNL     1      -7.239  16.661  67.764  1.00  0.00    -0.154 C  
HETATM   20  C   UNL     1     -11.507  15.097  68.895  1.00  0.00    -0.337 C  
HETATM   21  C   UNL     1      -7.375  17.174  68.994  1.00  0.00    -0.217 C  
HETATM   22  C   UNL     1     -10.654  15.625  70.032  1.00  0.00    -0.332 C  
ENDROOT
BRANCH   6  23
HETATM   23  O   UNL     1     -11.909   9.161  67.409  1.00  0.00     1.828 OA 
HETATM   24  C   UNL     1     -11.130   8.247  66.631  1.00  0.00     1.103 C  
ENDBRANCH   6  23
BRANCH   8  25
HETATM   25  C   UNL     1     -10.133   9.850  69.750  1.00  0.00    -0.274 C  
HETATM   26  C   UNL     1     -10.421   5.287  72.380  1.00  0.00    -0.215 C  
HETATM   27  C   UNL     1      -7.738   7.951  71.494  1.00  0.00    -0.090 C  
HETATM   28  N   UNL     1      -9.717   6.575  72.537  1.00  0.00    -0.159 NA 
HETATM   29  C   UNL     1     -11.263   5.037  71.067  1.00  0.00     0.702 C  
HETATM   30  C   UNL     1      -7.877   8.273  70.015  1.00  0.00    -0.104 A  
HETATM   31  C   UNL     1     -11.982   6.346  70.625  1.00  0.00    -0.240 C  
HETATM   32  C   UNL     1      -5.840   6.893  69.057  1.00  0.00    -0.019 A  
HETATM   33  O   UNL     1     -12.285   4.069  71.370  1.00  0.00     4.998 OA 
HETATM   34  C   UNL     1     -11.346   8.811  69.986  1.00  0.00    -0.040 C  
HETATM   35  C   UNL     1     -10.573   7.672  72.122  1.00  0.00    -0.232 C  
HETATM   36  H   UNL     1     -12.791   3.918  70.580  1.00  0.00     0.000 HD 
HETATM   37  C   UNL     1      -8.811   9.077  69.328  1.00  0.00    -0.139 A  
HETATM   38  C   UNL     1      -5.190   6.547  67.863  1.00  0.00    -0.004 A  
HETATM   39  N   UNL     1      -8.319   9.172  68.039  1.00  0.00    -0.120 NA 
HETATM   40  C   UNL     1      -6.960   7.750  69.021  1.00  0.00    -0.069 A  
HETATM   41  C   UNL     1     -10.961   7.494  70.661  1.00  0.00    -0.263 C  
HETATM   42  C   UNL     1      -7.331   8.268  67.791  1.00  0.00    -0.093 A  
HETATM   43  C   UNL     1      -8.353   6.604  71.970  1.00  0.00    -0.106 C  
HETATM   44  C   UNL     1      -6.712   7.924  66.582  1.00  0.00    -0.063 A  
HETATM   45  H   UNL     1      -8.659   9.845  67.351  1.00  0.00     0.000 HD 
HETATM   46  C   UNL     1      -5.636   7.038  66.641  1.00  0.00    -0.022 A  
BRANCH  25  47
HETATM   47  C   UNL     1      -9.788  10.650  71.036  1.00  0.00     2.820 C  
HETATM   48  O   UNL     1      -8.855  10.386  71.797  1.00  0.00     3.465 OA 
BRANCH  47  49
HETATM   49  O   UNL     1     -10.648  11.702  71.231  1.00  0.00     3.681 OA 
HETATM   50  C   UNL     1     -12.039  11.366  71.160  1.00  0.00    -0.092 C  
ENDBRANCH  47  49
ENDBRANCH  25  47
BRANCH  29  51
HETATM   51  C   UNL     1     -10.381   4.437  69.938  1.00  0.00     0.265 C  
HETATM   52  C   UNL     1      -9.692   5.471  69.049  1.00  0.00    -0.195 C  
ENDBRANCH  29  51
ENDBRANCH   8  25
BRANCH  18  53
HETATM   53  C   UNL     1      -7.578  14.660  66.341  1.00  0.00     1.578 C  
HETATM   54  C   UNL     1      -7.337  13.259  66.886  1.00  0.00     0.487 C  
ENDBRANCH  18  53
BRANCH  15  55
HETATM   55  O   UNL     1      -8.689  17.870  65.804  1.00  0.00    -0.493 OA 
BRANCH  55  56
HETATM   56  C   UNL     1      -9.087  19.097  66.268  1.00  0.00    -0.310 C  
HETATM   57  O   UNL     1      -8.881  20.174  65.724  1.00  0.00    -0.200 OA 
HETATM   58  C   UNL     1      -9.986  18.936  67.470  1.00  0.00    -0.399 C  
ENDBRANCH  55  56
ENDBRANCH  15  55
BRANCH  14  59
HETATM   59  C   UNL     1     -11.406  16.959  64.839  1.00  0.00     0.286 C  
HETATM   60  O   UNL     1     -11.719  18.079  65.225  1.00  0.00     1.309 OA 
BRANCH  59  61
HETATM   61  O   UNL     1     -12.050  16.304  63.823  1.00  0.00    -0.959 OA 
HETATM   62  C   UNL     1     -13.472  16.212  63.952  1.00  0.00     4.008 C  
ENDBRANCH  59  61
ENDBRANCH  14  59
TORSDOF 10
ENDMDL
MODEL       40
REMARK 921   NORMALIZED FREE ENERGY PREDICTED BY IDOCK:   15.13 KCAL/MOL
REMARK 922        TOTAL FREE ENERGY PREDICTED BY IDOCK:   22.82 KCAL/MOL
REMARK 923 INTER-LIGAND FREE ENERGY PREDICTED BY IDOCK:   20.52 KCAL/MOL
REMARK 924 INTRA-LIGAND FREE ENERGY PREDICTED BY IDOCK:    2.30 KCAL/MOL
REMARK 927      BINDING AFFINITY PREDICTED BY RF-SCORE:    0.00 PKD
ROOT
HETATM    1  C   UNL     1      -9.887  16.216  68.471  1.00  0.00    -0.226 C  
HETATM    2  N   UNL     1     -10.185  15.628  67.144  1.00  0.00    -0.264 NA 
HETATM    3  C   UNL     1     -10.531  16.385  65.964  1.00  0.00    -0.323 C  
HETATM    4  C   UNL     1     -10.585  14.327  67.350  1.00  0.00    -0.276 A  
HETATM    5  C   UNL     1     -11.269  13.494  66.490  1.00  0.00    -0.322 A  
HETATM    6  C   UNL     1     -11.505  12.159  66.839  1.00  0.00    -0.351 A  
HETATM    7  N   UNL     1      -8.672  14.626  71.607  1.00  0.00     4.295 NA 
HETATM    8  C   UNL     1     -10.910  11.614  68.000  1.00  0.00    -0.259 A  
HETATM    9  C   UNL     1     -10.251  12.506  68.876  1.00  0.00    -0.012 A  
HETATM   10  C   UNL     1      -7.760  15.144  72.591  1.00  0.00     6.873 C  
HETATM   11  H   UNL     1      -7.216  17.824  67.235  1.00  0.00     0.000 HD 
HETATM   12  O   UNL     1      -7.924  17.190  67.252  1.00  0.00    -0.172 OA 
HETATM   13  C   UNL     1     -10.189  13.852  68.584  1.00  0.00    -0.218 A  
HETATM   14  C   UNL     1      -8.722  17.260  68.443  1.00  0.00    -0.261 C  
HETATM   15  C   UNL     1      -7.819  17.036  69.662  1.00  0.00     0.633 C  
HETATM   16  C   UNL     1      -9.742  14.981  69.483  1.00  0.00    -0.113 C  
HETATM   17  C   UNL     1      -8.388  14.674  70.176  1.00  0.00     0.927 C  
HETATM   18  C   UNL     1      -7.208  15.585  69.720  1.00  0.00    -0.110 C  
HETATM   19  C   UNL     1      -6.101  15.552  70.780  1.00  0.00     0.214 C  
HETATM   20  C   UNL     1     -10.762  15.111  70.650  1.00  0.00    -0.160 C  
HETATM   21  C   UNL     1      -6.368  15.349  72.077  1.00  0.00     1.679 C  
HETATM   22  C   UNL     1     -10.071  14.648  71.918  1.00  0.00     3.513 C  
ENDROOT
BRANCH   6  23
HETATM   23  O   UNL     1     -12.278  11.367  66.037  1.00  0.00     0.298 OA 
HETATM   24  C   UNL     1     -12.629  11.948  64.777  1.00  0.00     0.294 C  
ENDBRANCH   6  23
BRANCH   8  25
HETATM   25  C   UNL     1     -10.935  10.096  68.422  1.00  0.00    -0.293 C  
HETATM   26  C   UNL     1     -10.322   4.983  67.278  1.00  0.00    -0.134 C  
HETATM   27  C   UNL     1      -9.941   7.326  70.352  1.00  0.00    -0.192 C  
HETATM   28  N   UNL     1     -10.817   5.777  68.421  1.00  0.00    -0.224 NA 
HETATM   29  C   UNL     1      -9.681   5.740  66.048  1.00  0.00    -0.015 C  
HETATM   30  C   UNL     1      -9.175   8.559  69.901  1.00  0.00    -0.154 A  
HETATM   31  C   UNL     1     -10.448   7.066  65.767  1.00  0.00     1.743 C  
HETATM   32  C   UNL     1      -6.792   8.000  70.890  1.00  0.00    -0.041 A  
HETATM   33  O   UNL     1      -9.829   4.905  64.884  1.00  0.00    -0.365 OA 
HETATM   34  C   UNL     1     -11.087   9.269  67.044  1.00  0.00     0.326 C  
HETATM   35  C   UNL     1     -11.548   6.939  67.948  1.00  0.00     0.685 C  
HETATM   36  H   UNL     1      -9.443   5.360  64.145  1.00  0.00     0.000 HD 
HETATM   37  C   UNL     1      -9.594   9.691  69.169  1.00  0.00    -0.174 A  
HETATM   38  C   UNL     1      -5.477   8.482  70.972  1.00  0.00    -0.032 A  
HETATM   39  N   UNL     1      -8.535  10.577  69.246  1.00  0.00    -0.256 NA 
HETATM   40  C   UNL     1      -7.773   8.754  70.212  1.00  0.00    -0.085 A  
HETATM   41  C   UNL     1     -10.633   7.810  67.099  1.00  0.00    -0.401 C  
HETATM   42  C   UNL     1      -7.395   9.987  69.705  1.00  0.00    -0.141 A  
HETATM   43  C   UNL     1      -9.804   6.060  69.458  1.00  0.00    -0.161 C  
HETATM   44  C   UNL     1      -6.086  10.483  69.756  1.00  0.00    -0.065 A  
HETATM   45  H   UNL     1      -8.600  11.562  68.989  1.00  0.00     0.000 HD 
HETATM   46  C   UNL     1      -5.126   9.696  70.391  1.00  0.00    -0.028 A  
BRANCH  25  47
HETATM   47  C   UNL     1     -12.099   9.807  69.410  1.00  0.00     0.596 C  
HETATM   48  O   UNL     1     -12.366   8.696  69.872  1.00  0.00     0.797 OA 
BRANCH  47  49
HETATM   49  O   UNL     1     -12.803  10.944  69.719  1.00  0.00    -0.163 OA 
HETATM   50  C   UNL     1     -13.298  11.001  71.062  1.00  0.00     0.172 C  
ENDBRANCH  47  49
ENDBRANCH  25  47
BRANCH  29  51
HETATM   51  C   UNL     1      -8.160   5.970  66.259  1.00  0.00    -0.112 C  
HETATM   52  C   UNL     1      -7.612   7.243  65.616  1.00  0.00    -0.089 C  
ENDBRANCH  29  51
ENDBRANCH   8  25
BRANCH  18  53
HETATM   53  C   UNL     1      -6.605  14.843  68.460  1.00  0.00    -0.093 C  
HETATM   54  C   UNL     1      -5.138  14.468  68.291  1.00  0.00    -0.113 C  
ENDBRANCH  18  53
BRANCH  15  55
HETATM   55  O   UNL     1      -6.751  18.005  69.800  1.00  0.00    -0.089 OA 
BRANCH  55  56
HETATM   56  C   UNL     1      -6.906  18.827  70.887  1.00  0.00     1.794 C  
HETATM   57  O   UNL     1      -7.878  19.533  71.124  1.00  0.00     1.913 OA 
HETATM   58  C   UNL     1      -5.780  18.616  71.869  1.00  0.00     0.394 C  
ENDBRANCH  55  56
ENDBRANCH  15  55
BRANCH  14  59
HETATM   59  C   UNL     1      -9.335  18.682  68.382  1.00  0.00    -0.337 C  
HETATM   60  O   UNL     1      -9.430  19.378  67.379  1.00  0.00    -0.303 OA 
BRANCH  59  61
HETATM   61  O   UNL     1      -9.633  19.128  69.642  1.00  0.00     0.014 OA 
HETATM   62  C   UNL     1     -10.324  20.380  69.706  1.00  0.00     0.482 C  
ENDBRANCH  59  61
ENDBRANCH  14  59
TORSDOF 10
ENDMDL
MODEL       41
REMARK 921   NORMALIZED FREE ENERGY PREDICTED BY IDOCK:   15.23 KCAL/MOL
REMARK 922        TOTAL FREE ENERGY PREDICTED BY IDOCK:   22.97 KCAL/MOL
REMARK 923 INTER-LIGAND FREE ENERGY PREDICTED BY IDOCK:   13.11 KCAL/MOL
REMARK 924 INTRA-LIGAND FREE ENERGY PREDICTED BY IDOCK:    9.87 KCAL/MOL
REMARK 927      BINDING AFFINITY PREDICTED BY RF-SCORE:    0.00 PKD
ROOT
HETATM    1  C   UNL     1     -10.633   8.317  68.939  1.00  0.00    -0.139 C  
HETATM    2  N   UNL     1     -11.822   9.181  69.120  1.00  0.00     0.873 NA 
HETATM    3  C   UNL     1     -13.133   8.712  69.503  1.00  0.00     4.055 C  
HETATM    4  C   UNL     1     -11.616  10.325  68.383  1.00  0.00     0.030 A  
HETATM    5  C   UNL     1     -12.544  11.257  67.969  1.00  0.00     1.842 A  
HETATM    6  C   UNL     1     -12.130  12.419  67.305  1.00  0.00     0.002 A  
HETATM    7  N   UNL     1      -7.079   9.195  68.275  1.00  0.00    -0.076 NA 
HETATM    8  C   UNL     1     -10.753  12.721  67.196  1.00  0.00    -0.264 A  
HETATM    9  C   UNL     1      -9.833  11.725  67.596  1.00  0.00    -0.192 A  
HETATM   10  C   UNL     1      -5.883   8.562  68.762  1.00  0.00    -0.044 C  
HETATM   11  H   UNL     1     -10.705   7.426  72.171  1.00  0.00     0.000 HD 
HETATM   12  O   UNL     1     -10.919   7.940  71.402  1.00  0.00    -0.228 OA 
HETATM   13  C   UNL     1     -10.282  10.517  68.085  1.00  0.00    -0.187 A  
HETATM   14  C   UNL     1     -10.279   7.469  70.206  1.00  0.00    -0.204 C  
HETATM   15  C   UNL     1      -8.761   7.487  70.414  1.00  0.00    -0.144 C  
HETATM   16  C   UNL     1      -9.482   9.261  68.344  1.00  0.00    -0.145 C  
HETATM   17  C   UNL     1      -8.190   9.550  69.153  1.00  0.00    -0.111 C  
HETATM   18  C   UNL     1      -8.178   8.940  70.589  1.00  0.00    -0.183 C  
HETATM   19  C   UNL     1      -6.731   8.841  71.086  1.00  0.00    -0.075 C  
HETATM   20  C   UNL     1      -8.978   8.711  66.979  1.00  0.00    -0.152 C  
HETATM   21  C   UNL     1      -5.702   8.672  70.245  1.00  0.00    -0.024 C  
HETATM   22  C   UNL     1      -7.477   8.918  66.925  1.00  0.00    -0.083 C  
ENDROOT
BRANCH   6  23
HETATM   23  O   UNL     1     -13.058  13.286  66.798  1.00  0.00     0.498 OA 
HETATM   24  C   UNL     1     -13.232  13.218  65.379  1.00  0.00     0.384 C  
ENDBRANCH   6  23
BRANCH   8  25
HETATM   25  C   UNL     1     -10.147  14.066  66.643  1.00  0.00    -0.276 C  
HETATM   26  C   UNL     1     -10.023  19.336  66.462  1.00  0.00    -0.392 C  
HETATM   27  C   UNL     1      -7.549  16.368  66.065  1.00  0.00     0.380 C  
HETATM   28  N   UNL     1      -9.382  18.221  65.737  1.00  0.00    -0.370 NA 
HETATM   29  C   UNL     1     -10.928  19.007  67.715  1.00  0.00    -0.176 C  
HETATM   30  C   UNL     1      -7.795  15.404  67.215  1.00  0.00    -0.237 A  
HETATM   31  C   UNL     1     -11.743  17.703  67.468  1.00  0.00     1.499 C  
HETATM   32  C   UNL     1      -5.748  16.015  68.766  1.00  0.00    -0.108 A  
HETATM   33  O   UNL     1     -11.875  20.080  67.873  1.00  0.00     0.966 OA 
HETATM   34  C   UNL     1     -11.284  15.185  66.890  1.00  0.00    -0.292 C  
HETATM   35  C   UNL     1     -10.321  17.127  65.563  1.00  0.00    -0.115 C  
HETATM   36  H   UNL     1     -12.419  19.883  68.627  1.00  0.00     0.000 HD 
HETATM   37  C   UNL     1      -8.813  14.448  67.416  1.00  0.00    -0.203 A  
HETATM   38  C   UNL     1      -5.154  15.711  70.000  1.00  0.00    -0.113 A  
HETATM   39  N   UNL     1      -8.406  13.723  68.521  1.00  0.00    -0.232 NA 
HETATM   40  C   UNL     1      -6.914  15.330  68.362  1.00  0.00    -0.111 A  
HETATM   41  C   UNL     1     -10.787  16.630  66.924  1.00  0.00    -0.060 C  
HETATM   42  C   UNL     1      -7.387  14.327  69.194  1.00  0.00    -0.092 A  
HETATM   43  C   UNL     1      -8.059  17.825  66.262  1.00  0.00    -0.234 C  
HETATM   44  C   UNL     1      -6.825  14.017  70.439  1.00  0.00     0.327 A  
HETATM   45  H   UNL     1      -8.824  12.835  68.802  1.00  0.00     0.000 HD 
HETATM   46  C   UNL     1      -5.700  14.741  70.834  1.00  0.00    -0.126 A  
BRANCH  25  47
HETATM   47  C   UNL     1      -9.768  13.935  65.142  1.00  0.00     0.051 C  
HETATM   48  O   UNL     1      -9.091  14.753  64.516  1.00  0.00     1.992 OA 
BRANCH  47  49
HETATM   49  O   UNL     1     -10.276  12.789  64.583  1.00  0.00    -0.321 OA 
HETATM   50  C   UNL     1     -10.935  12.972  63.324  1.00  0.00     0.340 C  
ENDBRANCH  47  49
ENDBRANCH  25  47
BRANCH  29  51
HETATM   51  C   UNL     1     -10.085  18.940  69.017  1.00  0.00    -0.310 C  
HETATM   52  C   UNL     1      -8.616  19.324  68.846  1.00  0.00    -0.331 C  
ENDBRANCH  29  51
ENDBRANCH   8  25
BRANCH  18  53
HETATM   53  C   UNL     1      -8.857  10.049  71.490  1.00  0.00     2.549 C  
HETATM   54  C   UNL     1      -9.711  11.194  70.964  1.00  0.00     5.165 C  
ENDBRANCH  18  53
BRANCH  15  55
HETATM   55  O   UNL     1      -8.297   6.656  71.507  1.00  0.00    -0.119 OA 
BRANCH  55  56
HETATM   56  C   UNL     1      -9.050   6.792  72.644  1.00  0.00    -0.132 C  
HETATM   57  O   UNL     1     -10.004   6.095  72.964  1.00  0.00    -0.170 OA 
HETATM   58  C   UNL     1      -8.434   7.820  73.562  1.00  0.00    -0.259 C  
ENDBRANCH  55  56
ENDBRANCH  15  55
BRANCH  14  59
HETATM   59  C   UNL     1     -10.861   6.044  70.025  1.00  0.00    -0.359 C  
HETATM   60  O   UNL     1     -10.330   5.127  69.411  1.00  0.00    -0.234 OA 
BRANCH  59  61
HETATM   61  O   UNL     1     -12.134   5.981  70.526  1.00  0.00     0.150 OA 
HETATM   62  C   UNL     1     -12.457   6.961  71.517  1.00  0.00    -0.375 C  
ENDBRANCH  59  61
ENDBRANCH  14  59
TORSDOF 10
ENDMDL
MODEL       42
REMARK 921   NORMALIZED FREE ENERGY PREDICTED BY IDOCK:   15.92 KCAL/MOL
REMARK 922        TOTAL FREE ENERGY PREDICTED BY IDOCK:   24.07 KCAL/MOL
REMARK 923 INTER-LIGAND FREE ENERGY PREDICTED BY IDOCK:   11.53 KCAL/MOL
REMARK 924 INTRA-LIGAND FREE ENERGY PREDICTED BY IDOCK:   12.54 KCAL/MOL
REMARK 927      BINDING AFFINITY PREDICTED BY RF-SCORE:    0.00 PKD
ROOT
HETATM    1  C   UNL     1      -7.868  15.638  67.841  1.00  0.00    -0.133 C  
HETATM    2  N   UNL     1      -6.563  14.937  67.800  1.00  0.00    -0.157 NA 
HETATM    3  C   UNL     1      -5.277  15.590  67.738  1.00  0.00    -0.095 C  
HETATM    4  C   UNL     1      -6.791  13.671  67.311  1.00  0.00     0.148 A  
HETATM    5  C   UNL     1      -5.881  12.779  66.785  1.00  0.00     0.883 A  
HETATM    6  C   UNL     1      -6.285  11.487  66.425  1.00  0.00    -0.008 A  
HETATM    7  N   UNL     1     -11.313  14.316  68.311  1.00  0.00    -0.274 NA 
HETATM    8  C   UNL     1      -7.588  11.038  66.742  1.00  0.00    -0.139 A  
HETATM    9  C   UNL     1      -8.503  11.992  67.244  1.00  0.00    -0.175 A  
HETATM   10  C   UNL     1     -12.420  14.901  69.021  1.00  0.00     0.092 C  
HETATM   11  H   UNL     1      -7.088  17.061  70.776  1.00  0.00     0.000 HD 
HETATM   12  O   UNL     1      -7.011  16.448  70.054  1.00  0.00     0.090 OA 
HETATM   13  C   UNL     1      -8.117  13.302  67.422  1.00  0.00    -0.179 A  
HETATM   14  C   UNL     1      -7.997  16.647  69.030  1.00  0.00    -0.208 C  
HETATM   15  C   UNL     1      -9.392  16.515  69.651  1.00  0.00     0.272 C  
HETATM   16  C   UNL     1      -8.990  14.499  67.721  1.00  0.00    -0.190 C  
HETATM   17  C   UNL     1      -9.976  14.225  68.887  1.00  0.00    -0.156 C  
HETATM   18  C   UNL     1      -9.701  15.062  70.174  1.00  0.00     0.265 C  
HETATM   19  C   UNL     1     -10.970  15.100  71.035  1.00  0.00    -0.216 C  
HETATM   20  C   UNL     1      -9.901  14.761  66.487  1.00  0.00    -0.287 C  
HETATM   21  C   UNL     1     -12.194  15.024  70.497  1.00  0.00    -0.391 C  
HETATM   22  C   UNL     1     -11.321  14.401  66.880  1.00  0.00    -0.348 C  
ENDROOT
BRANCH   6  23
HETATM   23  O   UNL     1      -5.409  10.643  65.802  1.00  0.00    -0.083 OA 
HETATM   24  C   UNL     1      -5.983   9.422  65.328  1.00  0.00    -0.063 C  
ENDBRANCH   6  23
BRANCH   8  25
HETATM   25  C   UNL     1      -8.122   9.566  66.566  1.00  0.00    -0.112 C  
HETATM   26  C   UNL     1      -7.511   4.350  67.052  1.00  0.00    -0.081 C  
HETATM   27  C   UNL     1     -10.405   6.940  67.092  1.00  0.00    -0.339 C  
HETATM   28  N   UNL     1      -8.493   5.263  66.435  1.00  0.00    -0.112 NA 
HETATM   29  C   UNL     1      -6.340   4.965  67.917  1.00  0.00    -0.036 C  
HETATM   30  C   UNL     1      -9.981   8.093  67.988  1.00  0.00    -0.222 A  
HETATM   31  C   UNL     1      -5.834   6.292  67.279  1.00  0.00    -0.017 C  
HETATM   32  C   UNL     1     -11.375   7.520  70.155  1.00  0.00    -0.170 A  
HETATM   33  O   UNL     1      -5.240   4.036  67.901  1.00  0.00    -0.007 OA 
HETATM   34  C   UNL     1      -6.810   8.627  66.579  1.00  0.00    -0.072 C  
HETATM   35  C   UNL     1      -7.818   6.410  65.852  1.00  0.00    -0.102 C  
HETATM   36  H   UNL     1      -4.536   4.406  68.421  1.00  0.00     0.000 HD 
HETATM   37  C   UNL     1      -9.102   9.171  67.751  1.00  0.00    -0.126 A  
HETATM   38  C   UNL     1     -11.624   7.949  71.467  1.00  0.00    -0.306 A  
HETATM   39  N   UNL     1      -9.273  10.014  68.835  1.00  0.00    -0.160 NA 
HETATM   40  C   UNL     1     -10.492   8.253  69.334  1.00  0.00    -0.224 A  
HETATM   41  C   UNL     1      -7.055   7.160  66.935  1.00  0.00    -0.082 C  
HETATM   42  C   UNL     1      -9.952   9.418  69.855  1.00  0.00    -0.212 A  
HETATM   43  C   UNL     1      -9.650   5.594  67.292  1.00  0.00    -0.119 C  
HETATM   44  C   UNL     1     -10.168   9.858  71.168  1.00  0.00     0.214 A  
HETATM   45  H   UNL     1      -8.928  10.973  68.867  1.00  0.00     0.000 HD 
HETATM   46  C   UNL     1     -11.009   9.089  71.972  1.00  0.00    -0.355 A  
BRANCH  25  47
HETATM   47  C   UNL     1      -8.935   9.419  65.250  1.00  0.00    -0.204 C  
HETATM   48  O   UNL     1      -8.838   8.470  64.469  1.00  0.00    -0.029 OA 
BRANCH  47  49
HETATM   49  O   UNL     1      -9.789  10.475  65.054  1.00  0.00    -0.258 OA 
HETATM   50  C   UNL     1     -10.112  10.745  63.685  1.00  0.00    -0.312 C  
ENDBRANCH  47  49
ENDBRANCH  25  47
BRANCH  29  51
HETATM   51  C   UNL     1      -6.769   5.145  69.398  1.00  0.00    -0.052 C  
HETATM   52  C   UNL     1      -6.208   6.395  70.076  1.00  0.00    -0.035 C  
ENDBRANCH  29  51
ENDBRANCH   8  25
BRANCH  18  53
HETATM   53  C   UNL     1      -8.664  14.192  70.993  1.00  0.00     4.893 C  
HETATM   54  C   UNL     1      -7.280  14.662  71.421  1.00  0.00     2.026 C  
ENDBRANCH  18  53
BRANCH  15  55
HETATM   55  O   UNL     1      -9.669  17.467  70.707  1.00  0.00     2.755 OA 
BRANCH  55  56
HETATM   56  C   UNL     1     -10.777  18.237  70.463  1.00  0.00     2.212 C  
HETATM   57  O   UNL     1     -10.815  19.248  69.774  1.00  0.00     1.121 OA 
HETATM   58  C   UNL     1     -12.012  17.570  71.019  1.00  0.00     4.413 C  
ENDBRANCH  55  56
ENDBRANCH  15  55
BRANCH  14  59
HETATM   59  C   UNL     1      -7.687  18.071  68.505  1.00  0.00    -0.302 C  
HETATM   60  O   UNL     1      -8.063  18.538  67.436  1.00  0.00    -0.238 OA 
BRANCH  59  61
HETATM   61  O   UNL     1      -6.803  18.706  69.337  1.00  0.00    -0.253 OA 
HETATM   62  C   UNL     1      -5.556  18.035  69.540  1.00  0.00    -0.216 C  
ENDBRANCH  59  61
ENDBRANCH  14  59
TORSDOF 10
ENDMDL
MODEL       43
REMARK 921   NORMALIZED FREE ENERGY PREDICTED BY IDOCK:   18.00 KCAL/MOL
REMARK 922        TOTAL FREE ENERGY PREDICTED BY IDOCK:   27.37 KCAL/MOL
REMARK 923 INTER-LIGAND FREE ENERGY PREDICTED BY IDOCK:   22.82 KCAL/MOL
REMARK 924 INTRA-LIGAND FREE ENERGY PREDICTED BY IDOCK:    4.55 KCAL/MOL
REMARK 927      BINDING AFFINITY PREDICTED BY RF-SCORE:    0.00 PKD
ROOT
HETATM    1  C   UNL     1      -8.115   8.038  68.320  1.00  0.00    -0.126 C  
HETATM    2  N   UNL     1      -8.224   8.716  67.008  1.00  0.00    -0.106 NA 
HETATM    3  C   UNL     1      -7.989   8.085  65.730  1.00  0.00    -0.111 C  
HETATM    4  C   UNL     1      -8.057  10.064  67.225  1.00  0.00    -0.114 A  
HETATM    5  C   UNL     1      -7.748  11.049  66.310  1.00  0.00    -0.132 A  
HETATM    6  C   UNL     1      -7.714  12.393  66.704  1.00  0.00     0.251 A  
HETATM    7  N   UNL     1      -8.939   9.239  71.743  1.00  0.00    -0.228 NA 
HETATM    8  C   UNL     1      -8.149  12.764  67.996  1.00  0.00    -0.162 A  
HETATM    9  C   UNL     1      -8.420  11.726  68.917  1.00  0.00     0.093 A  
HETATM   10  C   UNL     1      -9.504   8.511  72.848  1.00  0.00    -0.124 C  
HETATM   11  H   UNL     1     -10.610   5.944  67.523  1.00  0.00     0.000 HD 
HETATM   12  O   UNL     1     -10.056   6.712  67.446  1.00  0.00    -0.138 OA 
HETATM   13  C   UNL     1      -8.273  10.408  68.545  1.00  0.00    -0.119 A  
HETATM   14  C   UNL     1      -9.028   6.774  68.447  1.00  0.00    -0.124 C  
HETATM   15  C   UNL     1      -9.683   6.765  69.833  1.00  0.00    -0.158 C  
HETATM   16  C   UNL     1      -8.288   9.183  69.429  1.00  0.00    -0.124 C  
HETATM   17  C   UNL     1      -9.501   9.177  70.397  1.00  0.00    -0.227 C  
HETATM   18  C   UNL     1     -10.545   8.053  70.118  1.00  0.00    -0.237 C  
HETATM   19  C   UNL     1     -11.390   7.820  71.376  1.00  0.00    -0.281 C  
HETATM   20  C   UNL     1      -7.041   9.233  70.358  1.00  0.00    -0.091 C  
HETATM   21  C   UNL     1     -10.903   8.034  72.606  1.00  0.00    -0.436 C  
HETATM   22  C   UNL     1      -7.530   9.501  71.769  1.00  0.00     0.811 C  
ENDROOT
BRANCH   6  23
HETATM   23  O   UNL     1      -7.299  13.354  65.824  1.00  0.00     3.225 OA 
HETATM   24  C   UNL     1      -8.338  13.928  65.026  1.00  0.00     5.316 C  
ENDBRANCH   6  23
BRANCH   8  25
HETATM   25  C   UNL     1      -8.340  14.240  68.515  1.00  0.00    -0.156 C  
HETATM   26  C   UNL     1      -7.086  19.362  68.406  1.00  0.00    -0.304 C  
HETATM   27  C   UNL     1     -10.197  17.160  69.151  1.00  0.00    -0.284 C  
HETATM   28  N   UNL     1      -7.928  18.480  69.238  1.00  0.00     0.024 NA 
HETATM   29  C   UNL     1      -6.406  18.764  67.111  1.00  0.00    -0.186 C  
HETATM   30  C   UNL     1     -10.307  16.125  68.042  1.00  0.00    -0.271 A  
HETATM   31  C   UNL     1      -5.936  17.302  67.371  1.00  0.00    -0.165 C  
HETATM   32  C   UNL     1     -12.253  17.194  66.614  1.00  0.00     3.686 A  
HETATM   33  O   UNL     1      -5.232  19.546  66.823  1.00  0.00    -0.164 OA 
HETATM   34  C   UNL     1      -6.978  15.014  68.122  1.00  0.00    -0.130 C  
HETATM   35  C   UNL     1      -7.291  17.186  69.404  1.00  0.00     0.009 C  
HETATM   36  H   UNL     1      -4.824  19.187  66.044  1.00  0.00     0.000 HD 
HETATM   37  C   UNL     1      -9.591  14.930  67.822  1.00  0.00    -0.208 A  
HETATM   38  C   UNL     1     -13.009  17.013  65.446  1.00  0.00     7.605 A  
HETATM   39  N   UNL     1     -10.264  14.297  66.792  1.00  0.00    -0.268 NA 
HETATM   40  C   UNL     1     -11.272  16.243  66.969  1.00  0.00     0.141 A  
HETATM   41  C   UNL     1      -7.087  16.537  68.043  1.00  0.00    -0.152 C  
HETATM   42  C   UNL     1     -11.147  15.123  66.163  1.00  0.00    -0.311 A  
HETATM   43  C   UNL     1      -9.348  18.426  68.835  1.00  0.00    -0.205 C  
HETATM   44  C   UNL     1     -11.874  14.926  64.982  1.00  0.00    -0.299 A  
HETATM   45  H   UNL     1     -10.115  13.322  66.532  1.00  0.00     0.000 HD 
HETATM   46  C   UNL     1     -12.804  15.905  64.630  1.00  0.00     1.334 A  
BRANCH  25  47
HETATM   47  C   UNL     1      -8.609  14.267  70.044  1.00  0.00     1.337 C  
HETATM   48  O   UNL     1      -9.447  13.571  70.621  1.00  0.00     4.182 OA 
BRANCH  47  49
HETATM   49  O   UNL     1      -7.794  15.161  70.693  1.00  0.00     0.752 OA 
HETATM   50  C   UNL     1      -6.777  14.570  71.509  1.00  0.00     1.178 C  
ENDBRANCH  47  49
ENDBRANCH  25  47
BRANCH  29  51
HETATM   51  C   UNL     1      -7.346  18.874  65.880  1.00  0.00    -0.260 C  
HETATM   52  C   UNL     1      -8.835  18.740  66.200  1.00  0.00    -0.143 C  
ENDBRANCH  29  51
ENDBRANCH   8  25
BRANCH  18  53
HETATM   53  C   UNL     1     -11.533   8.691  69.060  1.00  0.00     0.716 C  
HETATM   54  C   UNL     1     -11.410  10.099  68.493  1.00  0.00    -0.172 C  
ENDBRANCH  18  53
BRANCH  15  55
HETATM   55  O   UNL     1     -10.483   5.589  70.109  1.00  0.00    -0.260 OA 
BRANCH  55  56
HETATM   56  C   UNL     1      -9.809   4.633  70.822  1.00  0.00    -0.214 C  
HETATM   57  O   UNL     1      -9.144   3.719  70.352  1.00  0.00    -0.099 OA 
HETATM   58  C   UNL     1      -9.842   4.956  72.296  1.00  0.00    -0.219 C  
ENDBRANCH  55  56
ENDBRANCH  15  55
BRANCH  14  59
HETATM   59  C   UNL     1      -8.172   5.515  68.161  1.00  0.00    -0.096 C  
HETATM   60  O   UNL     1      -7.339   5.028  68.917  1.00  0.00    -0.057 OA 
BRANCH  59  61
HETATM   61  O   UNL     1      -8.364   5.088  66.874  1.00  0.00    -0.108 OA 
HETATM   62  C   UNL     1      -7.178   4.947  66.087  1.00  0.00    -0.077 C  
ENDBRANCH  59  61
ENDBRANCH  14  59
TORSDOF 10
ENDMDL
MODEL       44
REMARK 921   NORMALIZED FREE ENERGY PREDICTED BY IDOCK:   22.05 KCAL/MOL
REMARK 922        TOTAL FREE ENERGY PREDICTED BY IDOCK:   33.78 KCAL/MOL
REMARK 923 INTER-LIGAND FREE ENERGY PREDICTED BY IDOCK:   26.72 KCAL/MOL
REMARK 924 INTRA-LIGAND FREE ENERGY PREDICTED BY IDOCK:    7.06 KCAL/MOL
REMARK 927      BINDING AFFINITY PREDICTED BY RF-SCORE:    0.00 PKD
ROOT
HETATM    1  C   UNL     1      -8.380  16.769  69.118  1.00  0.00    -0.086 C  
HETATM    2  N   UNL     1      -8.738  15.810  70.189  1.00  0.00     0.526 NA 
HETATM    3  C   UNL     1      -8.619  16.071  71.604  1.00  0.00     7.048 C  
HETATM    4  C   UNL     1      -8.679  14.546  69.647  1.00  0.00     0.456 A  
HETATM    5  C   UNL     1      -8.601  13.336  70.302  1.00  0.00     4.146 A  
HETATM    6  C   UNL     1      -8.649  12.137  69.579  1.00  0.00     1.401 A  
HETATM    7  N   UNL     1      -8.839  16.565  65.432  1.00  0.00     0.130 NA 
HETATM    8  C   UNL     1      -8.936  12.155  68.195  1.00  0.00    -0.195 A  
HETATM    9  C   UNL     1      -8.970  13.414  67.552  1.00  0.00    -0.207 A  
HETATM   10  C   UNL     1      -9.168  17.611  64.500  1.00  0.00     6.283 C  
HETATM   11  H   UNL     1     -10.737  18.916  70.157  1.00  0.00     0.000 HD 
HETATM   12  O   UNL     1     -10.279  18.086  70.091  1.00  0.00     0.631 OA 
HETATM   13  C   UNL     1      -8.743  14.569  68.268  1.00  0.00    -0.173 A  
HETATM   14  C   UNL     1      -9.135  18.135  69.226  1.00  0.00     0.240 C  
HETATM   15  C   UNL     1      -9.586  18.571  67.828  1.00  0.00    -0.290 C  
HETATM   16  C   UNL     1      -8.512  15.965  67.737  1.00  0.00    -0.165 C  
HETATM   17  C   UNL     1      -9.572  16.369  66.678  1.00  0.00    -0.256 C  
HETATM   18  C   UNL     1     -10.526  17.519  67.126  1.00  0.00    -0.312 C  
HETATM   19  C   UNL     1     -11.160  18.164  65.888  1.00  0.00     0.496 C  
HETATM   20  C   UNL     1      -7.160  15.979  66.968  1.00  0.00    -0.233 C  
HETATM   21  C   UNL     1     -10.532  18.195  64.705  1.00  0.00     2.954 C  
HETATM   22  C   UNL     1      -7.473  16.132  65.492  1.00  0.00     3.165 C  
ENDROOT
BRANCH   6  23
HETATM   23  O   UNL     1      -8.459  10.943  70.218  1.00  0.00     0.814 OA 
HETATM   24  C   UNL     1      -7.631  10.011  69.517  1.00  0.00    -0.133 C  
ENDBRANCH   6  23
BRANCH   8  25
HETATM   25  C   UNL     1      -9.201  10.891  67.293  1.00  0.00    -0.160 C  
HETATM   26  C   UNL     1      -7.575   6.394  65.068  1.00  0.00    -0.091 C  
HETATM   27  C   UNL     1     -10.883   7.932  66.399  1.00  0.00     0.928 C  
HETATM   28  N   UNL     1      -8.769   7.258  64.993  1.00  0.00     0.121 NA 
HETATM   29  C   UNL     1      -6.457   6.732  66.131  1.00  0.00    -0.050 C  
HETATM   30  C   UNL     1     -10.592   8.547  67.759  1.00  0.00    -0.242 A  
HETATM   31  C   UNL     1      -6.278   8.273  66.259  1.00  0.00    -0.046 C  
HETATM   32  C   UNL     1     -11.622   6.690  69.327  1.00  0.00    -0.147 A  
HETATM   33  O   UNL     1      -5.210   6.194  65.653  1.00  0.00    -0.012 OA 
HETATM   34  C   UNL     1      -7.741  10.375  66.835  1.00  0.00    -0.111 C  
HETATM   35  C   UNL     1      -8.385   8.656  65.077  1.00  0.00    -0.171 C  
HETATM   36  H   UNL     1      -4.537   6.398  66.293  1.00  0.00     0.000 HD 
HETATM   37  C   UNL     1      -9.961   9.760  68.108  1.00  0.00    -0.154 A  
HETATM   38  C   UNL     1     -11.809   6.345  70.674  1.00  0.00    -0.318 A  
HETATM   39  N   UNL     1     -10.173   9.893  69.468  1.00  0.00    -0.209 NA 
HETATM   40  C   UNL     1     -10.982   7.903  68.997  1.00  0.00     0.073 A  
HETATM   41  C   UNL     1      -7.669   8.912  66.396  1.00  0.00    -0.095 C  
HETATM   42  C   UNL     1     -10.619   8.739  70.041  1.00  0.00    -0.223 A  
HETATM   43  C   UNL     1      -9.873   6.863  65.893  1.00  0.00     0.486 C  
HETATM   44  C   UNL     1     -10.776   8.411  71.393  1.00  0.00    -0.298 A  
HETATM   45  H   UNL     1     -10.013  10.758  69.985  1.00  0.00     0.000 HD 
HETATM   46  C   UNL     1     -11.370   7.185  71.692  1.00  0.00    -0.282 A  
BRANCH  25  47
HETATM   47  C   UNL     1     -10.104  11.247  66.080  1.00  0.00    -0.239 C  
HETATM   48  O   UNL     1      -9.848  10.961  64.908  1.00  0.00    -0.239 OA 
BRANCH  47  49
HETATM   49  O   UNL     1     -11.236  11.920  66.464  1.00  0.00    -0.300 OA 
HETATM   50  C   UNL     1     -11.880  12.662  65.421  1.00  0.00    -0.427 C  
ENDBRANCH  47  49
ENDBRANCH  25  47
BRANCH  29  51
HETATM   51  C   UNL     1      -6.756   6.056  67.497  1.00  0.00    -0.058 C  
HETATM   52  C   UNL     1      -6.217   4.633  67.636  1.00  0.00    -0.036 C  
ENDBRANCH  29  51
ENDBRANCH   8  25
BRANCH  18  53
HETATM   53  C   UNL     1     -11.711  16.778  67.867  1.00  0.00     0.592 C  
HETATM   54  C   UNL     1     -12.013  15.290  67.753  1.00  0.00     0.020 C  
ENDBRANCH  18  53
BRANCH  15  55
HETATM   55  O   UNL     1     -10.218  19.874  67.782  1.00  0.00    -0.402 OA 
BRANCH  55  56
HETATM   56  C   UNL     1      -9.936  20.571  66.636  1.00  0.00    -0.239 C  
HETATM   57  O   UNL     1     -10.690  20.731  65.685  1.00  0.00     0.454 OA 
HETATM   58  C   UNL     1      -8.611  21.282  66.767  1.00  0.00     0.813 C  
ENDBRANCH  55  56
ENDBRANCH  15  55
BRANCH  14  59
HETATM   59  C   UNL     1      -8.203  19.160  69.921  1.00  0.00     0.883 C  
HETATM   60  O   UNL     1      -8.528  19.933  70.814  1.00  0.00     1.304 OA 
BRANCH  59  61
HETATM   61  O   UNL     1      -6.982  19.193  69.300  1.00  0.00    -0.325 OA 
HETATM   62  C   UNL     1      -5.972  19.957  69.967  1.00  0.00    -0.321 C  
ENDBRANCH  59  61
ENDBRANCH  14  59
TORSDOF 10
ENDMDL
MODEL       45
REMARK 921   NORMALIZED FREE ENERGY PREDICTED BY IDOCK:   24.46 KCAL/MOL
REMARK 922        TOTAL FREE ENERGY PREDICTED BY IDOCK:   37.61 KCAL/MOL
REMARK 923 INTER-LIGAND FREE ENERGY PREDICTED BY IDOCK:   33.34 KCAL/MOL
REMARK 924 INTRA-LIGAND FREE ENERGY PREDICTED BY IDOCK:    4.27 KCAL/MOL
REMARK 927      BINDING AFFINITY PREDICTED BY RF-SCORE:    0.00 PKD
ROOT
HETATM    1  C   UNL     1      -9.734  13.324  67.192  1.00  0.00    -0.236 C  
HETATM    2  N   UNL     1      -8.574  12.876  66.387  1.00  0.00     0.127 NA 
HETATM    3  C   UNL     1      -7.715  13.748  65.621  1.00  0.00     5.022 C  
HETATM    4  C   UNL     1      -8.775  11.551  66.075  1.00  0.00    -0.095 A  
HETATM    5  C   UNL     1      -8.166  10.799  65.093  1.00  0.00    -0.034 A  
HETATM    6  C   UNL     1      -8.431   9.428  64.987  1.00  0.00    -0.159 A  
HETATM    7  N   UNL     1     -11.948  11.435  69.509  1.00  0.00    -0.332 NA 
HETATM    8  C   UNL     1      -9.199   8.776  65.979  1.00  0.00    -0.282 A  
HETATM    9  C   UNL     1      -9.839   9.584  66.946  1.00  0.00    -0.262 A  
HETATM   10  C   UNL     1     -12.547  11.866  70.744  1.00  0.00    -0.234 C  
HETATM   11  H   UNL     1      -7.736  15.125  69.195  1.00  0.00     0.000 HD 
HETATM   12  O   UNL     1      -7.959  14.475  68.539  1.00  0.00    -0.129 OA 
HETATM   13  C   UNL     1      -9.696  10.955  66.914  1.00  0.00    -0.210 A  
HETATM   14  C   UNL     1      -9.367  14.395  68.273  1.00  0.00    -0.206 C  
HETATM   15  C   UNL     1     -10.102  14.063  69.577  1.00  0.00     0.397 C  
HETATM   16  C   UNL     1     -10.466  11.991  67.700  1.00  0.00    -0.226 C  
HETATM   17  C   UNL     1     -10.535  11.645  69.210  1.00  0.00     0.014 C  
HETATM   18  C   UNL     1      -9.756  12.630  70.134  1.00  0.00     3.538 C  
HETATM   19  C   UNL     1     -10.288  12.511  71.568  1.00  0.00     9.399 C  
HETATM   20  C   UNL     1     -11.946  11.967  67.221  1.00  0.00    -0.111 C  
HETATM   21  C   UNL     1     -11.555  12.161  71.826  1.00  0.00     3.024 C  
HETATM   22  C   UNL     1     -12.783  11.387  68.345  1.00  0.00     1.816 C  
ENDROOT
BRANCH   6  23
HETATM   23  O   UNL     1      -7.913   8.708  63.947  1.00  0.00    -0.144 OA 
HETATM   24  C   UNL     1      -6.498   8.832  63.775  1.00  0.00    -0.087 C  
ENDBRANCH   6  23
BRANCH   8  25
HETATM   25  C   UNL     1      -9.426   7.221  66.092  1.00  0.00    -0.064 C  
HETATM   26  C   UNL     1      -7.594   2.275  66.013  1.00  0.00    -0.068 C  
HETATM   27  C   UNL     1     -10.442   4.278  67.734  1.00  0.00     0.577 C  
HETATM   28  N   UNL     1      -8.915   2.930  66.075  1.00  0.00    -0.143 NA 
HETATM   29  C   UNL     1      -6.296   3.173  66.091  1.00  0.00    -0.028 C  
HETATM   30  C   UNL     1      -9.841   5.568  68.270  1.00  0.00    -0.185 A  
HETATM   31  C   UNL     1      -6.512   4.507  65.316  1.00  0.00    -0.036 C  
HETATM   32  C   UNL     1      -9.654   4.951  70.830  1.00  0.00    -0.241 A  
HETATM   33  O   UNL     1      -5.225   2.467  65.438  1.00  0.00    -0.007 OA 
HETATM   34  C   UNL     1      -8.165   6.545  65.345  1.00  0.00    -0.135 C  
HETATM   35  C   UNL     1      -8.926   4.122  65.246  1.00  0.00    -0.134 C  
HETATM   36  H   UNL     1      -4.445   3.007  65.485  1.00  0.00     0.000 HD 
HETATM   37  C   UNL     1      -9.483   6.763  67.612  1.00  0.00    -0.118 A  
HETATM   38  C   UNL     1      -9.219   5.447  72.068  1.00  0.00    -0.152 A  
HETATM   39  N   UNL     1      -9.195   7.657  68.628  1.00  0.00    -0.142 NA 
HETATM   40  C   UNL     1      -9.544   5.755  69.676  1.00  0.00    -0.193 A  
HETATM   41  C   UNL     1      -7.866   5.098  65.737  1.00  0.00    -0.095 C  
HETATM   42  C   UNL     1      -9.059   7.043  69.837  1.00  0.00    -0.141 A  
HETATM   43  C   UNL     1      -9.445   3.120  67.441  1.00  0.00    -0.133 C  
HETATM   44  C   UNL     1      -8.599   7.556  71.057  1.00  0.00    -0.132 A  
HETATM   45  H   UNL     1      -9.096   8.662  68.488  1.00  0.00     0.000 HD 
HETATM   46  C   UNL     1      -8.677   6.723  72.174  1.00  0.00    -0.132 A  
BRANCH  25  47
HETATM   47  C   UNL     1     -10.779   6.804  65.453  1.00  0.00     3.635 C  
HETATM   48  O   UNL     1     -11.887   7.147  65.870  1.00  0.00     3.982 OA 
BRANCH  47  49
HETATM   49  O   UNL     1     -10.601   6.002  64.353  1.00  0.00     3.484 OA 
HETATM   50  C   UNL     1     -11.202   4.705  64.447  1.00  0.00     0.743 C  
ENDBRANCH  47  49
ENDBRANCH  25  47
BRANCH  29  51
HETATM   51  C   UNL     1      -5.862   3.409  67.563  1.00  0.00    -0.023 C  
HETATM   52  C   UNL     1      -6.767   2.755  68.608  1.00  0.00    -0.037 C  
ENDBRANCH  29  51
ENDBRANCH   8  25
BRANCH  18  53
HETATM   53  C   UNL     1      -8.287  12.045  70.181  1.00  0.00     3.395 C  
HETATM   54  C   UNL     1      -7.849  10.742  69.526  1.00  0.00    -0.045 C  
ENDBRANCH  18  53
BRANCH  15  55
HETATM   55  O   UNL     1      -9.917  15.039  70.632  1.00  0.00     0.249 OA 
BRANCH  55  56
HETATM   56  C   UNL     1     -11.091  15.407  71.238  1.00  0.00    -0.286 C  
HETATM   57  O   UNL     1     -11.627  14.834  72.177  1.00  0.00    -0.277 OA 
HETATM   58  C   UNL     1     -11.560  16.740  70.707  1.00  0.00     0.521 C  
ENDBRANCH  55  56
ENDBRANCH  15  55
BRANCH  14  59
HETATM   59  C   UNL     1      -9.707  15.799  67.713  1.00  0.00    -0.216 C  
HETATM   60  O   UNL     1     -10.599  16.053  66.912  1.00  0.00    -0.312 OA 
BRANCH  59  61
HETATM   61  O   UNL     1      -8.777  16.716  68.125  1.00  0.00    -0.192 OA 
HETATM   62  C   UNL     1      -7.707  16.963  67.207  1.00  0.00    -0.169 C  
ENDBRANCH  59  61
ENDBRANCH  14  59
TORSDOF 10
ENDMDL
MODEL       46
REMARK 921   NORMALIZED FREE ENERGY PREDICTED BY IDOCK:   24.88 KCAL/MOL
REMARK 922        TOTAL FREE ENERGY PREDICTED BY IDOCK:   38.27 KCAL/MOL
REMARK 923 INTER-LIGAND FREE ENERGY PREDICTED BY IDOCK:   32.40 KCAL/MOL
REMARK 924 INTRA-LIGAND FREE ENERGY PREDICTED BY IDOCK:    5.87 KCAL/MOL
REMARK 927      BINDING AFFINITY PREDICTED BY RF-SCORE:    0.00 PKD
ROOT
HETATM    1  C   UNL     1      -6.768  14.535  69.492  1.00  0.00    -0.151 C  
HETATM    2  N   UNL     1      -6.428  13.851  70.761  1.00  0.00     0.073 NA 
HETATM    3  C   UNL     1      -5.609  14.414  71.809  1.00  0.00    -0.127 C  
HETATM    4  C   UNL     1      -6.551  12.497  70.545  1.00  0.00     0.949 A  
HETATM    5  C   UNL     1      -6.037  11.460  71.293  1.00  0.00     0.809 A  
HETATM    6  C   UNL     1      -6.353  10.134  70.972  1.00  0.00     0.072 A  
HETATM    7  N   UNL     1      -9.068  13.538  66.743  1.00  0.00    -0.237 NA 
HETATM    8  C   UNL     1      -7.322   9.855  69.981  1.00  0.00    -0.159 A  
HETATM    9  C   UNL     1      -7.797  10.941  69.209  1.00  0.00    -0.096 A  
HETATM   10  C   UNL     1      -9.925  14.363  65.934  1.00  0.00    -0.328 C  
HETATM   11  H   UNL     1      -8.409  16.944  71.150  1.00  0.00     0.000 HD 
HETATM   12  O   UNL     1      -7.983  16.104  71.025  1.00  0.00     3.218 OA 
HETATM   13  C   UNL     1      -7.330  12.217  69.440  1.00  0.00     0.253 A  
HETATM   14  C   UNL     1      -7.470  15.919  69.697  1.00  0.00    -0.056 C  
HETATM   15  C   UNL     1      -8.622  16.050  68.695  1.00  0.00    -0.206 C  
HETATM   16  C   UNL     1      -7.533  13.451  68.591  1.00  0.00    -0.104 C  
HETATM   17  C   UNL     1      -9.020  13.649  68.197  1.00  0.00    -0.191 C  
HETATM   18  C   UNL     1      -9.695  14.904  68.833  1.00  0.00    -0.223 C  
HETATM   19  C   UNL     1     -10.936  15.282  68.016  1.00  0.00    -0.299 C  
HETATM   20  C   UNL     1      -6.790  13.244  67.240  1.00  0.00     0.034 C  
HETATM   21  C   UNL     1     -11.025  15.027  66.704  1.00  0.00    -0.325 C  
HETATM   22  C   UNL     1      -7.841  13.079  66.159  1.00  0.00     1.704 C  
ENDROOT
BRANCH   6  23
HETATM   23  O   UNL     1      -5.754   9.104  71.644  1.00  0.00    -0.059 OA 
HETATM   24  C   UNL     1      -6.136   8.980  73.017  1.00  0.00     0.056 C  
ENDBRANCH   6  23
BRANCH   8  25
HETATM   25  C   UNL     1      -7.908   8.433  69.640  1.00  0.00    -0.100 C  
HETATM   26  C   UNL     1     -11.653   5.376  67.530  1.00  0.00     2.534 C  
HETATM   27  C   UNL     1      -7.822   5.242  68.160  1.00  0.00    -0.088 C  
HETATM   28  N   UNL     1     -10.441   5.179  68.351  1.00  0.00    -0.074 NA 
HETATM   29  C   UNL     1     -11.972   6.823  66.981  1.00  0.00     2.505 C  
HETATM   30  C   UNL     1      -7.234   6.570  67.711  1.00  0.00    -0.090 A  
HETATM   31  C   UNL     1     -11.599   7.900  68.043  1.00  0.00     1.500 C  
HETATM   32  C   UNL     1      -6.190   5.846  65.397  1.00  0.00    -0.037 A  
HETATM   33  O   UNL     1     -13.392   6.912  66.761  1.00  0.00     9.416 OA 
HETATM   34  C   UNL     1      -9.488   8.665  69.400  1.00  0.00    -0.161 C  
HETATM   35  C   UNL     1     -10.302   6.259  69.311  1.00  0.00    -0.218 C  
HETATM   36  H   UNL     1     -13.584   7.782  66.431  1.00  0.00     0.000 HD 
HETATM   37  C   UNL     1      -7.229   7.836  68.335  1.00  0.00    -0.093 A  
HETATM   38  C   UNL     1      -5.498   6.341  64.282  1.00  0.00    -0.018 A  
HETATM   39  N   UNL     1      -6.367   8.604  67.574  1.00  0.00    -0.056 NA 
HETATM   40  C   UNL     1      -6.515   6.713  66.461  1.00  0.00    -0.043 A  
HETATM   41  C   UNL     1     -10.193   7.587  68.576  1.00  0.00    -0.216 C  
HETATM   42  C   UNL     1      -6.070   8.023  66.377  1.00  0.00    -0.045 A  
HETATM   43  C   UNL     1      -9.218   4.873  67.580  1.00  0.00    -0.124 C  
HETATM   44  C   UNL     1      -5.396   8.548  65.268  1.00  0.00    -0.035 A  
HETATM   45  H   UNL     1      -5.996   9.506  67.874  1.00  0.00     0.000 HD 
HETATM   46  C   UNL     1      -5.128   7.679  64.209  1.00  0.00    -0.029 A  
BRANCH  25  47
HETATM   47  C   UNL     1      -7.631   7.423  70.787  1.00  0.00    -0.083 C  
HETATM   48  O   UNL     1      -8.206   7.425  71.877  1.00  0.00    -0.104 OA 
BRANCH  47  49
HETATM   49  O   UNL     1      -6.664   6.511  70.444  1.00  0.00    -0.050 OA 
HETATM   50  C   UNL     1      -5.388   6.724  71.062  1.00  0.00    -0.023 C  
ENDBRANCH  47  49
ENDBRANCH  25  47
BRANCH  29  51
HETATM   51  C   UNL     1     -11.277   7.073  65.616  1.00  0.00     4.477 C  
HETATM   52  C   UNL     1      -9.815   7.506  65.714  1.00  0.00     0.633 C  
ENDBRANCH  29  51
ENDBRANCH   8  25
BRANCH  18  53
HETATM   53  C   UNL     1     -10.247  14.390  70.223  1.00  0.00     0.814 C  
HETATM   54  C   UNL     1      -9.484  13.485  71.181  1.00  0.00     8.322 C  
ENDBRANCH  18  53
BRANCH  15  55
HETATM   55  O   UNL     1      -9.294  17.333  68.722  1.00  0.00    -0.264 OA 
BRANCH  55  56
HETATM   56  C   UNL     1      -9.435  17.895  67.480  1.00  0.00    -0.258 C  
HETATM   57  O   UNL     1     -10.339  17.669  66.685  1.00  0.00    -0.336 OA 
HETATM   58  C   UNL     1      -8.410  18.984  67.277  1.00  0.00    -0.296 C  
ENDBRANCH  55  56
ENDBRANCH  15  55
BRANCH  14  59
HETATM   59  C   UNL     1      -6.405  17.037  69.564  1.00  0.00    -0.235 C  
HETATM   60  O   UNL     1      -5.446  17.026  68.802  1.00  0.00    -0.134 OA 
BRANCH  59  61
HETATM   61  O   UNL     1      -6.595  17.994  70.525  1.00  0.00     0.623 OA 
HETATM   62  C   UNL     1      -6.972  19.288  70.042  1.00  0.00     0.175 C  
ENDBRANCH  59  61
ENDBRANCH  14  59
TORSDOF 10
ENDMDL
MODEL       47
REMARK 921   NORMALIZED FREE ENERGY PREDICTED BY IDOCK:   25.67 KCAL/MOL
REMARK 922        TOTAL FREE ENERGY PREDICTED BY IDOCK:   39.53 KCAL/MOL
REMARK 923 INTER-LIGAND FREE ENERGY PREDICTED BY IDOCK:   36.77 KCAL/MOL
REMARK 924 INTRA-LIGAND FREE ENERGY PREDICTED BY IDOCK:    2.76 KCAL/MOL
REMARK 927      BINDING AFFINITY PREDICTED BY RF-SCORE:    0.00 PKD
ROOT
HETATM    1  C   UNL     1     -10.027   7.500  69.497  1.00  0.00    -0.180 C  
HETATM    2  N   UNL     1      -9.674   7.587  68.061  1.00  0.00    -0.143 NA 
HETATM    3  C   UNL     1      -8.936   6.584  67.329  1.00  0.00    -0.114 C  
HETATM    4  C   UNL     1      -9.684   8.919  67.714  1.00  0.00    -0.160 A  
HETATM    5  C   UNL     1      -9.113   9.522  66.614  1.00  0.00    -0.179 A  
HETATM    6  C   UNL     1      -9.312  10.888  66.375  1.00  0.00    -0.176 A  
HETATM    7  N   UNL     1     -12.152   9.706  71.607  1.00  0.00    -0.389 NA 
HETATM    8  C   UNL     1     -10.224  11.621  67.168  1.00  0.00    -0.240 A  
HETATM    9  C   UNL     1     -10.759  10.980  68.310  1.00  0.00    -0.235 A  
HETATM   10  C   UNL     1     -13.046   9.350  72.677  1.00  0.00    -0.176 C  
HETATM   11  H   UNL     1     -11.905   4.778  68.941  1.00  0.00     0.000 HD 
HETATM   12  O   UNL     1     -11.410   5.558  68.720  1.00  0.00     0.267 OA 
HETATM   13  C   UNL     1     -10.402   9.683  68.612  1.00  0.00    -0.226 A  
HETATM   14  C   UNL     1     -10.842   6.215  69.862  1.00  0.00    -0.353 C  
HETATM   15  C   UNL     1     -11.969   6.594  70.830  1.00  0.00    -0.353 C  
HETATM   16  C   UNL     1     -10.675   8.914  69.884  1.00  0.00    -0.236 C  
HETATM   17  C   UNL     1     -12.160   9.018  70.321  1.00  0.00     0.288 C  
HETATM   18  C   UNL     1     -12.951   7.676  70.241  1.00  0.00     1.008 C  
HETATM   19  C   UNL     1     -14.192   7.764  71.138  1.00  0.00    -0.296 C  
HETATM   20  C   UNL     1      -9.876   9.581  71.041  1.00  0.00    -0.236 C  
HETATM   21  C   UNL     1     -14.219   8.529  72.237  1.00  0.00    -0.471 C  
HETATM   22  C   UNL     1     -10.875  10.254  71.961  1.00  0.00     2.671 C  
ENDROOT
BRANCH   6  23
HETATM   23  O   UNL     1      -8.656  11.507  65.348  1.00  0.00     0.047 OA 
HETATM   24  C   UNL     1      -8.982  11.017  64.044  1.00  0.00    -0.041 C  
ENDBRANCH   6  23
BRANCH   8  25
HETATM   25  C   UNL     1     -10.686  13.105  66.908  1.00  0.00    -0.270 C  
HETATM   26  C   UNL     1     -12.471  17.751  68.653  1.00  0.00     5.336 C  
HETATM   27  C   UNL     1     -10.249  16.405  65.766  1.00  0.00    -0.370 C  
HETATM   28  N   UNL     1     -12.226  17.118  67.341  1.00  0.00     2.274 NA 
HETATM   29  C   UNL     1     -12.030  16.984  69.961  1.00  0.00     2.255 C  
HETATM   30  C   UNL     1      -9.264  15.414  66.365  1.00  0.00    -0.339 A  
HETATM   31  C   UNL     1     -12.281  15.455  69.805  1.00  0.00    -0.336 C  
HETATM   32  C   UNL     1      -7.092  16.912  66.425  1.00  0.00    -0.241 A  
HETATM   33  O   UNL     1     -12.855  17.444  71.048  1.00  0.00     5.290 OA 
HETATM   34  C   UNL     1     -11.581  13.509  68.189  1.00  0.00    -0.368 C  
HETATM   35  C   UNL     1     -12.571  15.709  67.389  1.00  0.00     1.858 C  
HETATM   36  H   UNL     1     -12.588  16.983  71.835  1.00  0.00     0.000 HD 
HETATM   37  C   UNL     1      -9.435  14.074  66.774  1.00  0.00    -0.282 A  
HETATM   38  C   UNL     1      -5.744  16.908  66.813  1.00  0.00    -0.177 A  
HETATM   39  N   UNL     1      -8.156  13.614  67.032  1.00  0.00    -0.384 NA 
HETATM   40  C   UNL     1      -7.875  15.752  66.602  1.00  0.00    -0.192 A  
HETATM   41  C   UNL     1     -11.725  15.010  68.443  1.00  0.00    -0.341 C  
HETATM   42  C   UNL     1      -7.244  14.625  67.102  1.00  0.00     0.120 A  
HETATM   43  C   UNL     1     -10.903  17.414  66.754  1.00  0.00     0.024 C  
HETATM   44  C   UNL     1      -5.906  14.599  67.516  1.00  0.00     0.102 A  
HETATM   45  H   UNL     1      -7.922  12.629  67.155  1.00  0.00     0.000 HD 
HETATM   46  C   UNL     1      -5.167  15.773  67.373  1.00  0.00     0.023 A  
BRANCH  25  47
HETATM   47  C   UNL     1     -11.480  13.220  65.578  1.00  0.00    -0.311 C  
HETATM   48  O   UNL     1     -12.600  12.741  65.386  1.00  0.00    -0.607 OA 
BRANCH  47  49
HETATM   49  O   UNL     1     -10.789  13.928  64.627  1.00  0.00    -0.390 OA 
HETATM   50  C   UNL     1     -11.508  14.171  63.413  1.00  0.00     1.036 C  
ENDBRANCH  47  49
ENDBRANCH  25  47
BRANCH  29  51
HETATM   51  C   UNL     1     -10.557  17.306  70.332  1.00  0.00     0.864 C  
HETATM   52  C   UNL     1      -9.722  17.882  69.189  1.00  0.00    -0.102 C  
ENDBRANCH  29  51
ENDBRANCH   8  25
BRANCH  18  53
HETATM   53  C   UNL     1     -13.505   7.636  68.760  1.00  0.00    11.124 C  
HETATM   54  C   UNL     1     -12.659   7.366  67.522  1.00  0.00     7.928 C  
ENDBRANCH  18  53
BRANCH  15  55
HETATM   55  O   UNL     1     -12.741   5.470  71.318  1.00  0.00     1.780 OA 
BRANCH  55  56
HETATM   56  C   UNL     1     -12.724   5.356  72.685  1.00  0.00     0.713 C  
HETATM   57  O   UNL     1     -13.271   4.481  73.342  1.00  0.00     0.750 OA 
HETATM   58  C   UNL     1     -11.777   6.368  73.283  1.00  0.00     0.574 C  
ENDBRANCH  55  56
ENDBRANCH  15  55
BRANCH  14  59
HETATM   59  C   UNL     1      -9.865   5.157  70.436  1.00  0.00    -0.218 C  
HETATM   60  O   UNL     1      -9.475   4.152  69.855  1.00  0.00    -0.158 OA 
BRANCH  59  61
HETATM   61  O   UNL     1      -9.600   5.418  71.755  1.00  0.00    -0.145 OA 
HETATM   62  C   UNL     1      -8.318   4.988  72.223  1.00  0.00    -0.121 C  
ENDBRANCH  59  61
ENDBRANCH  14  59
TORSDOF 10
ENDMDL
MODEL       48
REMARK 921   NORMALIZED FREE ENERGY PREDICTED BY IDOCK:   26.91 KCAL/MOL
REMARK 922        TOTAL FREE ENERGY PREDICTED BY IDOCK:   41.49 KCAL/MOL
REMARK 923 INTER-LIGAND FREE ENERGY PREDICTED BY IDOCK:   30.90 KCAL/MOL
REMARK 924 INTRA-LIGAND FREE ENERGY PREDICTED BY IDOCK:   10.59 KCAL/MOL
REMARK 927      BINDING AFFINITY PREDICTED BY RF-SCORE:    0.00 PKD
ROOT
HETATM    1  C   UNL     1      -8.044  15.654  67.034  1.00  0.00    -0.241 C  
HETATM    2  N   UNL     1      -7.303  15.093  68.187  1.00  0.00    -0.105 NA 
HETATM    3  C   UNL     1      -6.492  15.863  69.101  1.00  0.00    -0.152 C  
HETATM    4  C   UNL     1      -7.087  13.759  67.929  1.00  0.00    -0.158 A  
HETATM    5  C   UNL     1      -6.180  12.906  68.521  1.00  0.00    -0.077 A  
HETATM    6  C   UNL     1      -6.172  11.545  68.194  1.00  0.00    -0.045 A  
HETATM    7  N   UNL     1     -10.446  14.051  64.688  1.00  0.00    -0.430 NA 
HETATM    8  C   UNL     1      -7.193  11.006  67.377  1.00  0.00    -0.103 A  
HETATM    9  C   UNL     1      -8.081  11.915  66.757  1.00  0.00    -0.108 A  
HETATM   10  C   UNL     1     -11.631  14.603  64.086  1.00  0.00    -0.101 C  
HETATM   11  H   UNL     1      -9.950  17.510  69.075  1.00  0.00     0.000 HD 
HETATM   12  O   UNL     1      -9.341  16.823  68.835  1.00  0.00    -0.245 OA 
HETATM   13  C   UNL     1      -7.948  13.271  66.965  1.00  0.00     0.013 A  
HETATM   14  C   UNL     1      -9.049  16.787  67.429  1.00  0.00    -0.216 C  
HETATM   15  C   UNL     1     -10.357  16.590  66.655  1.00  0.00    -0.298 C  
HETATM   16  C   UNL     1      -8.634  14.398  66.230  1.00  0.00     0.375 C  
HETATM   17  C   UNL     1     -10.165  14.173  66.115  1.00  0.00    -0.304 C  
HETATM   18  C   UNL     1     -11.029  15.190  66.922  1.00  0.00    -0.323 C  
HETATM   19  C   UNL     1     -12.455  15.206  66.357  1.00  0.00     0.768 C  
HETATM   20  C   UNL     1      -8.125  14.406  64.760  1.00  0.00     8.870 C  
HETATM   21  C   UNL     1     -12.710  14.935  65.070  1.00  0.00     0.151 C  
HETATM   22  C   UNL     1      -9.270  13.953  63.875  1.00  0.00     5.148 C  
ENDROOT
BRANCH   6  23
HETATM   23  O   UNL     1      -5.201  10.724  68.697  1.00  0.00    -0.041 OA 
HETATM   24  C   UNL     1      -5.555  10.042  69.904  1.00  0.00    -0.038 C  
ENDBRANCH   6  23
BRANCH   8  25
HETATM   25  C   UNL     1      -7.418   9.476  67.074  1.00  0.00    -0.091 C  
HETATM   26  C   UNL     1      -7.120   4.404  68.488  1.00  0.00    -0.052 C  
HETATM   27  C   UNL     1      -9.368   6.661  66.266  1.00  0.00    -0.144 C  
HETATM   28  N   UNL     1      -7.458   5.160  67.266  1.00  0.00    -0.083 NA 
HETATM   29  C   UNL     1      -6.861   5.200  69.828  1.00  0.00    -0.052 C  
HETATM   30  C   UNL     1      -9.698   7.912  67.063  1.00  0.00    -0.269 A  
HETATM   31  C   UNL     1      -6.103   6.528  69.531  1.00  0.00    -0.022 C  
HETATM   32  C   UNL     1     -12.169   7.343  67.797  1.00  0.00     4.207 A  
HETATM   33  O   UNL     1      -6.008   4.398  70.665  1.00  0.00    -0.013 OA 
HETATM   34  C   UNL     1      -6.428   8.688  68.076  1.00  0.00    -0.057 C  
HETATM   35  C   UNL     1      -6.606   6.330  67.146  1.00  0.00    -0.058 C  
HETATM   36  H   UNL     1      -5.852   4.877  71.471  1.00  0.00     0.000 HD 
HETATM   37  C   UNL     1      -8.928   9.060  67.341  1.00  0.00    -0.124 A  
HETATM   38  C   UNL     1     -13.253   7.832  68.542  1.00  0.00    11.196 A  
HETATM   39  N   UNL     1      -9.813   9.952  67.919  1.00  0.00    -0.141 NA 
HETATM   40  C   UNL     1     -10.989   8.108  67.692  1.00  0.00     0.066 A  
HETATM   41  C   UNL     1      -6.800   7.231  68.356  1.00  0.00    -0.073 C  
HETATM   42  C   UNL     1     -10.982   9.358  68.290  1.00  0.00    -0.032 A  
HETATM   43  C   UNL     1      -8.901   5.422  67.083  1.00  0.00    -0.109 C  
HETATM   44  C   UNL     1     -12.041   9.862  69.056  1.00  0.00     0.739 A  
HETATM   45  H   UNL     1      -9.613  10.944  68.052  1.00  0.00     0.000 HD 
HETATM   46  C   UNL     1     -13.178   9.065  69.182  1.00  0.00     5.731 A  
BRANCH  25  47
HETATM   47  C   UNL     1      -7.125   9.151  65.584  1.00  0.00    -0.082 C  
HETATM   48  O   UNL     1      -6.495   8.166  65.192  1.00  0.00    -0.051 OA 
BRANCH  47  49
HETATM   49  O   UNL     1      -7.657  10.093  64.739  1.00  0.00    -0.141 OA 
HETATM   50  C   UNL     1      -8.854   9.690  64.062  1.00  0.00    -0.227 C  
ENDBRANCH  47  49
ENDBRANCH  25  47
BRANCH  29  51
HETATM   51  C   UNL     1      -8.182   5.436  70.608  1.00  0.00    -0.114 C  
HETATM   52  C   UNL     1      -9.037   6.589  70.082  1.00  0.00    -0.155 C  
ENDBRANCH  29  51
ENDBRANCH   8  25
BRANCH  18  53
HETATM   53  C   UNL     1     -11.154  14.544  68.360  1.00  0.00    -0.271 C  
HETATM   54  C   UNL     1     -10.577  13.192  68.759  1.00  0.00    -0.225 C  
ENDBRANCH  18  53
BRANCH  15  55
HETATM   55  O   UNL     1     -11.339  17.635  66.865  1.00  0.00     0.387 OA 
BRANCH  55  56
HETATM   56  C   UNL     1     -10.786  18.886  66.947  1.00  0.00    -0.370 C  
HETATM   57  O   UNL     1     -10.353  19.546  66.011  1.00  0.00    -0.462 OA 
HETATM   58  C   UNL     1     -10.941  19.438  68.344  1.00  0.00     0.435 C  
ENDBRANCH  55  56
ENDBRANCH  15  55
BRANCH  14  59
HETATM   59  C   UNL     1      -8.376  18.157  67.167  1.00  0.00    -0.238 C  
HETATM   60  O   UNL     1      -7.494  18.377  66.345  1.00  0.00    -0.222 OA 
BRANCH  59  61
HETATM   61  O   UNL     1      -8.799  19.081  68.085  1.00  0.00    -0.295 OA 
HETATM   62  C   UNL     1      -8.068  19.107  69.316  1.00  0.00    -0.026 C  
ENDBRANCH  59  61
ENDBRANCH  14  59
TORSDOF 10
ENDMDL
MODEL       49
REMARK 921   NORMALIZED FREE ENERGY PREDICTED BY IDOCK:   29.38 KCAL/MOL
REMARK 922        TOTAL FREE ENERGY PREDICTED BY IDOCK:   45.40 KCAL/MOL
REMARK 923 INTER-LIGAND FREE ENERGY PREDICTED BY IDOCK:   24.50 KCAL/MOL
REMARK 924 INTRA-LIGAND FREE ENERGY PREDICTED BY IDOCK:   20.90 KCAL/MOL
REMARK 927      BINDING AFFINITY PREDICTED BY RF-SCORE:    0.00 PKD
ROOT
HETATM    1  C   UNL     1      -8.329   7.417  66.031  1.00  0.00    -0.143 C  
HETATM    2  N   UNL     1      -9.251   8.051  65.059  1.00  0.00     0.460 NA 
HETATM    3  C   UNL     1      -9.805   7.395  63.898  1.00  0.00     4.986 C  
HETATM    4  C   UNL     1      -9.060   9.412  65.138  1.00  0.00    -0.225 A  
HETATM    5  C   UNL     1      -9.425  10.382  64.229  1.00  0.00    -0.349 A  
HETATM    6  C   UNL     1      -9.234  11.737  64.528  1.00  0.00     0.240 A  
HETATM    7  N   UNL     1      -6.970   8.678  69.256  1.00  0.00    -0.057 NA 
HETATM    8  C   UNL     1      -8.814  12.126  65.821  1.00  0.00     0.259 A  
HETATM    9  C   UNL     1      -8.412  11.103  66.711  1.00  0.00    -0.153 A  
HETATM   10  C   UNL     1      -6.706   7.956  70.472  1.00  0.00    -0.038 C  
HETATM   11  H   UNL     1     -10.676   5.186  66.904  1.00  0.00     0.000 HD 
HETATM   12  O   UNL     1     -10.325   5.976  66.510  1.00  0.00    -0.191 OA 
HETATM   13  C   UNL     1      -8.448   9.783  66.318  1.00  0.00    -0.129 A  
HETATM   14  C   UNL     1      -8.907   6.116  66.680  1.00  0.00    -0.127 C  
HETATM   15  C   UNL     1      -8.583   6.117  68.179  1.00  0.00    -0.115 C  
HETATM   16  C   UNL     1      -7.856   8.584  67.023  1.00  0.00    -0.096 C  
HETATM   17  C   UNL     1      -8.228   8.550  68.529  1.00  0.00    -0.123 C  
HETATM   18  C   UNL     1      -9.164   7.371  68.936  1.00  0.00    -0.142 C  
HETATM   19  C   UNL     1      -9.056   7.135  70.447  1.00  0.00    -0.156 C  
HETATM   20  C   UNL     1      -6.306   8.721  67.003  1.00  0.00    -0.060 C  
HETATM   21  C   UNL     1      -7.935   7.408  71.129  1.00  0.00    -0.100 C  
HETATM   22  C   UNL     1      -5.852   9.006  68.421  1.00  0.00    -0.042 C  
ENDROOT
BRANCH   6  23
HETATM   23  O   UNL     1      -9.492  12.690  63.583  1.00  0.00     0.026 OA 
HETATM   24  C   UNL     1     -10.062  13.901  64.089  1.00  0.00     0.942 C  
ENDBRANCH   6  23
BRANCH   8  25
HETATM   25  C   UNL     1      -8.731  13.605  66.356  1.00  0.00     0.219 C  
HETATM   26  C   UNL     1      -9.912  18.729  65.945  1.00  0.00    -0.116 C  
HETATM   27  C   UNL     1      -9.204  16.139  68.752  1.00  0.00    -0.224 C  
HETATM   28  N   UNL     1      -9.049  17.891  66.801  1.00  0.00    -0.261 NA 
HETATM   29  C   UNL     1     -10.868  18.022  64.905  1.00  0.00     1.316 C  
HETATM   30  C   UNL     1     -10.014  14.890  68.442  1.00  0.00    -0.222 A  
HETATM   31  C   UNL     1     -10.165  16.782  64.279  1.00  0.00     3.158 C  
HETATM   32  C   UNL     1     -11.993  15.194  70.162  1.00  0.00    -0.374 A  
HETATM   33  O   UNL     1     -11.130  18.951  63.837  1.00  0.00     3.544 OA 
HETATM   34  C   UNL     1      -9.056  14.543  65.083  1.00  0.00     1.556 C  
HETATM   35  C   UNL     1      -8.447  16.826  66.019  1.00  0.00    -0.165 C  
HETATM   36  H   UNL     1     -11.705  18.525  63.212  1.00  0.00     0.000 HD 
HETATM   37  C   UNL     1      -9.790  13.851  67.514  1.00  0.00    -0.236 A  
HETATM   38  C   UNL     1     -13.192  14.611  70.597  1.00  0.00    -0.259 A  
HETATM   39  N   UNL     1     -10.729  12.885  67.827  1.00  0.00    -0.221 NA 
HETATM   40  C   UNL     1     -11.237  14.568  69.148  1.00  0.00    -0.294 A  
HETATM   41  C   UNL     1      -9.538  15.956  65.413  1.00  0.00    -0.015 C  
HETATM   42  C   UNL     1     -11.696  13.352  68.667  1.00  0.00    -0.349 A  
HETATM   43  C   UNL     1      -9.673  17.455  68.067  1.00  0.00    -0.281 C  
HETATM   44  C   UNL     1     -12.898  12.758  69.069  1.00  0.00     1.330 A  
HETATM   45  H   UNL     1     -10.701  11.930  67.470  1.00  0.00     0.000 HD 
HETATM   46  C   UNL     1     -13.649  13.421  70.040  1.00  0.00     2.005 A  
BRANCH  25  47
HETATM   47  C   UNL     1      -7.333  13.904  66.963  1.00  0.00     0.407 C  
HETATM   48  O   UNL     1      -6.856  15.033  67.103  1.00  0.00    -0.260 OA 
BRANCH  47  49
HETATM   49  O   UNL     1      -6.679  12.756  67.335  1.00  0.00    -0.153 OA 
HETATM   50  C   UNL     1      -5.336  12.641  66.850  1.00  0.00     0.403 C  
ENDBRANCH  47  49
ENDBRANCH  25  47
BRANCH  29  51
HETATM   51  C   UNL     1     -12.234  17.664  65.550  1.00  0.00     5.436 C  
HETATM   52  C   UNL     1     -13.051  16.627  64.780  1.00  0.00     5.117 C  
ENDBRANCH  29  51
ENDBRANCH   8  25
BRANCH  18  53
HETATM   53  C   UNL     1     -10.625   7.930  68.701  1.00  0.00    -0.145 C  
HETATM   54  C   UNL     1     -11.016   9.400  68.779  1.00  0.00    -0.080 C  
ENDBRANCH  18  53
BRANCH  15  55
HETATM   55  O   UNL     1      -8.985   4.913  68.878  1.00  0.00    -0.101 OA 
BRANCH  55  56
HETATM   56  C   UNL     1      -9.491   3.949  68.045  1.00  0.00    -0.165 C  
HETATM   57  O   UNL     1      -9.701   4.071  66.846  1.00  0.00    -0.209 OA 
HETATM   58  C   UNL     1      -9.596   2.630  68.772  1.00  0.00    -0.070 C  
ENDBRANCH  55  56
ENDBRANCH  15  55
BRANCH  14  59
HETATM   59  C   UNL     1      -8.332   4.891  65.926  1.00  0.00    -0.114 C  
HETATM   60  O   UNL     1      -7.148   4.581  65.859  1.00  0.00    -0.068 OA 
BRANCH  59  61
HETATM   61  O   UNL     1      -9.318   4.265  65.210  1.00  0.00    -0.145 OA 
HETATM   62  C   UNL     1      -9.249   2.835  65.184  1.00  0.00    -0.139 C  
ENDBRANCH  59  61
ENDBRANCH  14  59
TORSDOF 10
ENDMDL
MODEL       50
REMARK 921   NORMALIZED FREE ENERGY PREDICTED BY IDOCK:   29.71 KCAL/MOL
REMARK 922        TOTAL FREE ENERGY PREDICTED BY IDOCK:   45.93 KCAL/MOL
REMARK 923 INTER-LIGAND FREE ENERGY PREDICTED BY IDOCK:   44.00 KCAL/MOL
REMARK 924 INTRA-LIGAND FREE ENERGY PREDICTED BY IDOCK:    1.93 KCAL/MOL
REMARK 927      BINDING AFFINITY PREDICTED BY RF-SCORE:    0.00 PKD
ROOT
HETATM    1  C   UNL     1     -11.031  12.562  68.454  1.00  0.00    -0.248 C  
HETATM    2  N   UNL     1      -9.715  12.998  67.932  1.00  0.00    -0.212 NA 
HETATM    3  C   UNL     1      -9.304  14.373  67.777  1.00  0.00    -0.200 C  
HETATM    4  C   UNL     1      -9.214  11.970  67.168  1.00  0.00    -0.190 A  
HETATM    5  C   UNL     1      -8.208  12.013  66.225  1.00  0.00     0.199 A  
HETATM    6  C   UNL     1      -7.763  10.835  65.613  1.00  0.00    -0.057 A  
HETATM    7  N   UNL     1     -12.305   9.164  69.275  1.00  0.00     1.767 NA 
HETATM    8  C   UNL     1      -8.228   9.580  66.067  1.00  0.00    -0.115 A  
HETATM    9  C   UNL     1      -9.286   9.577  67.006  1.00  0.00    -0.166 A  
HETATM   10  C   UNL     1     -13.176   8.757  70.346  1.00  0.00     1.121 C  
HETATM   11  H   UNL     1     -10.399  13.980  71.426  1.00  0.00     0.000 HD 
HETATM   12  O   UNL     1     -10.203  13.638  70.562  1.00  0.00     2.027 OA 
HETATM   13  C   UNL     1      -9.821  10.764  67.458  1.00  0.00    -0.197 A  
HETATM   14  C   UNL     1     -11.355  13.125  69.878  1.00  0.00     0.015 C  
HETATM   15  C   UNL     1     -11.983  12.012  70.726  1.00  0.00    -0.050 C  
HETATM   16  C   UNL     1     -11.080  10.970  68.266  1.00  0.00    -0.316 C  
HETATM   17  C   UNL     1     -11.147  10.024  69.494  1.00  0.00    -0.238 C  
HETATM   18  C   UNL     1     -11.054  10.748  70.873  1.00  0.00     0.431 C  
HETATM   19  C   UNL     1     -11.622   9.835  71.965  1.00  0.00     0.184 C  
HETATM   20  C   UNL     1     -12.298  10.563  67.388  1.00  0.00     3.363 C  
HETATM   21  C   UNL     1     -12.583   8.937  71.709  1.00  0.00    -0.420 C  
HETATM   22  C   UNL     1     -12.873   9.284  67.964  1.00  0.00     9.041 C  
ENDROOT
BRANCH   6  23
HETATM   23  O   UNL     1      -6.846  10.894  64.600  1.00  0.00     0.229 OA 
HETATM   24  C   UNL     1      -5.504  11.158  65.019  1.00  0.00     0.348 C  
ENDBRANCH   6  23
BRANCH   8  25
HETATM   25  C   UNL     1      -7.687   8.175  65.604  1.00  0.00    -0.090 C  
HETATM   26  C   UNL     1      -5.591   3.457  66.687  1.00  0.00    -0.021 C  
HETATM   27  C   UNL     1      -7.956   5.034  64.040  1.00  0.00    -0.102 C  
HETATM   28  N   UNL     1      -5.904   4.241  65.475  1.00  0.00    -0.022 NA 
HETATM   29  C   UNL     1      -6.046   4.016  68.093  1.00  0.00    -0.032 C  
HETATM   30  C   UNL     1      -8.983   5.875  64.781  1.00  0.00     0.263 A  
HETATM   31  C   UNL     1      -5.888   5.565  68.137  1.00  0.00    -0.017 C  
HETATM   32  C   UNL     1     -11.061   4.251  64.674  1.00  0.00     0.078 A  
HETATM   33  O   UNL     1      -5.170   3.467  69.095  1.00  0.00    -0.010 OA 
HETATM   34  C   UNL     1      -6.739   7.661  66.806  1.00  0.00    -0.066 C  
HETATM   35  C   UNL     1      -5.641   5.650  65.705  1.00  0.00    -0.013 C  
HETATM   36  H   UNL     1      -5.444   3.803  69.940  1.00  0.00     0.000 HD 
HETATM   37  C   UNL     1      -8.881   7.157  65.362  1.00  0.00     0.110 A  
HETATM   38  C   UNL     1     -12.398   4.121  65.080  1.00  0.00     5.382 A  
HETATM   39  N   UNL     1     -10.178   7.499  65.699  1.00  0.00     0.759 NA 
HETATM   40  C   UNL     1     -10.343   5.423  64.992  1.00  0.00     0.937 A  
HETATM   41  C   UNL     1      -6.502   6.151  66.856  1.00  0.00    -0.050 C  
HETATM   42  C   UNL     1     -11.027   6.434  65.648  1.00  0.00     2.483 A  
HETATM   43  C   UNL     1      -7.221   3.945  64.874  1.00  0.00    -0.067 C  
HETATM   44  C   UNL     1     -12.354   6.323  66.082  1.00  0.00     5.054 A  
HETATM   45  H   UNL     1     -10.467   8.443  65.956  1.00  0.00     0.000 HD 
HETATM   46  C   UNL     1     -13.027   5.135  65.795  1.00  0.00     8.176 A  
BRANCH  25  47
HETATM   47  C   UNL     1      -6.918   8.285  64.259  1.00  0.00    -0.073 C  
HETATM   48  O   UNL     1      -7.396   8.729  63.213  1.00  0.00    -0.097 OA 
BRANCH  47  49
HETATM   49  O   UNL     1      -5.627   7.831  64.367  1.00  0.00    -0.036 OA 
HETATM   50  C   UNL     1      -5.133   7.136  63.216  1.00  0.00    -0.033 C  
ENDBRANCH  47  49
ENDBRANCH  25  47
BRANCH  29  51
HETATM   51  C   UNL     1      -7.488   3.558  68.440  1.00  0.00    -0.053 C  
HETATM   52  C   UNL     1      -8.501   4.693  68.584  1.00  0.00    -0.092 C  
ENDBRANCH  29  51
ENDBRANCH   8  25
BRANCH  18  53
HETATM   53  C   UNL     1      -9.502  10.836  71.164  1.00  0.00     4.479 C  
HETATM   54  C   UNL     1      -8.443   9.955  70.514  1.00  0.00     0.165 C  
ENDBRANCH  18  53
BRANCH  15  55
HETATM   55  O   UNL     1     -12.415  12.436  72.042  1.00  0.00     0.088 OA 
BRANCH  55  56
HETATM   56  C   UNL     1     -13.772  12.343  72.220  1.00  0.00    -0.172 C  
HETATM   57  O   UNL     1     -14.394  11.324  72.493  1.00  0.00     0.804 OA 
HETATM   58  C   UNL     1     -14.398  13.716  72.212  1.00  0.00    -0.411 C  
ENDBRANCH  55  56
ENDBRANCH  15  55
BRANCH  14  59
HETATM   59  C   UNL     1     -12.265  14.369  69.722  1.00  0.00    -0.321 C  
HETATM   60  O   UNL     1     -13.152  14.508  68.888  1.00  0.00     0.969 OA 
BRANCH  59  61
HETATM   61  O   UNL     1     -11.851  15.372  70.558  1.00  0.00    -0.283 OA 
HETATM   62  C   UNL     1     -12.893  16.071  71.247  1.00  0.00    -0.004 C  
ENDBRANCH  59  61
ENDBRANCH  14  59
TORSDOF 10
ENDMDL
MODEL       51
REMARK 921   NORMALIZED FREE ENERGY PREDICTED BY IDOCK:   32.72 KCAL/MOL
REMARK 922        TOTAL FREE ENERGY PREDICTED BY IDOCK:   50.70 KCAL/MOL
REMARK 923 INTER-LIGAND FREE ENERGY PREDICTED BY IDOCK:   30.70 KCAL/MOL
REMARK 924 INTRA-LIGAND FREE ENERGY PREDICTED BY IDOCK:   20.00 KCAL/MOL
REMARK 927      BINDING AFFINITY PREDICTED BY RF-SCORE:    0.00 PKD
ROOT
HETATM    1  C   UNL     1      -9.999  17.275  67.967  1.00  0.00    -0.304 C  
HETATM    2  N   UNL     1     -11.336  16.637  68.001  1.00  0.00    -0.167 NA 
HETATM    3  C   UNL     1     -12.546  17.280  68.457  1.00  0.00     4.063 C  
HETATM    4  C   UNL     1     -11.143  15.276  68.045  1.00  0.00    -0.312 A  
HETATM    5  C   UNL     1     -12.037  14.294  68.415  1.00  0.00    -0.297 A  
HETATM    6  C   UNL     1     -11.688  12.942  68.302  1.00  0.00    -0.350 A  
HETATM    7  N   UNL     1      -6.768  16.055  66.587  1.00  0.00    -0.160 NA 
HETATM    8  C   UNL     1     -10.483  12.572  67.664  1.00  0.00    -0.228 A  
HETATM    9  C   UNL     1      -9.575  13.604  67.334  1.00  0.00    -0.226 A  
HETATM   10  C   UNL     1      -5.729  16.795  65.921  1.00  0.00     1.246 C  
HETATM   11  H   UNL     1     -11.068  19.559  65.756  1.00  0.00     0.000 HD 
HETATM   12  O   UNL     1     -11.092  18.756  66.263  1.00  0.00     0.018 OA 
HETATM   13  C   UNL     1      -9.878  14.918  67.621  1.00  0.00    -0.217 A  
HETATM   14  C   UNL     1      -9.960  18.598  67.132  1.00  0.00    -0.331 C  
HETATM   15  C   UNL     1      -8.679  18.620  66.289  1.00  0.00    -0.215 C  
HETATM   16  C   UNL     1      -8.964  16.120  67.562  1.00  0.00    -0.197 C  
HETATM   17  C   UNL     1      -8.176  16.188  66.227  1.00  0.00    -0.240 C  
HETATM   18  C   UNL     1      -8.561  17.390  65.311  1.00  0.00     1.981 C  
HETATM   19  C   UNL     1      -7.427  17.652  64.314  1.00  0.00     7.558 C  
HETATM   20  C   UNL     1      -7.872  15.959  68.658  1.00  0.00    -0.164 C  
HETATM   21  C   UNL     1      -6.149  17.375  64.605  1.00  0.00     2.825 C  
HETATM   22  C   UNL     1      -6.554  15.693  67.957  1.00  0.00    -0.139 C  
ENDROOT
BRANCH   6  23
HETATM   23  O   UNL     1     -12.533  11.975  68.772  1.00  0.00    -0.085 OA 
HETATM   24  C   UNL     1     -12.256  11.530  70.103  1.00  0.00    -0.308 C  
ENDBRANCH   6  23
BRANCH   8  25
HETATM   25  C   UNL     1     -10.046  11.102  67.303  1.00  0.00    -0.218 C  
HETATM   26  C   UNL     1      -7.269   7.704  64.376  1.00  0.00    -0.077 C  
HETATM   27  C   UNL     1      -8.638   7.953  68.003  1.00  0.00    -0.126 C  
HETATM   28  N   UNL     1      -8.313   7.622  65.418  1.00  0.00    -0.138 NA 
HETATM   29  C   UNL     1      -6.656   9.117  64.024  1.00  0.00    -0.089 C  
HETATM   30  C   UNL     1      -8.302   9.340  68.529  1.00  0.00    -0.119 A  
HETATM   31  C   UNL     1      -7.761  10.214  64.070  1.00  0.00    -0.136 C  
HETATM   32  C   UNL     1      -6.243   8.753  70.073  1.00  0.00    -0.037 A  
HETATM   33  O   UNL     1      -6.162   9.064  62.673  1.00  0.00    -0.094 OA 
HETATM   34  C   UNL     1      -9.500  11.174  65.786  1.00  0.00    -0.248 C  
HETATM   35  C   UNL     1      -9.273   8.699  65.255  1.00  0.00     0.037 C  
HETATM   36  H   UNL     1      -5.793   9.914  62.462  1.00  0.00     0.000 HD 
HETATM   37  C   UNL     1      -8.904  10.592  68.282  1.00  0.00    -0.139 A  
HETATM   38  C   UNL     1      -5.281   9.328  70.916  1.00  0.00    -0.030 A  
HETATM   39  N   UNL     1      -8.320  11.453  69.193  1.00  0.00    -0.377 NA 
HETATM   40  C   UNL     1      -7.216   9.570  69.460  1.00  0.00    -0.074 A  
HETATM   41  C   UNL     1      -8.562  10.040  65.370  1.00  0.00    -0.162 C  
HETATM   42  C   UNL     1      -7.209  10.919  69.776  1.00  0.00    -0.054 A  
HETATM   43  C   UNL     1      -7.799   7.451  66.792  1.00  0.00    -0.110 C  
HETATM   44  C   UNL     1      -6.249  11.523  70.598  1.00  0.00     0.214 A  
HETATM   45  H   UNL     1      -8.680  12.384  69.404  1.00  0.00     0.000 HD 
HETATM   46  C   UNL     1      -5.271  10.699  71.155  1.00  0.00    -0.098 A  
BRANCH  25  47
HETATM   47  C   UNL     1     -11.233  10.111  67.452  1.00  0.00    -0.002 C  
HETATM   48  O   UNL     1     -12.052  10.131  68.374  1.00  0.00     0.096 OA 
BRANCH  47  49
HETATM   49  O   UNL     1     -11.273   9.200  66.426  1.00  0.00     0.721 OA 
HETATM   50  C   UNL     1     -10.345   9.448  65.363  1.00  0.00     0.724 C  
ENDBRANCH  47  49
ENDBRANCH  25  47
BRANCH  29  51
HETATM   51  C   UNL     1      -5.451   9.453  64.944  1.00  0.00    -0.053 C  
HETATM   52  C   UNL     1      -5.414   8.673  66.257  1.00  0.00    -0.034 C  
ENDBRANCH  29  51
ENDBRANCH   8  25
BRANCH  18  53
HETATM   53  C   UNL     1      -9.768  16.849  64.443  1.00  0.00     4.420 C  
HETATM   54  C   UNL     1      -9.673  15.707  63.439  1.00  0.00    10.225 C  
ENDBRANCH  18  53
BRANCH  15  55
HETATM   55  O   UNL     1      -8.479  19.842  65.538  1.00  0.00    -0.276 OA 
BRANCH  55  56
HETATM   56  C   UNL     1      -7.289  20.461  65.822  1.00  0.00    -0.135 C  
HETATM   57  O   UNL     1      -6.540  20.988  65.010  1.00  0.00    -0.171 OA 
HETATM   58  C   UNL     1      -7.098  20.571  67.315  1.00  0.00    -0.362 C  
ENDBRANCH  55  56
ENDBRANCH  15  55
BRANCH  14  59
HETATM   59  C   UNL     1     -10.080  19.799  68.103  1.00  0.00    -0.452 C  
HETATM   60  O   UNL     1      -9.225  20.656  68.292  1.00  0.00     0.115 OA 
BRANCH  59  61
HETATM   61  O   UNL     1     -11.229  19.702  68.843  1.00  0.00     1.182 OA 
HETATM   62  C   UNL     1     -11.400  20.704  69.850  1.00  0.00     3.030 C  
ENDBRANCH  59  61
ENDBRANCH  14  59
TORSDOF 10
ENDMDL
MODEL       52
REMARK 921   NORMALIZED FREE ENERGY PREDICTED BY IDOCK:   33.17 KCAL/MOL
REMARK 922        TOTAL FREE ENERGY PREDICTED BY IDOCK:   51.41 KCAL/MOL
REMARK 923 INTER-LIGAND FREE ENERGY PREDICTED BY IDOCK:   30.81 KCAL/MOL
REMARK 924 INTRA-LIGAND FREE ENERGY PREDICTED BY IDOCK:   20.61 KCAL/MOL
REMARK 927      BINDING AFFINITY PREDICTED BY RF-SCORE:    0.00 PKD
ROOT
HETATM    1  C   UNL     1     -10.306  13.529  70.764  1.00  0.00     3.752 C  
HETATM    2  N   UNL     1     -11.376  12.506  70.710  1.00  0.00     1.080 NA 
HETATM    3  C   UNL     1     -12.782  12.770  70.907  1.00  0.00    -0.192 C  
HETATM    4  C   UNL     1     -10.794  11.287  70.971  1.00  0.00     2.346 A  
HETATM    5  C   UNL     1     -11.403  10.111  71.354  1.00  0.00    -0.134 A  
HETATM    6  C   UNL     1     -10.651   8.935  71.480  1.00  0.00    -0.329 A  
HETATM    7  N   UNL     1      -6.673  13.276  70.008  1.00  0.00     0.169 NA 
HETATM    8  C   UNL     1      -9.300   8.909  71.065  1.00  0.00    -0.313 A  
HETATM    9  C   UNL     1      -8.701  10.142  70.716  1.00  0.00     1.114 A  
HETATM   10  C   UNL     1      -5.806  14.243  69.388  1.00  0.00    -0.095 C  
HETATM   11  H   UNL     1     -11.618  15.140  68.132  1.00  0.00     0.000 HD 
HETATM   12  O   UNL     1     -11.487  14.422  68.739  1.00  0.00    -0.257 OA 
HETATM   13  C   UNL     1      -9.428  11.311  70.773  1.00  0.00     4.819 A  
HETATM   14  C   UNL     1     -10.523  14.713  69.763  1.00  0.00     0.007 C  
HETATM   15  C   UNL     1      -9.185  15.062  69.102  1.00  0.00    -0.183 C  
HETATM   16  C   UNL     1      -8.919  12.730  70.666  1.00  0.00     7.732 C  
HETATM   17  C   UNL     1      -7.974  12.921  69.451  1.00  0.00     0.841 C  
HETATM   18  C   UNL     1      -8.540  13.848  68.332  1.00  0.00    -0.169 C  
HETATM   19  C   UNL     1      -7.384  14.364  67.466  1.00  0.00    -0.208 C  
HETATM   20  C   UNL     1      -8.031  13.028  71.908  1.00  0.00    12.413 C  
HETATM   21  C   UNL     1      -6.151  14.535  67.960  1.00  0.00    -0.161 C  
HETATM   22  C   UNL     1      -6.595  13.130  71.432  1.00  0.00     2.372 C  
ENDROOT
BRANCH   6  23
HETATM   23  O   UNL     1     -11.234   7.798  71.966  1.00  0.00    -0.252 OA 
HETATM   24  C   UNL     1     -10.751   6.581  71.390  1.00  0.00    -0.238 C  
ENDBRANCH   6  23
BRANCH   8  25
HETATM   25  C   UNL     1      -8.388   7.628  70.976  1.00  0.00    -0.112 C  
HETATM   26  C   UNL     1      -7.809   2.407  70.498  1.00  0.00    -0.042 C  
HETATM   27  C   UNL     1      -5.855   5.632  69.568  1.00  0.00    -0.016 C  
HETATM   28  N   UNL     1      -6.934   3.564  70.775  1.00  0.00    -0.033 NA 
HETATM   29  C   UNL     1      -9.322   2.669  70.126  1.00  0.00    -0.123 C  
HETATM   30  C   UNL     1      -6.839   6.600  68.930  1.00  0.00    -0.062 A  
HETATM   31  C   UNL     1      -9.887   3.857  70.960  1.00  0.00    -0.219 C  
HETATM   32  C   UNL     1      -6.193   6.294  66.389  1.00  0.00    -0.037 A  
HETATM   33  O   UNL     1     -10.078   1.497  70.483  1.00  0.00     0.075 OA 
HETATM   34  C   UNL     1      -9.344   6.391  71.380  1.00  0.00    -0.157 C  
HETATM   35  C   UNL     1      -7.627   4.531  71.608  1.00  0.00    -0.078 C  
HETATM   36  H   UNL     1     -10.988   1.655  70.259  1.00  0.00     0.000 HD 
HETATM   37  C   UNL     1      -7.818   7.435  69.507  1.00  0.00    -0.121 A  
HETATM   38  C   UNL     1      -6.534   6.710  65.093  1.00  0.00    -0.042 A  
HETATM   39  N   UNL     1      -8.253   8.242  68.471  1.00  0.00    -0.129 NA 
HETATM   40  C   UNL     1      -6.887   6.820  67.498  1.00  0.00    -0.077 A  
HETATM   41  C   UNL     1      -8.880   5.017  70.895  1.00  0.00    -0.156 C  
HETATM   42  C   UNL     1      -7.847   7.788  67.252  1.00  0.00    -0.117 A  
HETATM   43  C   UNL     1      -6.271   4.133  69.583  1.00  0.00    -0.027 C  
HETATM   44  C   UNL     1      -8.221   8.207  65.968  1.00  0.00    -0.121 A  
HETATM   45  H   UNL     1      -8.815   9.083  68.605  1.00  0.00     0.000 HD 
HETATM   46  C   UNL     1      -7.550   7.636  64.886  1.00  0.00    -0.099 A  
BRANCH  25  47
HETATM   47  C   UNL     1      -7.158   7.749  71.917  1.00  0.00    -0.067 C  
HETATM   48  O   UNL     1      -6.601   6.797  72.470  1.00  0.00    -0.058 OA 
BRANCH  47  49
HETATM   49  O   UNL     1      -6.751   9.051  72.063  1.00  0.00    -0.251 OA 
HETATM   50  C   UNL     1      -5.349   9.271  71.866  1.00  0.00    -0.070 C  
ENDBRANCH  47  49
ENDBRANCH  25  47
BRANCH  29  51
HETATM   51  C   UNL     1      -9.496   2.883  68.598  1.00  0.00    -0.192 C  
HETATM   52  C   UNL     1      -8.329   2.387  67.747  1.00  0.00    -0.081 C  
ENDBRANCH  29  51
ENDBRANCH   8  25
BRANCH  18  53
HETATM   53  C   UNL     1      -9.364  12.874  67.396  1.00  0.00    -0.194 C  
HETATM   54  C   UNL     1     -10.323  11.799  67.890  1.00  0.00    -0.209 C  
ENDBRANCH  18  53
BRANCH  15  55
HETATM   55  O   UNL     1      -9.236  16.210  68.219  1.00  0.00    -0.191 OA 
BRANCH  55  56
HETATM   56  C   UNL     1      -8.125  16.329  67.425  1.00  0.00    -0.155 C  
HETATM   57  O   UNL     1      -8.102  16.265  66.203  1.00  0.00    -0.293 OA 
HETATM   58  C   UNL     1      -6.930  16.736  68.253  1.00  0.00    -0.161 C  
ENDBRANCH  55  56
ENDBRANCH  15  55
BRANCH  14  59
HETATM   59  C   UNL     1     -11.161  15.898  70.530  1.00  0.00    -0.364 C  
HETATM   60  O   UNL     1     -11.949  15.807  71.464  1.00  0.00    -0.359 OA 
BRANCH  59  61
HETATM   61  O   UNL     1     -10.837  17.086  69.929  1.00  0.00    -0.177 OA 
HETATM   62  C   UNL     1     -11.570  17.396  68.740  1.00  0.00     1.212 C  
ENDBRANCH  59  61
ENDBRANCH  14  59
TORSDOF 10
ENDMDL
MODEL       53
REMARK 921   NORMALIZED FREE ENERGY PREDICTED BY IDOCK:   37.45 KCAL/MOL
REMARK 922        TOTAL FREE ENERGY PREDICTED BY IDOCK:   58.19 KCAL/MOL
REMARK 923 INTER-LIGAND FREE ENERGY PREDICTED BY IDOCK:   48.97 KCAL/MOL
REMARK 924 INTRA-LIGAND FREE ENERGY PREDICTED BY IDOCK:    9.23 KCAL/MOL
REMARK 927      BINDING AFFINITY PREDICTED BY RF-SCORE:    0.00 PKD
ROOT
HETATM    1  C   UNL     1      -8.378  16.785  69.139  1.00  0.00    -0.086 C  
HETATM    2  N   UNL     1      -8.817  16.048  70.346  1.00  0.00     1.342 NA 
HETATM    3  C   UNL     1      -8.712  16.542  71.699  1.00  0.00     8.826 C  
HETATM    4  C   UNL     1      -8.826  14.708  70.031  1.00  0.00     0.818 A  
HETATM    5  C   UNL     1      -8.838  13.626  70.885  1.00  0.00     6.644 A  
HETATM    6  C   UNL     1      -8.946  12.326  70.377  1.00  0.00     5.704 A  
HETATM    7  N   UNL     1      -8.772  15.975  65.530  1.00  0.00     0.156 NA 
HETATM    8  C   UNL     1      -9.203  12.122  69.001  1.00  0.00     0.367 A  
HETATM    9  C   UNL     1      -9.145  13.251  68.152  1.00  0.00    -0.207 A  
HETATM   10  C   UNL     1      -9.015  16.862  64.423  1.00  0.00     6.965 C  
HETATM   11  H   UNL     1     -10.617  19.212  69.722  1.00  0.00     0.000 HD 
HETATM   12  O   UNL     1     -10.210  18.359  69.813  1.00  0.00     0.211 OA 
HETATM   13  C   UNL     1      -8.861  14.497  68.667  1.00  0.00    -0.180 A  
HETATM   14  C   UNL     1      -9.047  18.191  68.988  1.00  0.00    -0.038 C  
HETATM   15  C   UNL     1      -9.442  18.405  67.522  1.00  0.00    -0.270 C  
HETATM   16  C   UNL     1      -8.532  15.764  67.912  1.00  0.00    -0.161 C  
HETATM   17  C   UNL     1      -9.542  16.040  66.767  1.00  0.00    -0.232 C  
HETATM   18  C   UNL     1     -10.431  17.303  66.982  1.00  0.00    -0.287 C  
HETATM   19  C   UNL     1     -10.997  17.761  65.632  1.00  0.00     0.225 C  
HETATM   20  C   UNL     1      -7.166  15.566  67.194  1.00  0.00    -0.208 C  
HETATM   21  C   UNL     1     -10.344  17.551  64.482  1.00  0.00     2.942 C  
HETATM   22  C   UNL     1      -7.438  15.481  65.705  1.00  0.00     3.536 C  
ENDROOT
BRANCH   6  23
HETATM   23  O   UNL     1      -8.845  11.251  71.216  1.00  0.00     6.059 OA 
HETATM   24  C   UNL     1      -7.513  10.772  71.422  1.00  0.00     3.893 C  
ENDBRANCH   6  23
BRANCH   8  25
HETATM   25  C   UNL     1      -9.527  10.738  68.321  1.00  0.00    -0.164 C  
HETATM   26  C   UNL     1      -8.846   7.242  64.431  1.00  0.00     0.746 C  
HETATM   27  C   UNL     1      -9.718   7.226  68.216  1.00  0.00    -0.152 C  
HETATM   28  N   UNL     1      -9.742   7.393  65.595  1.00  0.00     0.563 NA 
HETATM   29  C   UNL     1      -7.666   8.274  64.241  1.00  0.00    -0.134 C  
HETATM   30  C   UNL     1      -8.741   8.155  68.919  1.00  0.00    -0.137 A  
HETATM   31  C   UNL     1      -8.123   9.704  64.658  1.00  0.00    -0.141 C  
HETATM   32  C   UNL     1      -7.108   6.376  69.984  1.00  0.00    -0.071 A  
HETATM   33  O   UNL     1      -7.336   8.321  62.841  1.00  0.00    -0.094 OA 
HETATM   34  C   UNL     1      -9.103  10.910  66.773  1.00  0.00    -0.164 C  
HETATM   35  C   UNL     1     -10.094   8.789  65.782  1.00  0.00     0.374 C  
HETATM   36  H   UNL     1      -6.626   8.942  62.727  1.00  0.00     0.000 HD 
HETATM   37  C   UNL     1      -8.700   9.563  68.998  1.00  0.00    -0.142 A  
HETATM   38  C   UNL     1      -5.939   6.252  70.750  1.00  0.00    -0.030 A  
HETATM   39  N   UNL     1      -7.727   9.839  69.941  1.00  0.00    -0.139 NA 
HETATM   40  C   UNL     1      -7.619   7.657  69.689  1.00  0.00    -0.093 A  
HETATM   41  C   UNL     1      -8.833   9.608  66.017  1.00  0.00    -0.178 C  
HETATM   42  C   UNL     1      -6.963   8.749  70.235  1.00  0.00    -0.043 A  
HETATM   43  C   UNL     1      -9.287   6.699  66.817  1.00  0.00    -0.158 C  
HETATM   44  C   UNL     1      -5.785   8.655  70.985  1.00  0.00    -0.035 A  
HETATM   45  H   UNL     1      -7.596  10.756  70.369  1.00  0.00     0.000 HD 
HETATM   46  C   UNL     1      -5.275   7.379  71.223  1.00  0.00    -0.027 A  
BRANCH  25  47
HETATM   47  C   UNL     1     -11.029  10.373  68.481  1.00  0.00    -0.254 C  
HETATM   48  O   UNL     1     -11.590   9.443  67.898  1.00  0.00     0.475 OA 
BRANCH  47  49
HETATM   49  O   UNL     1     -11.669  11.211  69.359  1.00  0.00    -0.273 OA 
HETATM   50  C   UNL     1     -12.980  11.624  68.953  1.00  0.00     2.071 C  
ENDBRANCH  47  49
ENDBRANCH  25  47
BRANCH  29  51
HETATM   51  C   UNL     1      -6.391   7.817  65.000  1.00  0.00    -0.041 C  
HETATM   52  C   UNL     1      -5.475   6.886  64.207  1.00  0.00    -0.032 C  
ENDBRANCH  29  51
ENDBRANCH   8  25
BRANCH  18  53
HETATM   53  C   UNL     1     -11.675  16.772  67.802  1.00  0.00     0.658 C  
HETATM   54  C   UNL     1     -12.068  15.307  67.934  1.00  0.00     0.137 C  
ENDBRANCH  18  53
BRANCH  15  55
HETATM   55  O   UNL     1      -9.989  19.715  67.235  1.00  0.00    -0.348 OA 
BRANCH  55  56
HETATM   56  C   UNL     1      -9.645  20.183  65.993  1.00  0.00    -0.276 C  
HETATM   57  O   UNL     1     -10.371  20.214  65.008  1.00  0.00    -0.014 OA 
HETATM   58  C   UNL     1      -8.283  20.834  66.037  1.00  0.00     0.487 C  
ENDBRANCH  55  56
ENDBRANCH  15  55
BRANCH  14  59
HETATM   59  C   UNL     1      -8.068  19.265  69.526  1.00  0.00     0.217 C  
HETATM   60  O   UNL     1      -8.338  20.441  69.735  1.00  0.00     0.753 OA 
BRANCH  59  61
HETATM   61  O   UNL     1      -6.798  18.756  69.606  1.00  0.00    -0.171 OA 
HETATM   62  C   UNL     1      -5.804  19.458  68.852  1.00  0.00    -0.223 C  
ENDBRANCH  59  61
ENDBRANCH  14  59
TORSDOF 10
ENDMDL
MODEL       54
REMARK 921   NORMALIZED FREE ENERGY PREDICTED BY IDOCK:   39.59 KCAL/MOL
REMARK 922        TOTAL FREE ENERGY PREDICTED BY IDOCK:   61.58 KCAL/MOL
REMARK 923 INTER-LIGAND FREE ENERGY PREDICTED BY IDOCK:   57.82 KCAL/MOL
REMARK 924 INTRA-LIGAND FREE ENERGY PREDICTED BY IDOCK:    3.76 KCAL/MOL
REMARK 927      BINDING AFFINITY PREDICTED BY RF-SCORE:    0.00 PKD
ROOT
HETATM    1  C   UNL     1      -7.490  10.389  67.028  1.00  0.00    -0.097 C  
HETATM    2  N   UNL     1      -7.837  11.309  65.919  1.00  0.00     0.030 NA 
HETATM    3  C   UNL     1      -7.688  11.002  64.516  1.00  0.00     0.580 C  
HETATM    4  C   UNL     1      -7.801  12.590  66.419  1.00  0.00     0.621 A  
HETATM    5  C   UNL     1      -7.721  13.779  65.726  1.00  0.00     4.285 A  
HETATM    6  C   UNL     1      -7.795  15.000  66.408  1.00  0.00     0.820 A  
HETATM    7  N   UNL     1      -8.023  10.710  70.696  1.00  0.00     0.890 NA 
HETATM    8  C   UNL     1      -8.109  15.025  67.787  1.00  0.00    -0.160 A  
HETATM    9  C   UNL     1      -8.144  13.788  68.470  1.00  0.00    -0.128 A  
HETATM   10  C   UNL     1      -8.360   9.692  71.655  1.00  0.00     1.343 C  
HETATM   11  H   UNL     1      -9.806   8.185  66.016  1.00  0.00     0.000 HD 
HETATM   12  O   UNL     1      -9.358   9.021  66.063  1.00  0.00    -0.205 OA 
HETATM   13  C   UNL     1      -7.892  12.612  67.797  1.00  0.00    -0.154 A  
HETATM   14  C   UNL     1      -8.230   9.012  66.951  1.00  0.00    -0.116 C  
HETATM   15  C   UNL     1      -8.704   8.618  68.354  1.00  0.00    -0.142 C  
HETATM   16  C   UNL     1      -7.658  11.237  68.379  1.00  0.00    -0.120 C  
HETATM   17  C   UNL     1      -8.734  10.857  69.430  1.00  0.00     0.127 C  
HETATM   18  C   UNL     1      -9.668   9.684  69.003  1.00  0.00    -0.169 C  
HETATM   19  C   UNL     1     -10.320   9.073  70.249  1.00  0.00    -0.243 C  
HETATM   20  C   UNL     1      -6.321  11.262  69.174  1.00  0.00    -0.064 C  
HETATM   21  C   UNL     1      -9.714   9.088  71.444  1.00  0.00    -0.369 C  
HETATM   22  C   UNL     1      -6.661  11.154  70.648  1.00  0.00     0.561 C  
ENDROOT
BRANCH   6  23
HETATM   23  O   UNL     1      -7.605  16.174  65.734  1.00  0.00     0.680 OA 
HETATM   24  C   UNL     1      -6.346  16.810  65.976  1.00  0.00     0.785 C  
ENDBRANCH   6  23
BRANCH   8  25
HETATM   25  C   UNL     1      -8.403  16.316  68.641  1.00  0.00    -0.220 C  
HETATM   26  C   UNL     1     -11.404  19.007  72.042  1.00  0.00     6.025 C  
HETATM   27  C   UNL     1      -7.652  18.744  71.075  1.00  0.00     3.881 C  
HETATM   28  N   UNL     1     -10.220  19.282  71.205  1.00  0.00     2.052 NA 
HETATM   29  C   UNL     1     -11.960  17.530  72.113  1.00  0.00     2.857 C  
HETATM   30  C   UNL     1      -7.300  17.267  70.991  1.00  0.00     4.827 A  
HETATM   31  C   UNL     1     -11.847  16.841  70.721  1.00  0.00     0.899 C  
HETATM   32  C   UNL     1      -6.026  16.974  73.285  1.00  0.00     4.515 A  
HETATM   33  O   UNL     1     -13.359  17.596  72.446  1.00  0.00     5.631 OA 
HETATM   34  C   UNL     1      -9.984  16.268  68.963  1.00  0.00    -0.256 C  
HETATM   35  C   UNL     1     -10.332  18.592  69.932  1.00  0.00     1.059 C  
HETATM   36  H   UNL     1     -13.693  16.707  72.489  1.00  0.00     0.000 HD 
HETATM   37  C   UNL     1      -7.561  16.311  69.987  1.00  0.00     0.844 A  
HETATM   38  C   UNL     1      -5.384  16.022  74.090  1.00  0.00     5.356 A  
HETATM   39  N   UNL     1      -6.821  15.201  70.352  1.00  0.00     0.005 NA 
HETATM   40  C   UNL     1      -6.559  16.590  72.036  1.00  0.00     4.544 A  
HETATM   41  C   UNL     1     -10.435  17.092  70.169  1.00  0.00     0.352 C  
HETATM   42  C   UNL     1      -6.362  15.279  71.633  1.00  0.00     1.146 A  
HETATM   43  C   UNL     1      -8.925  19.106  71.894  1.00  0.00     6.398 C  
HETATM   44  C   UNL     1      -5.742  14.304  72.425  1.00  0.00    -0.018 A  
HETATM   45  H   UNL     1      -6.639  14.412  69.731  1.00  0.00     0.000 HD 
HETATM   46  C   UNL     1      -5.266  14.700  73.674  1.00  0.00    -0.025 A  
BRANCH  25  47
HETATM   47  C   UNL     1      -8.000  17.603  67.870  1.00  0.00    -0.231 C  
HETATM   48  O   UNL     1      -6.963  18.241  68.064  1.00  0.00    -0.213 OA 
BRANCH  47  49
HETATM   49  O   UNL     1      -8.939  17.953  66.931  1.00  0.00    -0.244 OA 
HETATM   50  C   UNL     1      -8.499  18.919  65.969  1.00  0.00    -0.061 C  
ENDBRANCH  47  49
ENDBRANCH  25  47
BRANCH  29  51
HETATM   51  C   UNL     1     -11.257  16.717  73.234  1.00  0.00     1.523 C  
HETATM   52  C   UNL     1     -12.091  16.522  74.499  1.00  0.00    -0.315 C  
ENDBRANCH  29  51
ENDBRANCH   8  25
BRANCH  18  53
HETATM   53  C   UNL     1     -10.845  10.387  68.214  1.00  0.00    -0.299 C  
HETATM   54  C   UNL     1     -10.833  11.836  67.744  1.00  0.00    -0.258 C  
ENDBRANCH  18  53
BRANCH  15  55
HETATM   55  O   UNL     1      -9.324   7.311  68.431  1.00  0.00    -0.143 OA 
BRANCH  55  56
HETATM   56  C   UNL     1      -8.540   6.378  69.059  1.00  0.00    -0.124 C  
HETATM   57  O   UNL     1      -7.740   6.598  69.959  1.00  0.00    -0.097 OA 
HETATM   58  C   UNL     1      -8.921   4.987  68.614  1.00  0.00    -0.127 C  
ENDBRANCH  55  56
ENDBRANCH  15  55
BRANCH  14  59
HETATM   59  C   UNL     1      -7.275   7.975  66.308  1.00  0.00    -0.071 C  
HETATM   60  O   UNL     1      -7.425   7.444  65.214  1.00  0.00    -0.076 OA 
BRANCH  59  61
HETATM   61  O   UNL     1      -6.297   7.611  67.197  1.00  0.00    -0.050 OA 
HETATM   62  C   UNL     1      -5.204   6.872  66.642  1.00  0.00    -0.017 C  
ENDBRANCH  59  61
ENDBRANCH  14  59
TORSDOF 10
ENDMDL
MODEL       55
REMARK 921   NORMALIZED FREE ENERGY PREDICTED BY IDOCK:   45.04 KCAL/MOL
REMARK 922        TOTAL FREE ENERGY PREDICTED BY IDOCK:   70.22 KCAL/MOL
REMARK 923 INTER-LIGAND FREE ENERGY PREDICTED BY IDOCK:   64.16 KCAL/MOL
REMARK 924 INTRA-LIGAND FREE ENERGY PREDICTED BY IDOCK:    6.06 KCAL/MOL
REMARK 927      BINDING AFFINITY PREDICTED BY RF-SCORE:    0.00 PKD
ROOT
HETATM    1  C   UNL     1      -8.349  12.010  69.311  1.00  0.00     0.643 C  
HETATM    2  N   UNL     1      -9.471  11.873  70.268  1.00  0.00     3.233 NA 
HETATM    3  C   UNL     1      -9.816  12.844  71.280  1.00  0.00    10.437 C  
HETATM    4  C   UNL     1      -9.755  10.532  70.382  1.00  0.00     0.834 A  
HETATM    5  C   UNL     1     -10.467   9.887  71.371  1.00  0.00     0.343 A  
HETATM    6  C   UNL     1     -10.738   8.517  71.266  1.00  0.00    -0.240 A  
HETATM    7  N   UNL     1      -7.369   9.898  66.410  1.00  0.00    -0.098 NA 
HETATM    8  C   UNL     1     -10.423   7.820  70.077  1.00  0.00    -0.230 A  
HETATM    9  C   UNL     1      -9.659   8.504  69.103  1.00  0.00    -0.167 A  
HETATM   10  C   UNL     1      -6.823  10.298  65.140  1.00  0.00    -0.120 C  
HETATM   11  H   UNL     1      -9.752  14.736  67.950  1.00  0.00     0.000 HD 
HETATM   12  O   UNL     1      -9.710  13.943  68.472  1.00  0.00    -0.221 OA 
HETATM   13  C   UNL     1      -9.258   9.804  69.319  1.00  0.00    -0.197 A  
HETATM   14  C   UNL     1      -8.419  13.316  68.451  1.00  0.00    -0.128 C  
HETATM   15  C   UNL     1      -8.052  12.981  67.000  1.00  0.00    -0.033 C  
HETATM   16  C   UNL     1      -8.262  10.617  68.523  1.00  0.00    -0.128 C  
HETATM   17  C   UNL     1      -8.537  10.545  66.998  1.00  0.00    -0.127 C  
HETATM   18  C   UNL     1      -8.995  11.892  66.360  1.00  0.00    -0.180 C  
HETATM   19  C   UNL     1      -8.750  11.848  64.847  1.00  0.00     0.795 C  
HETATM   20  C   UNL     1      -6.855   9.978  68.701  1.00  0.00    -0.054 C  
HETATM   21  C   UNL     1      -7.763  11.118  64.311  1.00  0.00     0.839 C  
HETATM   22  C   UNL     1      -6.466   9.346  67.378  1.00  0.00    -0.063 C  
ENDROOT
BRANCH   6  23
HETATM   23  O   UNL     1     -11.347   7.858  72.298  1.00  0.00    -0.287 OA 
HETATM   24  C   UNL     1     -10.657   7.932  73.549  1.00  0.00     0.148 C  
ENDBRANCH   6  23
BRANCH   8  25
HETATM   25  C   UNL     1     -10.829   6.334  69.745  1.00  0.00    -0.399 C  
HETATM   26  C   UNL     1     -11.583   2.425  66.285  1.00  0.00    10.489 C  
HETATM   27  C   UNL     1     -10.537   2.837  70.003  1.00  0.00     2.636 C  
HETATM   28  N   UNL     1     -11.829   2.649  67.724  1.00  0.00    13.307 NA 
HETATM   29  C   UNL     1     -10.798   3.526  65.468  1.00  0.00     1.360 C  
HETATM   30  C   UNL     1      -9.490   3.937  70.069  1.00  0.00    -0.263 A  
HETATM   31  C   UNL     1     -11.203   4.950  65.949  1.00  0.00     0.410 C  
HETATM   32  C   UNL     1      -7.309   2.471  70.327  1.00  0.00    -0.036 A  
HETATM   33  O   UNL     1     -11.184   3.414  64.086  1.00  0.00    -0.598 OA 
HETATM   34  C   UNL     1     -11.222   6.335  68.179  1.00  0.00    -0.239 C  
HETATM   35  C   UNL     1     -12.247   4.020  67.956  1.00  0.00    16.313 C  
HETATM   36  H   UNL     1     -10.712   4.076  63.595  1.00  0.00     0.000 HD 
HETATM   37  C   UNL     1      -9.620   5.340  70.015  1.00  0.00    -0.174 A  
HETATM   38  C   UNL     1      -5.913   2.558  70.431  1.00  0.00    -0.019 A  
HETATM   39  N   UNL     1      -8.366   5.827  70.340  1.00  0.00    -0.119 NA 
HETATM   40  C   UNL     1      -8.078   3.650  70.227  1.00  0.00    -0.058 A  
HETATM   41  C   UNL     1     -11.159   4.974  67.485  1.00  0.00     1.119 C  
HETATM   42  C   UNL     1      -7.407   4.860  70.301  1.00  0.00    -0.055 A  
HETATM   43  C   UNL     1     -10.753   2.168  68.614  1.00  0.00     4.003 C  
HETATM   44  C   UNL     1      -6.014   4.975  70.385  1.00  0.00    -0.018 A  
HETATM   45  H   UNL     1      -8.181   6.801  70.581  1.00  0.00     0.000 HD 
HETATM   46  C   UNL     1      -5.274   3.793  70.436  1.00  0.00    -0.004 A  
BRANCH  25  47
HETATM   47  C   UNL     1     -12.003   5.859  70.644  1.00  0.00     0.671 C  
HETATM   48  O   UNL     1     -11.963   4.878  71.389  1.00  0.00     1.640 OA 
BRANCH  47  49
HETATM   49  O   UNL     1     -13.105   6.668  70.517  1.00  0.00     0.254 OA 
HETATM   50  C   UNL     1     -13.401   7.470  71.667  1.00  0.00    -0.358 C  
ENDBRANCH  47  49
ENDBRANCH  25  47
BRANCH  29  51
HETATM   51  C   UNL     1      -9.265   3.292  65.538  1.00  0.00    -0.151 C  
HETATM   52  C   UNL     1      -8.528   4.182  66.538  1.00  0.00    -0.104 C  
ENDBRANCH  29  51
ENDBRANCH   8  25
BRANCH  18  53
HETATM   53  C   UNL     1     -10.567  11.893  66.531  1.00  0.00    -0.278 C  
HETATM   54  C   UNL     1     -11.365  10.805  67.239  1.00  0.00    -0.173 C  
ENDBRANCH  18  53
BRANCH  15  55
HETATM   55  O   UNL     1      -7.989  14.129  66.119  1.00  0.00     1.151 OA 
BRANCH  55  56
HETATM   56  C   UNL     1      -9.026  15.007  66.302  1.00  0.00    -0.198 C  
HETATM   57  O   UNL     1     -10.211  14.714  66.390  1.00  0.00    -0.273 OA 
HETATM   58  C   UNL     1      -8.497  16.397  66.564  1.00  0.00    -0.336 C  
ENDBRANCH  55  56
ENDBRANCH  15  55
BRANCH  14  59
HETATM   59  C   UNL     1      -7.492  14.379  69.091  1.00  0.00    -0.094 C  
HETATM   60  O   UNL     1      -7.801  15.151  69.991  1.00  0.00    -0.056 OA 
BRANCH  59  61
HETATM   61  O   UNL     1      -6.302  14.446  68.415  1.00  0.00    -0.086 OA 
HETATM   62  C   UNL     1      -5.270  15.203  69.055  1.00  0.00    -0.098 C  
ENDBRANCH  59  61
ENDBRANCH  14  59
TORSDOF 10
ENDMDL
MODEL       56
REMARK 921   NORMALIZED FREE ENERGY PREDICTED BY IDOCK:   45.64 KCAL/MOL
REMARK 922        TOTAL FREE ENERGY PREDICTED BY IDOCK:   71.17 KCAL/MOL
REMARK 923 INTER-LIGAND FREE ENERGY PREDICTED BY IDOCK:   56.82 KCAL/MOL
REMARK 924 INTRA-LIGAND FREE ENERGY PREDICTED BY IDOCK:   14.35 KCAL/MOL
REMARK 927      BINDING AFFINITY PREDICTED BY RF-SCORE:    0.00 PKD
ROOT
HETATM    1  C   UNL     1     -11.576   7.643  68.926  1.00  0.00     0.985 C  
HETATM    2  N   UNL     1     -12.089   8.762  69.750  1.00  0.00     0.799 NA 
HETATM    3  C   UNL     1     -13.348   8.757  70.458  1.00  0.00     0.897 C  
HETATM    4  C   UNL     1     -11.476   9.913  69.311  1.00  0.00     0.007 A  
HETATM    5  C   UNL     1     -11.854  11.221  69.525  1.00  0.00    -0.427 A  
HETATM    6  C   UNL     1     -11.044  12.272  69.077  1.00  0.00    -0.236 A  
HETATM    7  N   UNL     1      -8.292   7.184  67.240  1.00  0.00    -0.118 NA 
HETATM    8  C   UNL     1      -9.762  12.003  68.546  1.00  0.00    -0.165 A  
HETATM    9  C   UNL     1      -9.426  10.651  68.306  1.00  0.00    -0.161 A  
HETATM   10  C   UNL     1      -7.521   5.981  67.069  1.00  0.00    -0.084 C  
HETATM   11  H   UNL     1     -11.450   5.634  71.608  1.00  0.00     0.000 HD 
HETATM   12  O   UNL     1     -11.518   6.454  71.133  1.00  0.00    -0.304 OA 
HETATM   13  C   UNL     1     -10.323   9.647  68.598  1.00  0.00    -0.226 A  
HETATM   14  C   UNL     1     -11.464   6.292  69.708  1.00  0.00    -0.379 C  
HETATM   15  C   UNL     1     -10.146   5.604  69.334  1.00  0.00    -0.223 C  
HETATM   16  C   UNL     1     -10.249   8.188  68.210  1.00  0.00    -0.245 C  
HETATM   17  C   UNL     1      -8.861   7.571  68.527  1.00  0.00    -0.126 C  
HETATM   18  C   UNL     1      -8.878   6.486  69.647  1.00  0.00    -0.138 C  
HETATM   19  C   UNL     1      -7.623   5.613  69.529  1.00  0.00    -0.072 C  
HETATM   20  C   UNL     1     -10.383   8.085  66.664  1.00  0.00    -0.273 C  
HETATM   21  C   UNL     1      -7.019   5.397  68.353  1.00  0.00    -0.061 C  
HETATM   22  C   UNL     1      -9.035   7.665  66.112  1.00  0.00    -0.161 C  
ENDROOT
BRANCH   6  23
HETATM   23  O   UNL     1     -11.474  13.565  69.191  1.00  0.00    -0.261 OA 
HETATM   24  C   UNL     1     -12.312  14.017  68.122  1.00  0.00     0.022 C  
ENDBRANCH   6  23
BRANCH   8  25
HETATM   25  C   UNL     1      -8.675  13.081  68.173  1.00  0.00    -0.190 C  
HETATM   26  C   UNL     1      -7.324  18.019  66.905  1.00  0.00    -0.204 C  
HETATM   27  C   UNL     1      -5.764  14.974  68.744  1.00  0.00    -0.086 C  
HETATM   28  N   UNL     1      -6.651  16.707  66.981  1.00  0.00    -0.189 NA 
HETATM   29  C   UNL     1      -8.816  18.138  67.409  1.00  0.00    -0.256 C  
HETATM   30  C   UNL     1      -6.809  14.430  69.705  1.00  0.00    -0.118 A  
HETATM   31  C   UNL     1      -9.619  16.858  67.032  1.00  0.00    -0.252 C  
HETATM   32  C   UNL     1      -5.890  15.408  71.978  1.00  0.00     0.817 A  
HETATM   33  O   UNL     1      -9.431  19.246  66.725  1.00  0.00    -0.302 OA 
HETATM   34  C   UNL     1      -9.481  14.268  67.433  1.00  0.00    -0.211 C  
HETATM   35  C   UNL     1      -7.548  15.655  66.538  1.00  0.00     0.229 C  
HETATM   36  H   UNL     1     -10.328  19.317  67.028  1.00  0.00     0.000 HD 
HETATM   37  C   UNL     1      -7.947  13.628  69.474  1.00  0.00     0.750 A  
HETATM   38  C   UNL     1      -6.161  15.481  73.352  1.00  0.00     2.590 A  
HETATM   39  N   UNL     1      -8.391  13.269  70.734  1.00  0.00     4.778 NA 
HETATM   40  C   UNL     1      -6.753  14.681  71.131  1.00  0.00     0.690 A  
HETATM   41  C   UNL     1      -8.785  15.629  67.425  1.00  0.00    -0.194 C  
HETATM   42  C   UNL     1      -7.812  14.010  71.720  1.00  0.00     6.284 A  
HETATM   43  C   UNL     1      -5.964  16.440  68.261  1.00  0.00    -0.107 C  
HETATM   44  C   UNL     1      -8.117  14.082  73.085  1.00  0.00     9.197 A  
HETATM   45  H   UNL     1      -9.076  12.533  70.905  1.00  0.00     0.000 HD 
HETATM   46  C   UNL     1      -7.274  14.845  73.893  1.00  0.00     5.451 A  
BRANCH  25  47
HETATM   47  C   UNL     1      -7.568  12.472  67.269  1.00  0.00    -0.131 C  
HETATM   48  O   UNL     1      -7.756  11.589  66.429  1.00  0.00    -0.108 OA 
BRANCH  47  49
HETATM   49  O   UNL     1      -6.341  13.037  67.510  1.00  0.00    -0.154 OA 
HETATM   50  C   UNL     1      -5.222  12.269  67.051  1.00  0.00     0.004 C  
ENDBRANCH  47  49
ENDBRANCH  25  47
BRANCH  29  51
HETATM   51  C   UNL     1      -8.875  18.446  68.930  1.00  0.00    -0.162 C  
HETATM   52  C   UNL     1     -10.281  18.673  69.481  1.00  0.00     0.349 C  
ENDBRANCH  29  51
ENDBRANCH   8  25
BRANCH  18  53
HETATM   53  C   UNL     1      -8.696   7.305  70.988  1.00  0.00    -0.140 C  
HETATM   54  C   UNL     1      -8.703   6.699  72.385  1.00  0.00    -0.129 C  
ENDBRANCH  18  53
BRANCH  15  55
HETATM   55  O   UNL     1      -9.968   4.293  69.924  1.00  0.00    -0.221 OA 
BRANCH  55  56
HETATM   56  C   UNL     1      -8.937   4.243  70.827  1.00  0.00    -0.101 C  
HETATM   57  O   UNL     1      -9.005   4.529  72.015  1.00  0.00    -0.122 OA 
HETATM   58  C   UNL     1      -7.721   3.608  70.199  1.00  0.00    -0.047 C  
ENDBRANCH  55  56
ENDBRANCH  15  55
BRANCH  14  59
HETATM   59  C   UNL     1     -12.717   5.436  69.396  1.00  0.00     9.393 C  
HETATM   60  O   UNL     1     -13.029   4.995  68.296  1.00  0.00    13.418 OA 
BRANCH  59  61
HETATM   61  O   UNL     1     -13.525   5.351  70.499  1.00  0.00     6.193 OA 
HETATM   62  C   UNL     1     -12.976   5.887  71.708  1.00  0.00     1.047 C  
ENDBRANCH  59  61
ENDBRANCH  14  59
TORSDOF 10
ENDMDL
MODEL       57
REMARK 921   NORMALIZED FREE ENERGY PREDICTED BY IDOCK:   46.09 KCAL/MOL
REMARK 922        TOTAL FREE ENERGY PREDICTED BY IDOCK:   71.88 KCAL/MOL
REMARK 923 INTER-LIGAND FREE ENERGY PREDICTED BY IDOCK:   64.34 KCAL/MOL
REMARK 924 INTRA-LIGAND FREE ENERGY PREDICTED BY IDOCK:    7.54 KCAL/MOL
REMARK 927      BINDING AFFINITY PREDICTED BY RF-SCORE:    0.00 PKD
ROOT
HETATM    1  C   UNL     1     -10.927  12.917  66.925  1.00  0.00    -0.266 C  
HETATM    2  N   UNL     1     -11.794  11.853  66.365  1.00  0.00    -0.547 NA 
HETATM    3  C   UNL     1     -13.034  12.084  65.662  1.00  0.00     2.409 C  
HETATM    4  C   UNL     1     -11.522  10.694  67.056  1.00  0.00     0.319 A  
HETATM    5  C   UNL     1     -12.280   9.546  67.135  1.00  0.00     5.991 A  
HETATM    6  C   UNL     1     -11.791   8.422  67.812  1.00  0.00     3.150 A  
HETATM    7  N   UNL     1      -7.561  12.721  68.497  1.00  0.00    -0.129 NA 
HETATM    8  C   UNL     1     -10.458   8.402  68.282  1.00  0.00    -0.214 A  
HETATM    9  C   UNL     1      -9.725   9.610  68.219  1.00  0.00    -0.162 A  
HETATM   10  C   UNL     1      -6.462  13.645  68.404  1.00  0.00    -0.095 C  
HETATM   11  H   UNL     1     -10.372  14.170  63.865  1.00  0.00     0.000 HD 
HETATM   12  O   UNL     1     -10.650  13.530  64.509  1.00  0.00    -0.406 OA 
HETATM   13  C   UNL     1     -10.303  10.749  67.702  1.00  0.00    -0.236 A  
HETATM   14  C   UNL     1     -10.468  13.971  65.863  1.00  0.00    -0.309 C  
HETATM   15  C   UNL     1      -8.987  14.296  66.087  1.00  0.00     0.152 C  
HETATM   16  C   UNL     1      -9.780  12.166  67.756  1.00  0.00    -0.197 C  
HETATM   17  C   UNL     1      -8.293  12.256  67.323  1.00  0.00    -0.182 C  
HETATM   18  C   UNL     1      -8.055  13.029  65.990  1.00  0.00     1.591 C  
HETATM   19  C   UNL     1      -6.594  13.488  65.923  1.00  0.00     6.248 C  
HETATM   20  C   UNL     1      -9.788  12.634  69.240  1.00  0.00     0.642 C  
HETATM   21  C   UNL     1      -5.886  13.761  67.026  1.00  0.00     1.127 C  
HETATM   22  C   UNL     1      -8.346  12.738  69.697  1.00  0.00     1.805 C  
ENDROOT
BRANCH   6  23
HETATM   23  O   UNL     1     -12.588   7.325  67.985  1.00  0.00     4.155 OA 
HETATM   24  C   UNL     1     -13.469   7.392  69.110  1.00  0.00     8.192 C  
ENDBRANCH   6  23
BRANCH   8  25
HETATM   25  C   UNL     1      -9.716   7.154  68.895  1.00  0.00    -0.146 C  
HETATM   26  C   UNL     1      -9.686   2.844  71.935  1.00  0.00    -0.157 C  
HETATM   27  C   UNL     1      -7.930   4.128  68.717  1.00  0.00    -0.072 C  
HETATM   28  N   UNL     1      -8.692   3.634  71.182  1.00  0.00    -0.076 NA 
HETATM   29  C   UNL     1     -11.215   3.216  71.797  1.00  0.00     2.068 C  
HETATM   30  C   UNL     1      -9.000   4.714  67.810  1.00  0.00    -0.126 A  
HETATM   31  C   UNL     1     -11.392   4.761  71.710  1.00  0.00     0.612 C  
HETATM   32  C   UNL     1      -9.247   2.744  66.070  1.00  0.00    -0.082 A  
HETATM   33  O   UNL     1     -11.891   2.774  72.989  1.00  0.00     0.236 OA 
HETATM   34  C   UNL     1     -10.569   6.746  70.204  1.00  0.00    -0.254 C  
HETATM   35  C   UNL     1      -9.004   5.050  71.268  1.00  0.00    -0.138 C  
HETATM   36  H   UNL     1     -12.811   2.997  72.905  1.00  0.00     0.000 HD 
HETATM   37  C   UNL     1      -9.676   5.951  67.859  1.00  0.00    -0.119 A  
HETATM   38  C   UNL     1      -9.965   2.344  64.933  1.00  0.00     0.308 A  
HETATM   39  N   UNL     1     -10.370   6.025  66.665  1.00  0.00    -0.323 NA 
HETATM   40  C   UNL     1      -9.500   4.006  66.649  1.00  0.00    -0.214 A  
HETATM   41  C   UNL     1     -10.386   5.306  70.685  1.00  0.00    -0.324 C  
HETATM   42  C   UNL     1     -10.419   4.827  66.017  1.00  0.00    -0.292 A  
HETATM   43  C   UNL     1      -8.419   3.141  69.817  1.00  0.00    -0.057 C  
HETATM   44  C   UNL     1     -11.164   4.445  64.894  1.00  0.00     0.246 A  
HETATM   45  H   UNL     1     -10.797   6.881  66.310  1.00  0.00     0.000 HD 
HETATM   46  C   UNL     1     -10.927   3.175  64.369  1.00  0.00     0.449 A  
BRANCH  25  47
HETATM   47  C   UNL     1      -8.240   7.493  69.240  1.00  0.00    -0.130 C  
HETATM   48  O   UNL     1      -7.813   7.689  70.380  1.00  0.00    -0.089 OA 
BRANCH  47  49
HETATM   49  O   UNL     1      -7.451   7.547  68.118  1.00  0.00    -0.099 OA 
HETATM   50  C   UNL     1      -7.045   6.273  67.603  1.00  0.00    -0.081 C  
ENDBRANCH  47  49
ENDBRANCH  25  47
BRANCH  29  51
HETATM   51  C   UNL     1     -11.867   2.477  70.597  1.00  0.00     9.362 C  
HETATM   52  C   UNL     1     -13.323   2.066  70.815  1.00  0.00    13.158 C  
ENDBRANCH  29  51
ENDBRANCH   8  25
BRANCH  18  53
HETATM   53  C   UNL     1      -8.200  11.925  64.866  1.00  0.00     1.579 C  
HETATM   54  C   UNL     1      -8.256  12.208  63.371  1.00  0.00     2.595 C  
ENDBRANCH  18  53
BRANCH  15  55
HETATM   55  O   UNL     1      -8.466  15.334  65.222  1.00  0.00     1.904 OA 
BRANCH  55  56
HETATM   56  C   UNL     1      -8.397  16.560  65.832  1.00  0.00     0.090 C  
HETATM   57  O   UNL     1      -7.980  17.594  65.326  1.00  0.00     0.300 OA 
HETATM   58  C   UNL     1      -9.079  16.516  67.178  1.00  0.00    -0.227 C  
ENDBRANCH  55  56
ENDBRANCH  15  55
BRANCH  14  59
HETATM   59  C   UNL     1     -11.394  15.210  65.966  1.00  0.00    -0.221 C  
HETATM   60  O   UNL     1     -11.261  16.140  66.752  1.00  0.00    -0.059 OA 
BRANCH  59  61
HETATM   61  O   UNL     1     -12.482  15.062  65.147  1.00  0.00    -0.076 OA 
HETATM   62  C   UNL     1     -13.635  14.469  65.753  1.00  0.00     1.757 C  
ENDBRANCH  59  61
ENDBRANCH  14  59
TORSDOF 10
ENDMDL
MODEL       58
REMARK 921   NORMALIZED FREE ENERGY PREDICTED BY IDOCK:   47.09 KCAL/MOL
REMARK 922        TOTAL FREE ENERGY PREDICTED BY IDOCK:   73.47 KCAL/MOL
REMARK 923 INTER-LIGAND FREE ENERGY PREDICTED BY IDOCK:   62.61 KCAL/MOL
REMARK 924 INTRA-LIGAND FREE ENERGY PREDICTED BY IDOCK:   10.86 KCAL/MOL
REMARK 927      BINDING AFFINITY PREDICTED BY RF-SCORE:    0.00 PKD
ROOT
HETATM    1  C   UNL     1     -10.200   8.950  70.583  1.00  0.00    -0.217 C  
HETATM    2  N   UNL     1      -9.827  10.007  71.552  1.00  0.00     0.978 NA 
HETATM    3  C   UNL     1      -9.973   9.902  72.985  1.00  0.00     6.526 C  
HETATM    4  C   UNL     1      -9.839  11.207  70.878  1.00  0.00     4.294 A  
HETATM    5  C   UNL     1      -9.888  12.482  71.400  1.00  0.00    11.843 A  
HETATM    6  C   UNL     1      -9.793  13.595  70.554  1.00  0.00     3.727 A  
HETATM    7  N   UNL     1      -9.684   8.747  66.904  1.00  0.00    -0.190 NA 
HETATM    8  C   UNL     1      -9.488  13.421  69.185  1.00  0.00     0.502 A  
HETATM    9  C   UNL     1      -9.484  12.100  68.680  1.00  0.00    -0.052 A  
HETATM   10  C   UNL     1      -9.375   7.598  66.095  1.00  0.00    -0.080 C  
HETATM   11  H   UNL     1      -7.925   6.858  71.884  1.00  0.00     0.000 HD 
HETATM   12  O   UNL     1      -8.356   7.689  71.722  1.00  0.00    -0.103 OA 
HETATM   13  C   UNL     1      -9.756  11.035  69.511  1.00  0.00     0.177 A  
HETATM   14  C   UNL     1      -9.490   7.581  70.848  1.00  0.00    -0.165 C  
HETATM   15  C   UNL     1      -9.033   6.986  69.512  1.00  0.00    -0.143 C  
HETATM   16  C   UNL     1     -10.023   9.598  69.127  1.00  0.00    -0.189 C  
HETATM   17  C   UNL     1      -8.962   9.053  68.135  1.00  0.00    -0.133 C  
HETATM   18  C   UNL     1      -8.051   7.929  68.718  1.00  0.00    -0.126 C  
HETATM   19  C   UNL     1      -7.420   7.138  67.566  1.00  0.00    -0.101 C  
HETATM   20  C   UNL     1     -11.365   9.542  68.340  1.00  0.00     0.196 C  
HETATM   21  C   UNL     1      -8.033   6.999  66.383  1.00  0.00    -0.109 C  
HETATM   22  C   UNL     1     -11.036   9.223  66.895  1.00  0.00     0.474 C  
ENDROOT
BRANCH   6  23
HETATM   23  O   UNL     1      -9.954  14.855  71.059  1.00  0.00     0.773 OA 
HETATM   24  C   UNL     1     -11.185  15.072  71.755  1.00  0.00    -0.111 C  
ENDBRANCH   6  23
BRANCH   8  25
HETATM   25  C   UNL     1      -9.171  14.574  68.158  1.00  0.00    -0.195 C  
HETATM   26  C   UNL     1     -10.497  17.536  64.001  1.00  0.00     5.648 C  
HETATM   27  C   UNL     1      -8.400  17.885  67.251  1.00  0.00    -0.232 C  
HETATM   28  N   UNL     1      -9.301  17.342  64.844  1.00  0.00     2.089 NA 
HETATM   29  C   UNL     1     -11.837  16.800  64.401  1.00  0.00     1.071 C  
HETATM   30  C   UNL     1      -9.229  17.328  68.397  1.00  0.00    -0.268 A  
HETATM   31  C   UNL     1     -11.530  15.378  64.956  1.00  0.00    -0.263 C  
HETATM   32  C   UNL     1     -10.052  19.581  69.498  1.00  0.00    -0.062 A  
HETATM   33  O   UNL     1     -12.627  16.633  63.210  1.00  0.00     1.942 OA 
HETATM   34  C   UNL     1     -10.121  14.288  66.885  1.00  0.00    -0.264 C  
HETATM   35  C   UNL     1      -9.164  15.944  65.211  1.00  0.00     0.731 C  
HETATM   36  H   UNL     1     -13.433  16.191  63.451  1.00  0.00     0.000 HD 
HETATM   37  C   UNL     1      -9.492  15.997  68.785  1.00  0.00    -0.227 A  
HETATM   38  C   UNL     1     -10.848  20.091  70.536  1.00  0.00     2.403 A  
HETATM   39  N   UNL     1     -10.118  16.101  70.014  1.00  0.00    -0.087 NA 
HETATM   40  C   UNL     1      -9.911  18.186  69.344  1.00  0.00     0.045 A  
HETATM   41  C   UNL     1     -10.394  15.494  65.985  1.00  0.00    -0.342 C  
HETATM   42  C   UNL     1     -10.527  17.373  70.283  1.00  0.00     0.896 A  
HETATM   43  C   UNL     1      -9.180  18.294  65.968  1.00  0.00     0.016 C  
HETATM   44  C   UNL     1     -11.342  17.854  71.316  1.00  0.00     3.185 A  
HETATM   45  H   UNL     1     -10.258  15.314  70.647  1.00  0.00     0.000 HD 
HETATM   46  C   UNL     1     -11.502  19.236  71.417  1.00  0.00     7.393 A  
BRANCH  25  47
HETATM   47  C   UNL     1      -7.666  14.586  67.776  1.00  0.00    -0.156 C  
HETATM   48  O   UNL     1      -7.049  13.620  67.322  1.00  0.00    -0.132 OA 
BRANCH  47  49
HETATM   49  O   UNL     1      -7.091  15.812  67.998  1.00  0.00    -0.110 OA 
HETATM   50  C   UNL     1      -5.723  15.922  67.586  1.00  0.00    -0.140 C  
ENDBRANCH  47  49
ENDBRANCH  25  47
BRANCH  29  51
HETATM   51  C   UNL     1     -12.672  17.654  65.393  1.00  0.00     8.863 C  
HETATM   52  C   UNL     1     -12.411  17.357  66.869  1.00  0.00     4.320 C  
ENDBRANCH  29  51
ENDBRANCH   8  25
BRANCH  18  53
HETATM   53  C   UNL     1      -6.854   8.709  69.397  1.00  0.00    -0.049 C  
HETATM   54  C   UNL     1      -5.571   8.064  69.902  1.00  0.00    -0.023 C  
ENDBRANCH  18  53
BRANCH  15  55
HETATM   55  O   UNL     1      -8.441   5.668  69.615  1.00  0.00    -0.108 OA 
BRANCH  55  56
HETATM   56  C   UNL     1      -8.878   4.803  68.645  1.00  0.00    -0.099 C  
HETATM   57  O   UNL     1      -9.828   4.982  67.895  1.00  0.00    -0.147 OA 
HETATM   58  C   UNL     1      -7.912   3.652  68.495  1.00  0.00    -0.072 C  
ENDBRANCH  55  56
ENDBRANCH  15  55
BRANCH  14  59
HETATM   59  C   UNL     1     -10.462   6.664  71.632  1.00  0.00    -0.207 C  
HETATM   60  O   UNL     1     -11.682   6.646  71.513  1.00  0.00    -0.289 OA 
BRANCH  59  61
HETATM   61  O   UNL     1      -9.786   5.963  72.595  1.00  0.00    -0.163 OA 
HETATM   62  C   UNL     1      -8.701   5.157  72.125  1.00  0.00    -0.129 C  
ENDBRANCH  59  61
ENDBRANCH  14  59
TORSDOF 10
ENDMDL
MODEL       59
REMARK 921   NORMALIZED FREE ENERGY PREDICTED BY IDOCK:   47.12 KCAL/MOL
REMARK 922        TOTAL FREE ENERGY PREDICTED BY IDOCK:   73.51 KCAL/MOL
REMARK 923 INTER-LIGAND FREE ENERGY PREDICTED BY IDOCK:   62.21 KCAL/MOL
REMARK 924 INTRA-LIGAND FREE ENERGY PREDICTED BY IDOCK:   11.30 KCAL/MOL
REMARK 927      BINDING AFFINITY PREDICTED BY RF-SCORE:    0.00 PKD
ROOT
HETATM    1  C   UNL     1     -10.882   8.123  68.820  1.00  0.00     0.063 C  
HETATM    2  N   UNL     1     -11.471   8.926  67.723  1.00  0.00     0.934 NA 
HETATM    3  C   UNL     1     -12.430   8.434  66.762  1.00  0.00    10.351 C  
HETATM    4  C   UNL     1     -10.605   9.963  67.460  1.00  0.00    -0.275 A  
HETATM    5  C   UNL     1     -10.540  10.763  66.340  1.00  0.00    -0.266 A  
HETATM    6  C   UNL     1      -9.647  11.841  66.292  1.00  0.00    -0.225 A  
HETATM    7  N   UNL     1      -8.657   9.124  71.629  1.00  0.00    -0.322 NA 
HETATM    8  C   UNL     1      -8.922  12.212  67.447  1.00  0.00    -0.180 A  
HETATM    9  C   UNL     1      -8.983  11.346  68.563  1.00  0.00    -0.158 A  
HETATM   10  C   UNL     1      -8.640   8.646  72.986  1.00  0.00     0.109 C  
HETATM   11  H   UNL     1     -13.899   7.705  70.224  1.00  0.00     0.000 HD 
HETATM   12  O   UNL     1     -13.250   8.088  69.646  1.00  0.00     2.994 OA 
HETATM   13  C   UNL     1      -9.739  10.195  68.511  1.00  0.00    -0.161 A  
HETATM   14  C   UNL     1     -11.951   7.492  69.773  1.00  0.00     0.604 C  
HETATM   15  C   UNL     1     -11.477   7.637  71.224  1.00  0.00    -0.269 C  
HETATM   16  C   UNL     1      -9.754   9.044  69.490  1.00  0.00    -0.171 C  
HETATM   17  C   UNL     1      -9.889   9.529  70.958  1.00  0.00    -0.166 C  
HETATM   18  C   UNL     1     -11.231   9.135  71.647  1.00  0.00    -0.447 C  
HETATM   19  C   UNL     1     -11.060   9.202  73.169  1.00  0.00     2.476 C  
HETATM   20  C   UNL     1      -8.370   8.336  69.434  1.00  0.00    -0.122 C  
HETATM   21  C   UNL     1      -9.878   8.980  73.760  1.00  0.00     3.641 C  
HETATM   22  C   UNL     1      -7.650   8.630  70.736  1.00  0.00    -0.083 C  
ENDROOT
BRANCH   6  23
HETATM   23  O   UNL     1      -9.506  12.564  65.140  1.00  0.00     0.012 OA 
HETATM   24  C   UNL     1      -9.800  13.958  65.265  1.00  0.00    -0.138 C  
ENDBRANCH   6  23
BRANCH   8  25
HETATM   25  C   UNL     1      -8.026  13.500  67.598  1.00  0.00    -0.177 C  
HETATM   26  C   UNL     1      -7.464  18.613  68.762  1.00  0.00    -0.295 C  
HETATM   27  C   UNL     1      -5.349  15.360  68.923  1.00  0.00    -0.099 C  
HETATM   28  N   UNL     1      -6.620  17.541  68.198  1.00  0.00    -0.182 NA 
HETATM   29  C   UNL     1      -8.904  18.245  69.297  1.00  0.00     0.276 C  
HETATM   30  C   UNL     1      -6.217  14.275  69.541  1.00  0.00    -0.122 A  
HETATM   31  C   UNL     1      -9.564  17.171  68.383  1.00  0.00    -0.281 C  
HETATM   32  C   UNL     1      -5.221  14.232  71.985  1.00  0.00    -0.196 A  
HETATM   33  O   UNL     1      -9.721  19.429  69.226  1.00  0.00    -0.379 OA 
HETATM   34  C   UNL     1      -9.048  14.747  67.520  1.00  0.00    -0.191 C  
HETATM   35  C   UNL     1      -7.409  16.680  67.335  1.00  0.00    -0.161 C  
HETATM   36  H   UNL     1     -10.587  19.207  69.548  1.00  0.00     0.000 HD 
HETATM   37  C   UNL     1      -7.256  13.497  68.987  1.00  0.00    -0.031 A  
HETATM   38  C   UNL     1      -5.367  13.621  73.239  1.00  0.00    -0.065 A  
HETATM   39  N   UNL     1      -7.526  12.533  69.941  1.00  0.00     0.418 NA 
HETATM   40  C   UNL     1      -6.058  13.848  70.916  1.00  0.00    -0.100 A  
HETATM   41  C   UNL     1      -8.541  16.052  68.134  1.00  0.00    -0.171 C  
HETATM   42  C   UNL     1      -6.958  12.820  71.146  1.00  0.00     3.794 A  
HETATM   43  C   UNL     1      -5.785  16.830  69.188  1.00  0.00    -0.152 C  
HETATM   44  C   UNL     1      -7.139  12.207  72.393  1.00  0.00     9.373 A  
HETATM   45  H   UNL     1      -8.089  11.701  69.763  1.00  0.00     0.000 HD 
HETATM   46  C   UNL     1      -6.330  12.638  73.444  1.00  0.00     3.824 A  
BRANCH  25  47
HETATM   47  C   UNL     1      -6.940  13.561  66.489  1.00  0.00     2.249 C  
HETATM   48  O   UNL     1      -6.246  14.549  66.241  1.00  0.00     2.807 OA 
BRANCH  47  49
HETATM   49  O   UNL     1      -6.836  12.374  65.808  1.00  0.00     1.716 OA 
HETATM   50  C   UNL     1      -6.659  11.217  66.635  1.00  0.00    -0.135 C  
ENDBRANCH  47  49
ENDBRANCH  25  47
BRANCH  29  51
HETATM   51  C   UNL     1      -8.857  17.806  70.785  1.00  0.00     5.526 C  
HETATM   52  C   UNL     1      -9.098  16.316  71.019  1.00  0.00     4.056 C  
ENDBRANCH  29  51
ENDBRANCH   8  25
BRANCH  18  53
HETATM   53  C   UNL     1     -12.219  10.316  71.283  1.00  0.00    -0.496 C  
HETATM   54  C   UNL     1     -12.066  11.238  70.081  1.00  0.00    -0.448 C  
ENDBRANCH  18  53
BRANCH  15  55
HETATM   55  O   UNL     1     -12.339   7.005  72.201  1.00  0.00    -0.275 OA 
BRANCH  55  56
HETATM   56  C   UNL     1     -11.822   5.838  72.703  1.00  0.00    -0.142 C  
HETATM   57  O   UNL     1     -11.127   5.731  73.705  1.00  0.00    -0.192 OA 
HETATM   58  C   UNL     1     -12.374   4.653  71.949  1.00  0.00     2.892 C  
ENDBRANCH  55  56
ENDBRANCH  15  55
BRANCH  14  59
HETATM   59  C   UNL     1     -12.186   6.021  69.346  1.00  0.00     2.485 C  
HETATM   60  O   UNL     1     -12.108   5.041  70.077  1.00  0.00     4.213 OA 
BRANCH  59  61
HETATM   61  O   UNL     1     -12.356   5.940  67.989  1.00  0.00     3.759 OA 
HETATM   62  C   UNL     1     -11.236   5.432  67.256  1.00  0.00     0.908 C  
ENDBRANCH  59  61
ENDBRANCH  14  59
TORSDOF 10
ENDMDL
MODEL       60
REMARK 921   NORMALIZED FREE ENERGY PREDICTED BY IDOCK:   47.90 KCAL/MOL
REMARK 922        TOTAL FREE ENERGY PREDICTED BY IDOCK:   74.75 KCAL/MOL
REMARK 923 INTER-LIGAND FREE ENERGY PREDICTED BY IDOCK:   63.97 KCAL/MOL
REMARK 924 INTRA-LIGAND FREE ENERGY PREDICTED BY IDOCK:   10.79 KCAL/MOL
REMARK 927      BINDING AFFINITY PREDICTED BY RF-SCORE:    0.00 PKD
ROOT
HETATM    1  C   UNL     1     -10.719   6.386  67.660  1.00  0.00    -0.311 C  
HETATM    2  N   UNL     1     -11.769   6.789  66.696  1.00  0.00     1.181 NA 
HETATM    3  C   UNL     1     -12.323   5.933  65.673  1.00  0.00     4.918 C  
HETATM    4  C   UNL     1     -11.726   8.160  66.590  1.00  0.00     4.174 A  
HETATM    5  C   UNL     1     -12.258   8.960  65.601  1.00  0.00    11.984 A  
HETATM    6  C   UNL     1     -12.199  10.355  65.714  1.00  0.00     5.026 A  
HETATM    7  N   UNL     1      -9.295   8.192  70.584  1.00  0.00    -0.153 NA 
HETATM    8  C   UNL     1     -11.740  10.951  66.910  1.00  0.00     0.604 A  
HETATM    9  C   UNL     1     -11.167  10.101  67.885  1.00  0.00    -0.234 A  
HETATM   10  C   UNL     1      -8.871   7.667  71.855  1.00  0.00    -0.116 C  
HETATM   11  H   UNL     1     -12.737   4.061  68.990  1.00  0.00     0.000 HD 
HETATM   12  O   UNL     1     -12.504   4.824  68.474  1.00  0.00    10.425 OA 
HETATM   13  C   UNL     1     -11.082   8.744  67.662  1.00  0.00     0.288 A  
HETATM   14  C   UNL     1     -11.102   5.129  68.510  1.00  0.00     1.038 C  
HETATM   15  C   UNL     1     -10.680   5.360  69.966  1.00  0.00    -0.226 C  
HETATM   16  C   UNL     1     -10.313   7.716  68.459  1.00  0.00    -0.225 C  
HETATM   17  C   UNL     1     -10.578   7.842  69.983  1.00  0.00    -0.238 C  
HETATM   18  C   UNL     1     -11.346   6.636  70.607  1.00  0.00    -0.401 C  
HETATM   19  C   UNL     1     -11.111   6.614  72.122  1.00  0.00    -0.288 C  
HETATM   20  C   UNL     1      -8.793   8.006  68.297  1.00  0.00    -0.133 C  
HETATM   21  C   UNL     1      -9.984   7.087  72.671  1.00  0.00    -0.196 C  
HETATM   22  C   UNL     1      -8.279   8.520  69.627  1.00  0.00    -0.115 C  
ENDROOT
BRANCH   6  23
HETATM   23  O   UNL     1     -12.626  11.145  64.682  1.00  0.00     0.869 OA 
HETATM   24  C   UNL     1     -12.092  10.800  63.400  1.00  0.00     2.336 C  
ENDBRANCH   6  23
BRANCH   8  25
HETATM   25  C   UNL     1     -11.787  12.489  67.250  1.00  0.00    -0.381 C  
HETATM   26  C   UNL     1     -11.660  16.445  70.736  1.00  0.00    -0.126 C  
HETATM   27  C   UNL     1     -10.666  15.818  67.034  1.00  0.00    -0.306 C  
HETATM   28  N   UNL     1     -11.922  16.295  69.291  1.00  0.00    -0.097 NA 
HETATM   29  C   UNL     1     -11.176  15.184  71.556  1.00  0.00    -0.262 C  
HETATM   30  C   UNL     1      -9.909  14.501  66.977  1.00  0.00    -0.249 A  
HETATM   31  C   UNL     1     -11.899  13.900  71.053  1.00  0.00    -0.135 C  
HETATM   32  C   UNL     1      -7.437  15.406  66.774  1.00  0.00     0.106 A  
HETATM   33  O   UNL     1     -11.554  15.376  72.932  1.00  0.00    -0.454 OA 
HETATM   34  C   UNL     1     -12.201  12.573  68.808  1.00  0.00     0.019 C  
HETATM   35  C   UNL     1     -12.650  15.064  69.037  1.00  0.00     0.255 C  
HETATM   36  H   UNL     1     -11.262  14.618  73.425  1.00  0.00     0.000 HD 
HETATM   37  C   UNL     1     -10.371  13.168  67.013  1.00  0.00    -0.249 A  
HETATM   38  C   UNL     1      -6.100  14.990  66.696  1.00  0.00     2.149 A  
HETATM   39  N   UNL     1      -9.263  12.399  66.707  1.00  0.00    -0.208 NA 
HETATM   40  C   UNL     1      -8.467  14.443  66.848  1.00  0.00    -0.156 A  
HETATM   41  C   UNL     1     -11.830  13.876  69.518  1.00  0.00    -0.383 C  
HETATM   42  C   UNL     1      -8.102  13.109  66.774  1.00  0.00     0.219 A  
HETATM   43  C   UNL     1     -10.744  16.510  68.426  1.00  0.00    -0.339 C  
HETATM   44  C   UNL     1      -6.774  12.666  66.715  1.00  0.00     0.582 A  
HETATM   45  H   UNL     1      -9.310  11.410  66.459  1.00  0.00     0.000 HD 
HETATM   46  C   UNL     1      -5.774  13.637  66.690  1.00  0.00     2.494 A  
BRANCH  25  47
HETATM   47  C   UNL     1     -12.796  13.235  66.335  1.00  0.00     0.503 C  
HETATM   48  O   UNL     1     -13.790  13.844  66.736  1.00  0.00     3.486 OA 
BRANCH  47  49
HETATM   49  O   UNL     1     -12.449  13.144  65.010  1.00  0.00    -0.437 OA 
HETATM   50  C   UNL     1     -11.078  13.441  64.722  1.00  0.00    -0.351 C  
ENDBRANCH  47  49
ENDBRANCH  25  47
BRANCH  29  51
HETATM   51  C   UNL     1      -9.630  15.047  71.517  1.00  0.00     3.041 C  
HETATM   52  C   UNL     1      -8.867  16.331  71.836  1.00  0.00     8.993 C  
ENDBRANCH  29  51
ENDBRANCH   8  25
BRANCH  18  53
HETATM   53  C   UNL     1     -12.872   7.008  70.424  1.00  0.00     0.376 C  
HETATM   54  C   UNL     1     -13.454   8.405  70.595  1.00  0.00     0.704 C  
ENDBRANCH  18  53
BRANCH  15  55
HETATM   55  O   UNL     1     -10.897   4.224  70.838  1.00  0.00     0.558 OA 
BRANCH  55  56
HETATM   56  C   UNL     1      -9.756   3.505  71.082  1.00  0.00    -0.167 C  
HETATM   57  O   UNL     1      -9.265   2.661  70.344  1.00  0.00    -0.106 OA 
HETATM   58  C   UNL     1      -9.065   4.021  72.322  1.00  0.00    -0.149 C  
ENDBRANCH  55  56
ENDBRANCH  15  55
BRANCH  14  59
HETATM   59  C   UNL     1     -10.446   3.881  67.868  1.00  0.00     1.295 C  
HETATM   60  O   UNL     1     -10.972   3.136  67.049  1.00  0.00     3.750 OA 
BRANCH  59  61
HETATM   61  O   UNL     1      -9.232   3.627  68.450  1.00  0.00    -0.135 OA 
HETATM   62  C   UNL     1      -8.392   4.768  68.648  1.00  0.00    -0.082 C  
ENDBRANCH  59  61
ENDBRANCH  14  59
TORSDOF 10
ENDMDL
MODEL       61
REMARK 921   NORMALIZED FREE ENERGY PREDICTED BY IDOCK:   48.65 KCAL/MOL
REMARK 922        TOTAL FREE ENERGY PREDICTED BY IDOCK:   75.93 KCAL/MOL
REMARK 923 INTER-LIGAND FREE ENERGY PREDICTED BY IDOCK:   67.79 KCAL/MOL
REMARK 924 INTRA-LIGAND FREE ENERGY PREDICTED BY IDOCK:    8.15 KCAL/MOL
REMARK 927      BINDING AFFINITY PREDICTED BY RF-SCORE:    0.00 PKD
ROOT
HETATM    1  C   UNL     1      -8.851   8.558  67.756  1.00  0.00    -0.137 C  
HETATM    2  N   UNL     1      -8.794   9.368  66.516  1.00  0.00    -0.133 NA 
HETATM    3  C   UNL     1      -8.177   8.944  65.281  1.00  0.00    -0.137 C  
HETATM    4  C   UNL     1      -8.923  10.689  66.881  1.00  0.00    -0.137 A  
HETATM    5  C   UNL     1      -8.604  11.814  66.151  1.00  0.00    -0.001 A  
HETATM    6  C   UNL     1      -8.899  13.088  66.653  1.00  0.00    -0.073 A  
HETATM    7  N   UNL     1     -10.601   9.185  70.978  1.00  0.00    -0.265 NA 
HETATM    8  C   UNL     1      -9.664  13.225  67.834  1.00  0.00    -0.224 A  
HETATM    9  C   UNL     1      -9.937  12.052  68.575  1.00  0.00    -0.188 A  
HETATM   10  C   UNL     1     -11.251   8.246  71.854  1.00  0.00    -0.300 C  
HETATM   11  H   UNL     1     -10.697   6.216  66.221  1.00  0.00     0.000 HD 
HETATM   12  O   UNL     1     -10.286   7.064  66.342  1.00  0.00    -0.098 OA 
HETATM   13  C   UNL     1      -9.478  10.829  68.137  1.00  0.00    -0.161 A  
HETATM   14  C   UNL     1      -9.528   7.161  67.557  1.00  0.00    -0.124 C  
HETATM   15  C   UNL     1     -10.455   6.880  68.745  1.00  0.00    -0.205 C  
HETATM   16  C   UNL     1      -9.464   9.516  68.886  1.00  0.00    -0.155 C  
HETATM   17  C   UNL     1     -10.836   9.203  69.538  1.00  0.00    -0.180 C  
HETATM   18  C   UNL     1     -11.576   7.973  68.928  1.00  0.00     1.119 C  
HETATM   19  C   UNL     1     -12.617   7.457  69.928  1.00  0.00     1.151 C  
HETATM   20  C   UNL     1      -8.478   9.645  70.083  1.00  0.00    -0.231 C  
HETATM   21  C   UNL     1     -12.455   7.592  71.251  1.00  0.00    -0.354 C  
HETATM   22  C   UNL     1      -9.301   9.658  71.356  1.00  0.00     0.683 C  
ENDROOT
BRANCH   6  23
HETATM   23  O   UNL     1      -8.483  14.203  65.980  1.00  0.00     0.668 OA 
HETATM   24  C   UNL     1      -7.516  14.998  66.672  1.00  0.00     0.707 C  
ENDBRANCH   6  23
BRANCH   8  25
HETATM   25  C   UNL     1     -10.224  14.578  68.417  1.00  0.00    -0.239 C  
HETATM   26  C   UNL     1      -9.507  19.541  70.051  1.00  0.00     0.702 C  
HETATM   27  C   UNL     1     -12.305  17.415  68.397  1.00  0.00     3.283 C  
HETATM   28  N   UNL     1     -10.612  18.561  70.045  1.00  0.00     1.190 NA 
HETATM   29  C   UNL     1      -8.161  19.173  69.311  1.00  0.00    -0.026 C  
HETATM   30  C   UNL     1     -11.675  16.627  67.259  1.00  0.00     0.895 A  
HETATM   31  C   UNL     1      -7.828  17.665  69.508  1.00  0.00     0.504 C  
HETATM   32  C   UNL     1     -12.495  18.065  65.203  1.00  0.00     8.187 A  
HETATM   33  O   UNL     1      -7.097  19.929  69.920  1.00  0.00    -0.232 OA 
HETATM   34  C   UNL     1      -8.948  15.335  69.051  1.00  0.00    -0.225 C  
HETATM   35  C   UNL     1     -10.101  17.225  70.299  1.00  0.00     1.182 C  
HETATM   36  H   UNL     1      -6.287  19.708  69.475  1.00  0.00     0.000 HD 
HETATM   37  C   UNL     1     -10.883  15.460  67.272  1.00  0.00    -0.316 A  
HETATM   38  C   UNL     1     -12.415  18.161  63.806  1.00  0.00    12.446 A  
HETATM   39  N   UNL     1     -10.783  15.083  65.946  1.00  0.00    -0.318 NA 
HETATM   40  C   UNL     1     -11.841  17.009  65.871  1.00  0.00     2.318 A  
HETATM   41  C   UNL     1      -9.097  16.847  69.219  1.00  0.00     0.020 C  
HETATM   42  C   UNL     1     -11.191  16.065  65.093  1.00  0.00    -0.189 A  
HETATM   43  C   UNL     1     -11.523  18.668  68.888  1.00  0.00     2.734 C  
HETATM   44  C   UNL     1     -11.078  16.147  63.699  1.00  0.00     2.159 A  
HETATM   45  H   UNL     1     -10.442  14.171  65.640  1.00  0.00     0.000 HD 
HETATM   46  C   UNL     1     -11.695  17.227  63.068  1.00  0.00    10.246 A  
BRANCH  25  47
HETATM   47  C   UNL     1     -11.335  14.317  69.471  1.00  0.00    -0.269 C  
HETATM   48  O   UNL     1     -12.330  13.615  69.282  1.00  0.00    -0.288 OA 
BRANCH  47  49
HETATM   49  O   UNL     1     -11.078  14.961  70.655  1.00  0.00    -0.222 OA 
HETATM   50  C   UNL     1      -9.896  14.525  71.336  1.00  0.00     3.553 C  
ENDBRANCH  47  49
ENDBRANCH  25  47
BRANCH  29  51
HETATM   51  C   UNL     1      -8.213  19.576  67.813  1.00  0.00    -0.333 C  
HETATM   52  C   UNL     1      -8.411  18.411  66.845  1.00  0.00    -0.272 C  
ENDBRANCH  29  51
ENDBRANCH   8  25
BRANCH  18  53
HETATM   53  C   UNL     1     -12.409   8.575  67.726  1.00  0.00     6.635 C  
HETATM   54  C   UNL     1     -12.420  10.043  67.324  1.00  0.00     6.135 C  
ENDBRANCH  18  53
BRANCH  15  55
HETATM   55  O   UNL     1     -11.072   5.569  68.725  1.00  0.00    -0.061 OA 
BRANCH  55  56
HETATM   56  C   UNL     1     -11.048   4.981  67.486  1.00  0.00     1.211 C  
HETATM   57  O   UNL     1     -10.195   4.208  67.072  1.00  0.00    -0.070 OA 
HETATM   58  C   UNL     1     -12.329   5.274  66.742  1.00  0.00     6.597 C  
ENDBRANCH  55  56
ENDBRANCH  15  55
BRANCH  14  59
HETATM   59  C   UNL     1      -8.418   6.096  67.375  1.00  0.00    -0.107 C  
HETATM   60  O   UNL     1      -7.769   5.576  68.275  1.00  0.00    -0.083 OA 
BRANCH  59  61
HETATM   61  O   UNL     1      -8.149   5.909  66.045  1.00  0.00    -0.107 OA 
HETATM   62  C   UNL     1      -7.222   4.860  65.744  1.00  0.00    -0.076 C  
ENDBRANCH  59  61
ENDBRANCH  14  59
TORSDOF 10
ENDMDL
MODEL       62
REMARK 921   NORMALIZED FREE ENERGY PREDICTED BY IDOCK:   49.72 KCAL/MOL
REMARK 922        TOTAL FREE ENERGY PREDICTED BY IDOCK:   77.63 KCAL/MOL
REMARK 923 INTER-LIGAND FREE ENERGY PREDICTED BY IDOCK:   65.51 KCAL/MOL
REMARK 924 INTRA-LIGAND FREE ENERGY PREDICTED BY IDOCK:   12.12 KCAL/MOL
REMARK 927      BINDING AFFINITY PREDICTED BY RF-SCORE:    0.00 PKD
ROOT
HETATM    1  C   UNL     1     -11.358   7.626  68.646  1.00  0.00     0.624 C  
HETATM    2  N   UNL     1     -11.419   8.548  69.803  1.00  0.00     0.133 NA 
HETATM    3  C   UNL     1     -12.091   8.266  71.050  1.00  0.00    -0.208 C  
HETATM    4  C   UNL     1     -11.221   9.823  69.325  1.00  0.00    -0.088 A  
HETATM    5  C   UNL     1     -11.512  11.024  69.937  1.00  0.00    -0.400 A  
HETATM    6  C   UNL     1     -11.147  12.232  69.331  1.00  0.00    -0.101 A  
HETATM    7  N   UNL     1      -9.485   7.879  65.442  1.00  0.00     0.443 NA 
HETATM    8  C   UNL     1     -10.341  12.228  68.170  1.00  0.00    -0.221 A  
HETATM    9  C   UNL     1     -10.097  10.981  67.549  1.00  0.00    -0.208 A  
HETATM   10  C   UNL     1      -8.850   6.838  64.679  1.00  0.00     0.555 C  
HETATM   11  H   UNL     1      -9.665   5.363  70.451  1.00  0.00     0.000 HD 
HETATM   12  O   UNL     1     -10.035   6.212  70.240  1.00  0.00    -0.175 OA 
HETATM   13  C   UNL     1     -10.622   9.823  68.081  1.00  0.00    -0.276 A  
HETATM   14  C   UNL     1     -10.749   6.227  68.995  1.00  0.00    -0.302 C  
HETATM   15  C   UNL     1      -9.799   5.799  67.870  1.00  0.00    -0.127 C  
HETATM   16  C   UNL     1     -10.670   8.449  67.455  1.00  0.00    -0.225 C  
HETATM   17  C   UNL     1      -9.293   8.021  66.882  1.00  0.00    -0.164 C  
HETATM   18  C   UNL     1      -8.628   6.824  67.628  1.00  0.00    -0.121 C  
HETATM   19  C   UNL     1      -7.579   6.176  66.715  1.00  0.00    -0.099 C  
HETATM   20  C   UNL     1     -11.612   8.506  66.218  1.00  0.00     4.658 C  
HETATM   21  C   UNL     1      -7.694   6.193  65.380  1.00  0.00    -0.093 C  
HETATM   22  C   UNL     1     -10.751   8.367  64.978  1.00  0.00     5.668 C  
ENDROOT
BRANCH   6  23
HETATM   23  O   UNL     1     -11.535  13.421  69.885  1.00  0.00    -0.216 OA 
HETATM   24  C   UNL     1     -10.480  14.369  70.072  1.00  0.00     0.346 C  
ENDBRANCH   6  23
BRANCH   8  25
HETATM   25  C   UNL     1      -9.705  13.497  67.486  1.00  0.00    -0.228 C  
HETATM   26  C   UNL     1      -9.840  18.623  66.249  1.00  0.00    -0.342 C  
HETATM   27  C   UNL     1      -7.177  15.892  66.983  1.00  0.00    -0.232 C  
HETATM   28  N   UNL     1      -8.995  17.459  65.915  1.00  0.00    -0.528 NA 
HETATM   29  C   UNL     1     -10.977  18.451  67.333  1.00  0.00    -0.121 C  
HETATM   30  C   UNL     1      -7.614  15.145  68.232  1.00  0.00    -0.109 A  
HETATM   31  C   UNL     1     -11.644  17.050  67.201  1.00  0.00     0.994 C  
HETATM   32  C   UNL     1      -5.991  16.238  70.005  1.00  0.00    -0.167 A  
HETATM   33  O   UNL     1     -11.994  19.435  67.072  1.00  0.00     1.245 OA 
HETATM   34  C   UNL     1     -10.929  14.525  67.261  1.00  0.00    -0.307 C  
HETATM   35  C   UNL     1      -9.811  16.265  65.784  1.00  0.00    -0.299 C  
HETATM   36  H   UNL     1     -12.677  19.332  67.723  1.00  0.00     0.000 HD 
HETATM   37  C   UNL     1      -8.595  14.148  68.417  1.00  0.00    -0.176 A  
HETATM   38  C   UNL     1      -5.664  16.234  71.369  1.00  0.00     0.614 A  
HETATM   39  N   UNL     1      -8.400  13.690  69.707  1.00  0.00     0.711 NA 
HETATM   40  C   UNL     1      -7.001  15.377  69.525  1.00  0.00    -0.188 A  
HETATM   41  C   UNL     1     -10.534  15.993  67.096  1.00  0.00    -0.308 C  
HETATM   42  C   UNL     1      -7.587  14.509  70.432  1.00  0.00     0.916 A  
HETATM   43  C   UNL     1      -7.798  17.303  66.767  1.00  0.00    -0.243 C  
HETATM   44  C   UNL     1      -7.293  14.498  71.802  1.00  0.00     3.163 A  
HETATM   45  H   UNL     1      -8.818  12.835  70.074  1.00  0.00     0.000 HD 
HETATM   46  C   UNL     1      -6.324  15.392  72.258  1.00  0.00     1.904 A  
BRANCH  25  47
HETATM   47  C   UNL     1      -9.002  13.122  66.152  1.00  0.00     0.220 C  
HETATM   48  O   UNL     1      -7.826  13.376  65.884  1.00  0.00     1.947 OA 
BRANCH  47  49
HETATM   49  O   UNL     1      -9.847  12.463  65.295  1.00  0.00    -0.245 OA 
HETATM   50  C   UNL     1     -11.239  12.569  65.618  1.00  0.00    -0.317 C  
ENDBRANCH  47  49
ENDBRANCH  25  47
BRANCH  29  51
HETATM   51  C   UNL     1     -10.436  18.715  68.764  1.00  0.00    -0.046 C  
HETATM   52  C   UNL     1     -10.008  20.159  69.027  1.00  0.00    -0.215 C  
ENDBRANCH  29  51
ENDBRANCH   8  25
BRANCH  18  53
HETATM   53  C   UNL     1      -7.806   7.500  68.798  1.00  0.00    -0.121 C  
HETATM   54  C   UNL     1      -6.452   8.179  68.631  1.00  0.00    -0.053 C  
ENDBRANCH  18  53
BRANCH  15  55
HETATM   55  O   UNL     1      -9.242   4.472  68.032  1.00  0.00    -0.118 OA 
BRANCH  55  56
HETATM   56  C   UNL     1      -9.858   3.529  67.250  1.00  0.00     0.161 C  
HETATM   57  O   UNL     1     -10.744   2.764  67.607  1.00  0.00     3.163 OA 
HETATM   58  C   UNL     1      -9.421   3.673  65.812  1.00  0.00    -0.161 C  
ENDBRANCH  55  56
ENDBRANCH  15  55
BRANCH  14  59
HETATM   59  C   UNL     1     -11.910   5.229  69.235  1.00  0.00     4.181 C  
HETATM   60  O   UNL     1     -12.579   5.141  70.258  1.00  0.00     5.486 OA 
BRANCH  59  61
HETATM   61  O   UNL     1     -12.003   4.344  68.193  1.00  0.00     7.818 OA 
HETATM   62  C   UNL     1     -13.333   3.972  67.817  1.00  0.00    28.102 C  
ENDBRANCH  59  61
ENDBRANCH  14  59
TORSDOF 10
ENDMDL
MODEL       63
REMARK 921   NORMALIZED FREE ENERGY PREDICTED BY IDOCK:   51.55 KCAL/MOL
REMARK 922        TOTAL FREE ENERGY PREDICTED BY IDOCK:   80.53 KCAL/MOL
REMARK 923 INTER-LIGAND FREE ENERGY PREDICTED BY IDOCK:   65.00 KCAL/MOL
REMARK 924 INTRA-LIGAND FREE ENERGY PREDICTED BY IDOCK:   15.53 KCAL/MOL
REMARK 927      BINDING AFFINITY PREDICTED BY RF-SCORE:    0.00 PKD
ROOT
HETATM    1  C   UNL     1     -10.527   9.107  68.134  1.00  0.00    -0.211 C  
HETATM    2  N   UNL     1     -11.141   9.611  66.884  1.00  0.00     0.112 NA 
HETATM    3  C   UNL     1     -11.732   8.780  65.860  1.00  0.00     6.822 C  
HETATM    4  C   UNL     1     -10.601  10.851  66.630  1.00  0.00    -0.249 A  
HETATM    5  C   UNL     1     -10.598  11.559  65.447  1.00  0.00    -0.336 A  
HETATM    6  C   UNL     1     -10.081  12.860  65.404  1.00  0.00    -0.251 A  
HETATM    7  N   UNL     1      -9.211  10.935  71.094  1.00  0.00     4.112 NA 
HETATM    8  C   UNL     1      -9.705  13.513  66.600  1.00  0.00    -0.281 A  
HETATM    9  C   UNL     1      -9.684  12.743  67.786  1.00  0.00    -0.207 A  
HETATM   10  C   UNL     1      -9.275  10.572  72.485  1.00  0.00    10.207 C  
HETATM   11  H   UNL     1     -13.462   7.838  69.146  1.00  0.00     0.000 HD 
HETATM   12  O   UNL     1     -12.874   8.372  68.623  1.00  0.00     5.560 OA 
HETATM   13  C   UNL     1     -10.034  11.410  67.758  1.00  0.00    -0.192 A  
HETATM   14  C   UNL     1     -11.495   8.228  68.995  1.00  0.00     0.831 C  
HETATM   15  C   UNL     1     -11.336   8.607  70.472  1.00  0.00    -0.218 C  
HETATM   16  C   UNL     1      -9.860  10.378  68.848  1.00  0.00    -0.206 C  
HETATM   17  C   UNL     1     -10.378  10.885  70.220  1.00  0.00     0.691 C  
HETATM   18  C   UNL     1     -11.632  10.128  70.756  1.00  0.00    -0.445 C  
HETATM   19  C   UNL     1     -11.744  10.340  72.270  1.00  0.00     1.520 C  
HETATM   20  C   UNL     1      -8.337  10.145  69.062  1.00  0.00    -0.138 C  
HETATM   21  C   UNL     1     -10.666  10.543  73.039  1.00  0.00     9.683 C  
HETATM   22  C   UNL     1      -7.967  10.732  70.410  1.00  0.00     1.465 C  
ENDROOT
BRANCH   6  23
HETATM   23  O   UNL     1      -9.977  13.517  64.210  1.00  0.00    -0.270 OA 
HETATM   24  C   UNL     1     -10.600  14.804  64.175  1.00  0.00     0.907 C  
ENDBRANCH   6  23
BRANCH   8  25
HETATM   25  C   UNL     1      -9.282  15.025  66.730  1.00  0.00    -0.280 C  
HETATM   26  C   UNL     1     -10.133  19.913  68.519  1.00  0.00    -0.421 C  
HETATM   27  C   UNL     1      -7.109  17.641  67.635  1.00  0.00    -0.187 C  
HETATM   28  N   UNL     1      -9.181  19.256  67.602  1.00  0.00    -0.298 NA 
HETATM   29  C   UNL     1     -11.154  19.017  69.326  1.00  0.00     2.165 C  
HETATM   30  C   UNL     1      -7.355  16.280  68.265  1.00  0.00    -0.146 A  
HETATM   31  C   UNL     1     -11.654  17.836  68.443  1.00  0.00     1.422 C  
HETATM   32  C   UNL     1      -5.745  16.449  70.350  1.00  0.00    -0.100 A  
HETATM   33  O   UNL     1     -12.300  19.826  69.648  1.00  0.00     7.008 OA 
HETATM   34  C   UNL     1     -10.636  15.821  67.105  1.00  0.00    -0.313 C  
HETATM   35  C   UNL     1      -9.854  18.224  66.833  1.00  0.00    -0.331 C  
HETATM   36  H   UNL     1     -12.913  19.287  70.133  1.00  0.00     0.000 HD 
HETATM   37  C   UNL     1      -8.191  15.215  67.868  1.00  0.00    -0.146 A  
HETATM   38  C   UNL     1      -5.315  15.750  71.488  1.00  0.00     0.117 A  
HETATM   39  N   UNL     1      -7.842  14.162  68.693  1.00  0.00    -0.138 NA 
HETATM   40  C   UNL     1      -6.677  15.855  69.473  1.00  0.00    -0.192 A  
HETATM   41  C   UNL     1     -10.435  17.180  67.776  1.00  0.00    -0.362 C  
HETATM   42  C   UNL     1      -7.081  14.559  69.751  1.00  0.00    -0.052 A  
HETATM   43  C   UNL     1      -7.912  18.835  68.230  1.00  0.00    -0.318 C  
HETATM   44  C   UNL     1      -6.683  13.846  70.889  1.00  0.00     0.749 A  
HETATM   45  H   UNL     1      -8.124  13.195  68.528  1.00  0.00     0.000 HD 
HETATM   46  C   UNL     1      -5.798  14.475  71.764  1.00  0.00     0.042 A  
BRANCH  25  47
HETATM   47  C   UNL     1      -8.643  15.544  65.412  1.00  0.00     1.938 C  
HETATM   48  O   UNL     1      -9.165  16.367  64.656  1.00  0.00     1.862 OA 
BRANCH  47  49
HETATM   49  O   UNL     1      -7.414  14.978  65.180  1.00  0.00     6.434 OA 
HETATM   50  C   UNL     1      -6.480  15.102  66.259  1.00  0.00     3.591 C  
ENDBRANCH  47  49
ENDBRANCH  25  47
BRANCH  29  51
HETATM   51  C   UNL     1     -10.540  18.533  70.668  1.00  0.00     2.253 C  
HETATM   52  C   UNL     1     -10.116  17.065  70.683  1.00  0.00     1.910 C  
ENDBRANCH  29  51
ENDBRANCH   8  25
BRANCH  18  53
HETATM   53  C   UNL     1     -12.857  10.909  70.130  1.00  0.00    -0.144 C  
HETATM   54  C   UNL     1     -12.801  11.733  68.851  1.00  0.00     1.556 C  
ENDBRANCH  18  53
BRANCH  15  55
HETATM   55  O   UNL     1     -12.114   7.795  71.384  1.00  0.00    -0.297 OA 
BRANCH  55  56
HETATM   56  C   UNL     1     -11.379   6.809  71.991  1.00  0.00    -0.272 C  
HETATM   57  O   UNL     1     -10.852   6.879  73.093  1.00  0.00    -0.279 OA 
HETATM   58  C   UNL     1     -11.450   5.532  71.189  1.00  0.00     0.247 C  
ENDBRANCH  55  56
ENDBRANCH  15  55
BRANCH  14  59
HETATM   59  C   UNL     1     -11.197   6.736  68.704  1.00  0.00    -0.088 C  
HETATM   60  O   UNL     1     -10.885   5.892  69.536  1.00  0.00    -0.317 OA 
BRANCH  59  61
HETATM   61  O   UNL     1     -11.188   6.504  67.354  1.00  0.00    -0.359 OA 
HETATM   62  C   UNL     1      -9.894   6.348  66.764  1.00  0.00    -0.162 C  
ENDBRANCH  59  61
ENDBRANCH  14  59
TORSDOF 10
ENDMDL
MODEL       64
REMARK 921   NORMALIZED FREE ENERGY PREDICTED BY IDOCK:   51.86 KCAL/MOL
REMARK 922        TOTAL FREE ENERGY PREDICTED BY IDOCK:   81.02 KCAL/MOL
REMARK 923 INTER-LIGAND FREE ENERGY PREDICTED BY IDOCK:   54.54 KCAL/MOL
REMARK 924 INTRA-LIGAND FREE ENERGY PREDICTED BY IDOCK:   26.48 KCAL/MOL
REMARK 927      BINDING AFFINITY PREDICTED BY RF-SCORE:    0.00 PKD
ROOT
HETATM    1  C   UNL     1      -9.333   8.118  70.878  1.00  0.00    -0.151 C  
HETATM    2  N   UNL     1      -8.795   7.603  69.597  1.00  0.00    -0.140 NA 
HETATM    3  C   UNL     1      -8.129   6.332  69.433  1.00  0.00    -0.113 C  
HETATM    4  C   UNL     1      -8.563   8.686  68.782  1.00  0.00    -0.130 A  
HETATM    5  C   UNL     1      -7.776   8.756  67.652  1.00  0.00    -0.101 A  
HETATM    6  C   UNL     1      -7.738   9.931  66.889  1.00  0.00    -0.098 A  
HETATM    7  N   UNL     1     -11.353  11.155  71.609  1.00  0.00     1.865 NA 
HETATM    8  C   UNL     1      -8.623  10.994  67.180  1.00  0.00    -0.136 A  
HETATM    9  C   UNL     1      -9.385  10.902  68.368  1.00  0.00    -0.172 A  
HETATM   10  C   UNL     1     -12.416  11.329  72.562  1.00  0.00     1.995 C  
HETATM   11  H   UNL     1     -11.511   5.575  71.065  1.00  0.00     0.000 HD 
HETATM   12  O   UNL     1     -10.882   6.158  70.657  1.00  0.00    -0.255 OA 
HETATM   13  C   UNL     1      -9.265   9.803  69.190  1.00  0.00    -0.177 A  
HETATM   14  C   UNL     1     -10.369   7.158  71.551  1.00  0.00    -0.202 C  
HETATM   15  C   UNL     1     -11.539   7.985  72.096  1.00  0.00    -0.342 C  
HETATM   16  C   UNL     1      -9.806   9.623  70.589  1.00  0.00    -0.268 C  
HETATM   17  C   UNL     1     -11.302  10.021  70.692  1.00  0.00    -0.348 C  
HETATM   18  C   UNL     1     -12.268   8.832  70.985  1.00  0.00    -0.226 C  
HETATM   19  C   UNL     1     -13.584   9.375  71.554  1.00  0.00    -0.408 C  
HETATM   20  C   UNL     1      -9.068  10.615  71.532  1.00  0.00     6.082 C  
HETATM   21  C   UNL     1     -13.634  10.509  72.265  1.00  0.00    -0.059 C  
HETATM   22  C   UNL     1     -10.063  11.682  71.947  1.00  0.00    12.087 C  
ENDROOT
BRANCH   6  23
HETATM   23  O   UNL     1      -6.874  10.035  65.835  1.00  0.00    -0.095 OA 
HETATM   24  C   UNL     1      -5.498  10.182  66.198  1.00  0.00    -0.053 C  
ENDBRANCH   6  23
BRANCH   8  25
HETATM   25  C   UNL     1      -8.822  12.291  66.308  1.00  0.00    -0.010 C  
HETATM   26  C   UNL     1     -11.895  16.110  64.362  1.00  0.00     0.051 C  
HETATM   27  C   UNL     1      -8.185  15.633  65.409  1.00  0.00     2.914 C  
HETATM   28  N   UNL     1     -10.504  15.651  64.176  1.00  0.00     0.574 NA 
HETATM   29  C   UNL     1     -12.775  15.434  65.486  1.00  0.00     1.070 C  
HETATM   30  C   UNL     1      -8.173  14.941  66.763  1.00  0.00    -0.086 A  
HETATM   31  C   UNL     1     -12.468  13.909  65.570  1.00  0.00    -0.541 C  
HETATM   32  C   UNL     1      -7.637  17.002  68.323  1.00  0.00    -0.213 A  
HETATM   33  O   UNL     1     -14.158  15.573  65.113  1.00  0.00     1.643 OA 
HETATM   34  C   UNL     1     -10.399  12.345  65.970  1.00  0.00    -0.275 C  
HETATM   35  C   UNL     1     -10.440  14.202  64.235  1.00  0.00     0.257 C  
HETATM   36  H   UNL     1     -14.687  15.166  65.789  1.00  0.00     0.000 HD 
HETATM   37  C   UNL     1      -8.380  13.589  67.110  1.00  0.00    -0.139 A  
HETATM   38  C   UNL     1      -7.462  17.369  69.665  1.00  0.00     0.500 A  
HETATM   39  N   UNL     1      -8.035  13.508  68.447  1.00  0.00    -0.142 NA 
HETATM   40  C   UNL     1      -7.904  15.656  67.994  1.00  0.00    -0.135 A  
HETATM   41  C   UNL     1     -10.943  13.722  65.589  1.00  0.00    -0.288 C  
HETATM   42  C   UNL     1      -7.917  14.735  69.029  1.00  0.00    -0.152 A  
HETATM   43  C   UNL     1      -9.507  16.351  65.011  1.00  0.00     1.451 C  
HETATM   44  C   UNL     1      -7.765  15.077  70.379  1.00  0.00     0.747 A  
HETATM   45  H   UNL     1      -7.886  12.628  68.942  1.00  0.00     0.000 HD 
HETATM   46  C   UNL     1      -7.549  16.421  70.680  1.00  0.00     2.842 A  
BRANCH  25  47
HETATM   47  C   UNL     1      -7.948  12.243  65.025  1.00  0.00     2.905 C  
HETATM   48  O   UNL     1      -8.391  12.137  63.879  1.00  0.00     1.660 OA 
BRANCH  47  49
HETATM   49  O   UNL     1      -6.609  12.339  65.312  1.00  0.00     2.797 OA 
HETATM   50  C   UNL     1      -6.295  12.405  66.708  1.00  0.00     0.385 C  
ENDBRANCH  47  49
ENDBRANCH  25  47
BRANCH  29  51
HETATM   51  C   UNL     1     -12.591  16.150  66.851  1.00  0.00     2.930 C  
HETATM   52  C   UNL     1     -12.858  17.654  66.824  1.00  0.00     7.581 C  
ENDBRANCH  29  51
ENDBRANCH   8  25
BRANCH  18  53
HETATM   53  C   UNL     1     -12.633   8.262  69.554  1.00  0.00     2.809 C  
HETATM   54  C   UNL     1     -11.900   8.613  68.266  1.00  0.00     2.451 C  
ENDBRANCH  18  53
BRANCH  15  55
HETATM   55  O   UNL     1     -12.525   7.216  72.828  1.00  0.00     0.237 OA 
BRANCH  55  56
HETATM   56  C   UNL     1     -12.212   5.884  72.918  1.00  0.00     0.362 C  
HETATM   57  O   UNL     1     -11.360   5.391  73.645  1.00  0.00    -0.160 OA 
HETATM   58  C   UNL     1     -13.193   5.060  72.118  1.00  0.00     2.519 C  
ENDBRANCH  55  56
ENDBRANCH  15  55
BRANCH  14  59
HETATM   59  C   UNL     1      -9.641   6.328  72.638  1.00  0.00    -0.151 C  
HETATM   60  O   UNL     1     -10.172   5.777  73.594  1.00  0.00    -0.188 OA 
BRANCH  59  61
HETATM   61  O   UNL     1      -8.283   6.409  72.471  1.00  0.00    -0.106 OA 
HETATM   62  C   UNL     1      -7.827   6.403  71.114  1.00  0.00    -0.114 C  
ENDBRANCH  59  61
ENDBRANCH  14  59
TORSDOF 10
ENDMDL
MODEL       65
REMARK 921   NORMALIZED FREE ENERGY PREDICTED BY IDOCK:   52.92 KCAL/MOL
REMARK 922        TOTAL FREE ENERGY PREDICTED BY IDOCK:   82.70 KCAL/MOL
REMARK 923 INTER-LIGAND FREE ENERGY PREDICTED BY IDOCK:   73.89 KCAL/MOL
REMARK 924 INTRA-LIGAND FREE ENERGY PREDICTED BY IDOCK:    8.80 KCAL/MOL
REMARK 927      BINDING AFFINITY PREDICTED BY RF-SCORE:    0.00 PKD
ROOT
HETATM    1  C   UNL     1     -11.674  16.404  68.981  1.00  0.00    -0.054 C  
HETATM    2  N   UNL     1     -12.321  15.581  67.933  1.00  0.00     0.530 NA 
HETATM    3  C   UNL     1     -13.605  15.864  67.337  1.00  0.00     6.403 C  
HETATM    4  C   UNL     1     -11.792  14.314  68.019  1.00  0.00    -0.344 A  
HETATM    5  C   UNL     1     -12.294  13.138  67.502  1.00  0.00     0.018 A  
HETATM    6  C   UNL     1     -11.560  11.950  67.608  1.00  0.00    -0.312 A  
HETATM    7  N   UNL     1      -8.288  16.164  70.502  1.00  0.00     2.067 NA 
HETATM    8  C   UNL     1     -10.236  11.976  68.103  1.00  0.00    -0.203 A  
HETATM    9  C   UNL     1      -9.771  13.190  68.660  1.00  0.00    -0.062 A  
HETATM   10  C   UNL     1      -7.407  17.220  70.926  1.00  0.00     4.315 C  
HETATM   11  H   UNL     1     -11.495  19.031  66.904  1.00  0.00     0.000 HD 
HETATM   12  O   UNL     1     -11.612  18.122  67.155  1.00  0.00     0.794 OA 
HETATM   13  C   UNL     1     -10.589  14.298  68.697  1.00  0.00    -0.254 A  
HETATM   14  C   UNL     1     -11.479  17.901  68.567  1.00  0.00     1.363 C  
HETATM   15  C   UNL     1     -10.090  18.369  69.015  1.00  0.00    -0.244 C  
HETATM   16  C   UNL     1     -10.368  15.595  69.441  1.00  0.00    -0.260 C  
HETATM   17  C   UNL     1      -8.948  16.171  69.201  1.00  0.00    -0.237 C  
HETATM   18  C   UNL     1      -8.920  17.509  68.401  1.00  0.00    -0.276 C  
HETATM   19  C   UNL     1      -7.589  18.225  68.655  1.00  0.00    -0.311 C  
HETATM   20  C   UNL     1     -10.422  15.299  70.967  1.00  0.00     0.258 C  
HETATM   21  C   UNL     1      -6.914  18.082  69.804  1.00  0.00     0.297 C  
HETATM   22  C   UNL     1      -9.017  15.459  71.516  1.00  0.00     4.336 C  
ENDROOT
BRANCH   6  23
HETATM   23  O   UNL     1     -12.108  10.767  67.195  1.00  0.00     0.362 OA 
HETATM   24  C   UNL     1     -13.487  10.592  67.534  1.00  0.00    12.348 C  
ENDBRANCH   6  23
BRANCH   8  25
HETATM   25  C   UNL     1      -9.233  10.762  68.112  1.00  0.00    -0.151 C  
HETATM   26  C   UNL     1      -8.153   5.679  69.019  1.00  0.00    -0.097 C  
HETATM   27  C   UNL     1      -6.977   8.505  66.628  1.00  0.00    -0.076 C  
HETATM   28  N   UNL     1      -7.391   6.891  68.659  1.00  0.00    -0.091 NA 
HETATM   29  C   UNL     1      -9.730   5.762  69.079  1.00  0.00    -0.140 C  
HETATM   30  C   UNL     1      -8.217   9.189  66.077  1.00  0.00    -0.115 A  
HETATM   31  C   UNL     1     -10.179   7.134  69.663  1.00  0.00    -0.215 C  
HETATM   32  C   UNL     1      -8.293   8.115  63.666  1.00  0.00     0.007 A  
HETATM   33  O   UNL     1     -10.196   4.740  69.979  1.00  0.00    -0.251 OA 
HETATM   34  C   UNL     1      -9.867   9.686  69.135  1.00  0.00    -0.189 C  
HETATM   35  C   UNL     1      -7.933   8.050  69.347  1.00  0.00    -0.116 C  
HETATM   36  H   UNL     1     -11.144   4.790  70.014  1.00  0.00     0.000 HD 
HETATM   37  C   UNL     1      -9.088  10.132  66.661  1.00  0.00    -0.144 A  
HETATM   38  C   UNL     1      -9.042   8.089  62.480  1.00  0.00     0.832 A  
HETATM   39  N   UNL     1      -9.901  10.556  65.625  1.00  0.00    -0.236 NA 
HETATM   40  C   UNL     1      -8.702   8.943  64.733  1.00  0.00    -0.162 A  
HETATM   41  C   UNL     1      -9.390   8.244  68.952  1.00  0.00    -0.147 C  
HETATM   42  C   UNL     1      -9.807   9.753  64.528  1.00  0.00     0.083 A  
HETATM   43  C   UNL     1      -7.176   7.075  67.209  1.00  0.00    -0.089 C  
HETATM   44  C   UNL     1     -10.583   9.732  63.362  1.00  0.00     2.938 A  
HETATM   45  H   UNL     1     -10.503  11.378  65.677  1.00  0.00     0.000 HD 
HETATM   46  C   UNL     1     -10.184   8.870  62.341  1.00  0.00     3.782 A  
BRANCH  25  47
HETATM   47  C   UNL     1      -7.810  11.213  68.543  1.00  0.00    -0.136 C  
HETATM   48  O   UNL     1      -7.575  12.065  69.403  1.00  0.00     0.154 OA 
BRANCH  47  49
HETATM   49  O   UNL     1      -6.829  10.545  67.853  1.00  0.00    -0.068 OA 
HETATM   50  C   UNL     1      -6.012  11.371  67.015  1.00  0.00    -0.112 C  
ENDBRANCH  47  49
ENDBRANCH  25  47
BRANCH  29  51
HETATM   51  C   UNL     1     -10.361   5.475  67.689  1.00  0.00    -0.256 C  
HETATM   52  C   UNL     1     -10.381   4.001  67.289  1.00  0.00     0.598 C  
ENDBRANCH  29  51
ENDBRANCH   8  25
BRANCH  18  53
HETATM   53  C   UNL     1      -8.873  17.059  66.886  1.00  0.00    -0.251 C  
HETATM   54  C   UNL     1      -8.100  15.857  66.359  1.00  0.00    -0.197 C  
ENDBRANCH  18  53
BRANCH  15  55
HETATM   55  O   UNL     1      -9.824  19.772  68.772  1.00  0.00    -0.396 OA 
BRANCH  55  56
HETATM   56  C   UNL     1      -9.638  20.064  67.445  1.00  0.00    -0.394 C  
HETATM   57  O   UNL     1      -8.586  19.967  66.827  1.00  0.00    -0.310 OA 
HETATM   58  C   UNL     1     -10.962  20.358  66.782  1.00  0.00     0.603 C  
ENDBRANCH  55  56
ENDBRANCH  15  55
BRANCH  14  59
HETATM   59  C   UNL     1     -12.636  18.735  69.173  1.00  0.00    11.401 C  
HETATM   60  O   UNL     1     -13.830  18.473  69.086  1.00  0.00    15.283 OA 
BRANCH  59  61
HETATM   61  O   UNL     1     -12.156  19.902  69.706  1.00  0.00     6.046 OA 
HETATM   62  C   UNL     1     -12.425  21.084  68.947  1.00  0.00     5.973 C  
ENDBRANCH  59  61
ENDBRANCH  14  59
TORSDOF 10
ENDMDL
MODEL       66
REMARK 921   NORMALIZED FREE ENERGY PREDICTED BY IDOCK:   70.13 KCAL/MOL
REMARK 922        TOTAL FREE ENERGY PREDICTED BY IDOCK:  109.98 KCAL/MOL
REMARK 923 INTER-LIGAND FREE ENERGY PREDICTED BY IDOCK:   88.55 KCAL/MOL
REMARK 924 INTRA-LIGAND FREE ENERGY PREDICTED BY IDOCK:   21.43 KCAL/MOL
REMARK 927      BINDING AFFINITY PREDICTED BY RF-SCORE:    0.00 PKD
ROOT
HETATM    1  C   UNL     1      -8.509  14.509  68.326  1.00  0.00    -0.161 C  
HETATM    2  N   UNL     1      -7.262  13.715  68.228  1.00  0.00    -0.098 NA 
HETATM    3  C   UNL     1      -6.000  14.218  67.739  1.00  0.00    -0.098 C  
HETATM    4  C   UNL     1      -7.622  12.389  68.164  1.00  0.00    -0.129 A  
HETATM    5  C   UNL     1      -6.867  11.315  67.740  1.00  0.00    -0.074 A  
HETATM    6  C   UNL     1      -7.374  10.013  67.838  1.00  0.00    -0.088 A  
HETATM    7  N   UNL     1     -11.814  13.655  69.804  1.00  0.00    -0.312 NA 
HETATM    8  C   UNL     1      -8.593   9.776  68.514  1.00  0.00    -0.120 A  
HETATM    9  C   UNL     1      -9.356  10.902  68.899  1.00  0.00    -0.169 A  
HETATM   10  C   UNL     1     -12.730  14.499  70.525  1.00  0.00    -0.345 C  
HETATM   11  H   UNL     1      -7.092  16.590  70.541  1.00  0.00     0.000 HD 
HETATM   12  O   UNL     1      -7.184  15.803  70.017  1.00  0.00    -0.020 OA 
HETATM   13  C   UNL     1      -8.905  12.176  68.628  1.00  0.00    -0.004 A  
HETATM   14  C   UNL     1      -8.357  15.805  69.190  1.00  0.00    -0.249 C  
HETATM   15  C   UNL     1      -9.595  15.961  70.081  1.00  0.00     0.409 C  
HETATM   16  C   UNL     1      -9.662  13.478  68.747  1.00  0.00    -0.016 C  
HETATM   17  C   UNL     1     -10.388  13.608  70.112  1.00  0.00     1.545 C  
HETATM   18  C   UNL     1      -9.827  14.730  71.037  1.00  0.00     1.880 C  
HETATM   19  C   UNL     1     -10.885  15.103  72.083  1.00  0.00     0.530 C  
HETATM   20  C   UNL     1     -10.804  13.478  67.691  1.00  0.00    -0.273 C  
HETATM   21  C   UNL     1     -12.196  14.990  71.835  1.00  0.00    -0.427 C  
HETATM   22  C   UNL     1     -12.119  13.357  68.436  1.00  0.00    -0.235 C  
ENDROOT
BRANCH   6  23
HETATM   23  O   UNL     1      -6.672   8.963  67.315  1.00  0.00    -0.064 OA 
HETATM   24  C   UNL     1      -5.609   9.331  66.431  1.00  0.00    -0.052 C  
ENDBRANCH   6  23
BRANCH   8  25
HETATM   25  C   UNL     1      -9.193   8.361  68.860  1.00  0.00    -0.147 C  
HETATM   26  C   UNL     1     -12.494   4.377  67.835  1.00  0.00    16.403 C  
HETATM   27  C   UNL     1      -9.003   4.898  69.455  1.00  0.00    -0.130 C  
HETATM   28  N   UNL     1     -11.571   4.754  68.924  1.00  0.00     4.249 NA 
HETATM   29  C   UNL     1     -12.521   5.257  66.523  1.00  0.00     6.978 C  
HETATM   30  C   UNL     1      -8.197   5.801  68.536  1.00  0.00    -0.108 A  
HETATM   31  C   UNL     1     -12.351   6.764  66.876  1.00  0.00     5.186 C  
HETATM   32  C   UNL     1      -6.640   4.007  67.386  1.00  0.00    -0.046 A  
HETATM   33  O   UNL     1     -13.815   5.104  65.911  1.00  0.00     9.196 OA 
HETATM   34  C   UNL     1     -10.622   8.304  68.112  1.00  0.00    -0.169 C  
HETATM   35  C   UNL     1     -11.598   6.191  69.132  1.00  0.00     0.189 C  
HETATM   36  H   UNL     1     -13.831   5.633  65.121  1.00  0.00     0.000 HD 
HETATM   37  C   UNL     1      -8.245   7.198  68.340  1.00  0.00    -0.125 A  
HETATM   38  C   UNL     1      -5.631   3.858  66.422  1.00  0.00    -0.018 A  
HETATM   39  N   UNL     1      -7.144   7.485  67.553  1.00  0.00    -0.083 NA 
HETATM   40  C   UNL     1      -7.159   5.289  67.665  1.00  0.00    -0.067 A  
HETATM   41  C   UNL     1     -11.174   6.902  67.855  1.00  0.00    -0.103 C  
HETATM   42  C   UNL     1      -6.591   6.367  67.005  1.00  0.00    -0.058 A  
HETATM   43  C   UNL     1     -10.219   4.168  68.816  1.00  0.00     0.458 C  
HETATM   44  C   UNL     1      -5.597   6.245  66.025  1.00  0.00    -0.014 A  
HETATM   45  H   UNL     1      -6.787   8.428  67.400  1.00  0.00     0.000 HD 
HETATM   46  C   UNL     1      -5.135   4.961  65.735  1.00  0.00    -0.008 A  
BRANCH  25  47
HETATM   47  C   UNL     1      -9.328   8.169  70.396  1.00  0.00    -0.158 C  
HETATM   48  O   UNL     1      -9.475   7.081  70.957  1.00  0.00    -0.160 OA 
BRANCH  47  49
HETATM   49  O   UNL     1      -9.260   9.364  71.069  1.00  0.00    -0.229 OA 
HETATM   50  C   UNL     1      -9.971   9.398  72.312  1.00  0.00     1.120 C  
ENDBRANCH  47  49
ENDBRANCH  25  47
BRANCH  29  51
HETATM   51  C   UNL     1     -11.465   4.768  65.495  1.00  0.00     0.789 C  
HETATM   52  C   UNL     1     -10.420   5.813  65.108  1.00  0.00     1.603 C  
ENDBRANCH  29  51
ENDBRANCH   8  25
BRANCH  18  53
HETATM   53  C   UNL     1      -8.666  14.025  71.848  1.00  0.00     9.045 C  
HETATM   54  C   UNL     1      -8.869  13.162  73.085  1.00  0.00    18.133 C  
ENDBRANCH  18  53
BRANCH  15  55
HETATM   55  O   UNL     1      -9.617  17.180  70.865  1.00  0.00     3.211 OA 
BRANCH  55  56
HETATM   56  C   UNL     1     -10.341  17.063  72.023  1.00  0.00     4.595 C  
HETATM   57  O   UNL     1     -11.186  16.210  72.262  1.00  0.00    -0.048 OA 
HETATM   58  C   UNL     1      -9.830  18.032  73.061  1.00  0.00     8.552 C  
ENDBRANCH  55  56
ENDBRANCH  15  55
BRANCH  14  59
HETATM   59  C   UNL     1      -8.126  17.007  68.240  1.00  0.00    -0.228 C  
HETATM   60  O   UNL     1      -7.092  17.659  68.148  1.00  0.00    -0.203 OA 
BRANCH  59  61
HETATM   61  O   UNL     1      -9.292  17.346  67.605  1.00  0.00    -0.241 OA 
HETATM   62  C   UNL     1      -9.883  16.314  66.809  1.00  0.00    -0.245 C  
ENDBRANCH  59  61
ENDBRANCH  14  59
TORSDOF 10
ENDMDL
MODEL       67
REMARK 921   NORMALIZED FREE ENERGY PREDICTED BY IDOCK:   71.12 KCAL/MOL
REMARK 922        TOTAL FREE ENERGY PREDICTED BY IDOCK:  111.54 KCAL/MOL
REMARK 923 INTER-LIGAND FREE ENERGY PREDICTED BY IDOCK:   98.02 KCAL/MOL
REMARK 924 INTRA-LIGAND FREE ENERGY PREDICTED BY IDOCK:   13.53 KCAL/MOL
REMARK 927      BINDING AFFINITY PREDICTED BY RF-SCORE:    0.00 PKD
ROOT
HETATM    1  C   UNL     1      -8.049  15.410  68.380  1.00  0.00    -0.140 C  
HETATM    2  N   UNL     1      -7.059  14.312  68.288  1.00  0.00    -0.099 NA 
HETATM    3  C   UNL     1      -5.651  14.490  68.020  1.00  0.00    -0.127 C  
HETATM    4  C   UNL     1      -7.746  13.162  67.977  1.00  0.00    -0.146 A  
HETATM    5  C   UNL     1      -7.253  11.979  67.470  1.00  0.00    -0.127 A  
HETATM    6  C   UNL     1      -8.098  10.873  67.307  1.00  0.00    -0.123 A  
HETATM    7  N   UNL     1     -11.640  15.359  69.350  1.00  0.00    -0.317 NA 
HETATM    8  C   UNL     1      -9.420  10.912  67.805  1.00  0.00    -0.165 A  
HETATM    9  C   UNL     1      -9.902  12.153  68.282  1.00  0.00    -0.212 A  
HETATM   10  C   UNL     1     -12.391  16.334  70.095  1.00  0.00     0.533 C  
HETATM   11  H   UNL     1      -6.463  16.712  71.033  1.00  0.00     0.000 HD 
HETATM   12  O   UNL     1      -6.685  16.055  70.383  1.00  0.00     0.219 OA 
HETATM   13  C   UNL     1      -9.093  13.268  68.265  1.00  0.00    -0.184 A  
HETATM   14  C   UNL     1      -7.683  16.493  69.449  1.00  0.00    -0.037 C  
HETATM   15  C   UNL     1      -8.949  16.884  70.219  1.00  0.00     2.483 C  
HETATM   16  C   UNL     1      -9.484  14.707  68.509  1.00  0.00    -0.216 C  
HETATM   17  C   UNL     1     -10.338  14.870  69.793  1.00  0.00    -0.091 C  
HETATM   18  C   UNL     1      -9.638  15.663  70.939  1.00  0.00     1.665 C  
HETATM   19  C   UNL     1     -10.697  16.191  71.913  1.00  0.00     1.341 C  
HETATM   20  C   UNL     1     -10.419  15.164  67.352  1.00  0.00    -0.264 C  
HETATM   21  C   UNL     1     -11.941  16.488  71.515  1.00  0.00     0.028 C  
HETATM   22  C   UNL     1     -11.812  15.331  67.927  1.00  0.00    -0.125 C  
ENDROOT
BRANCH   6  23
HETATM   23  O   UNL     1      -7.633   9.739  66.701  1.00  0.00    -0.097 OA 
HETATM   24  C   UNL     1      -6.590   9.951  65.746  1.00  0.00    -0.094 C  
ENDBRANCH   6  23
BRANCH   8  25
HETATM   25  C   UNL     1     -10.420   9.695  67.858  1.00  0.00    -0.296 C  
HETATM   26  C   UNL     1     -11.409   4.571  68.620  1.00  0.00     4.487 C  
HETATM   27  C   UNL     1     -13.246   7.967  69.044  1.00  0.00     7.827 C  
HETATM   28  N   UNL     1     -12.159   5.751  68.145  1.00  0.00     3.373 NA 
HETATM   29  C   UNL     1      -9.945   4.775  69.176  1.00  0.00    -0.163 C  
HETATM   30  C   UNL     1     -12.293   8.923  69.741  1.00  0.00     1.329 A  
HETATM   31  C   UNL     1      -9.195   5.858  68.346  1.00  0.00    -0.118 C  
HETATM   32  C   UNL     1     -13.288   8.857  72.185  1.00  0.00    -0.489 A  
HETATM   33  O   UNL     1      -9.229   3.537  69.009  1.00  0.00    -0.135 OA 
HETATM   34  C   UNL     1      -9.505   8.378  67.678  1.00  0.00    -0.176 C  
HETATM   35  C   UNL     1     -11.299   6.608  67.349  1.00  0.00    -0.025 C  
HETATM   36  H   UNL     1      -8.348   3.659  69.344  1.00  0.00     0.000 HD 
HETATM   37  C   UNL     1     -11.191   9.653  69.246  1.00  0.00    -0.047 A  
HETATM   38  C   UNL     1     -13.095   9.353  73.483  1.00  0.00     2.961 A  
HETATM   39  N   UNL     1     -10.844  10.513  70.272  1.00  0.00    -0.446 NA 
HETATM   40  C   UNL     1     -12.419   9.253  71.146  1.00  0.00    -0.341 A  
HETATM   41  C   UNL     1     -10.121   7.075  68.191  1.00  0.00    -0.193 C  
HETATM   42  C   UNL     1     -11.437  10.181  71.453  1.00  0.00    -0.157 A  
HETATM   43  C   UNL     1     -12.935   6.449  69.191  1.00  0.00     6.358 C  
HETATM   44  C   UNL     1     -11.209  10.677  72.743  1.00  0.00     6.686 A  
HETATM   45  H   UNL     1     -10.214  11.307  70.157  1.00  0.00     0.000 HD 
HETATM   46  C   UNL     1     -12.054  10.233  73.760  1.00  0.00    10.767 A  
BRANCH  25  47
HETATM   47  C   UNL     1     -11.504   9.812  66.752  1.00  0.00     1.463 C  
HETATM   48  O   UNL     1     -11.993   8.856  66.146  1.00  0.00     5.130 OA 
BRANCH  47  49
HETATM   49  O   UNL     1     -11.866  11.117  66.524  1.00  0.00    -0.135 OA 
HETATM   50  C   UNL     1     -12.436  11.369  65.234  1.00  0.00     1.968 C  
ENDBRANCH  47  49
ENDBRANCH  25  47
BRANCH  29  51
HETATM   51  C   UNL     1      -9.959   5.098  70.695  1.00  0.00    -0.296 C  
HETATM   52  C   UNL     1      -9.581   3.926  71.600  1.00  0.00    -0.232 C  
ENDBRANCH  29  51
ENDBRANCH   8  25
BRANCH  18  53
HETATM   53  C   UNL     1      -8.837  14.562  71.744  1.00  0.00     5.938 C  
HETATM   54  C   UNL     1      -7.458  14.765  72.358  1.00  0.00     4.562 C  
ENDBRANCH  18  53
BRANCH  15  55
HETATM   55  O   UNL     1      -8.758  17.953  71.179  1.00  0.00     6.519 OA 
BRANCH  55  56
HETATM   56  C   UNL     1      -9.525  17.808  72.307  1.00  0.00    11.322 C  
HETATM   57  O   UNL     1      -9.194  17.229  73.333  1.00  0.00    12.597 OA 
HETATM   58  C   UNL     1     -10.790  18.623  72.189  1.00  0.00     3.495 C  
ENDBRANCH  55  56
ENDBRANCH  15  55
BRANCH  14  59
HETATM   59  C   UNL     1      -7.004  17.686  68.731  1.00  0.00    -0.245 C  
HETATM   60  O   UNL     1      -6.537  17.670  67.599  1.00  0.00    -0.168 OA 
BRANCH  59  61
HETATM   61  O   UNL     1      -6.860  18.743  69.591  1.00  0.00    -0.171 OA 
HETATM   62  C   UNL     1      -6.506  18.400  70.935  1.00  0.00     1.365 C  
ENDBRANCH  59  61
ENDBRANCH  14  59
TORSDOF 10
ENDMDL
MODEL       68
REMARK 921   NORMALIZED FREE ENERGY PREDICTED BY IDOCK:   75.76 KCAL/MOL
REMARK 922        TOTAL FREE ENERGY PREDICTED BY IDOCK:  118.90 KCAL/MOL
REMARK 923 INTER-LIGAND FREE ENERGY PREDICTED BY IDOCK:   92.52 KCAL/MOL
REMARK 924 INTRA-LIGAND FREE ENERGY PREDICTED BY IDOCK:   26.39 KCAL/MOL
REMARK 927      BINDING AFFINITY PREDICTED BY RF-SCORE:    0.00 PKD
ROOT
HETATM    1  C   UNL     1      -8.819   7.503  65.893  1.00  0.00    -0.126 C  
HETATM    2  N   UNL     1      -9.653   8.426  65.089  1.00  0.00     0.597 NA 
HETATM    3  C   UNL     1     -10.271   8.093  63.827  1.00  0.00     6.951 C  
HETATM    4  C   UNL     1      -9.308   9.709  65.445  1.00  0.00    -0.259 A  
HETATM    5  C   UNL     1      -9.551  10.883  64.763  1.00  0.00    -0.301 A  
HETATM    6  C   UNL     1      -9.207  12.115  65.334  1.00  0.00     0.172 A  
HETATM    7  N   UNL     1      -7.348   7.901  69.287  1.00  0.00    -0.081 NA 
HETATM    8  C   UNL     1      -8.756  12.176  66.672  1.00  0.00    -0.153 A  
HETATM    9  C   UNL     1      -8.481  10.951  67.324  1.00  0.00    -0.125 A  
HETATM   10  C   UNL     1      -7.178   6.917  70.322  1.00  0.00    -0.076 C  
HETATM   11  H   UNL     1     -11.413   5.422  66.323  1.00  0.00     0.000 HD 
HETATM   12  O   UNL     1     -10.971   6.232  66.096  1.00  0.00     0.207 OA 
HETATM   13  C   UNL     1      -8.666   9.754  66.667  1.00  0.00    -0.142 A  
HETATM   14  C   UNL     1      -9.547   6.169  66.267  1.00  0.00    -0.085 C  
HETATM   15  C   UNL     1      -9.237   5.822  67.728  1.00  0.00    -0.105 C  
HETATM   16  C   UNL     1      -8.222   8.376  67.098  1.00  0.00    -0.108 C  
HETATM   17  C   UNL     1      -8.607   8.072  68.570  1.00  0.00    -0.128 C  
HETATM   18  C   UNL     1      -9.675   6.949  68.738  1.00  0.00    -0.137 C  
HETATM   19  C   UNL     1      -9.607   6.393  70.166  1.00  0.00    -0.173 C  
HETATM   20  C   UNL     1      -6.667   8.335  67.081  1.00  0.00    -0.063 C  
HETATM   21  C   UNL     1      -8.468   6.388  70.870  1.00  0.00    -0.131 C  
HETATM   22  C   UNL     1      -6.193   8.266  68.519  1.00  0.00    -0.053 C  
ENDROOT
BRANCH   6  23
HETATM   23  O   UNL     1      -9.347  13.267  64.611  1.00  0.00     0.510 OA 
HETATM   24  C   UNL     1      -9.137  14.472  65.354  1.00  0.00     1.013 C  
ENDBRANCH   6  23
BRANCH   8  25
HETATM   25  C   UNL     1      -8.507  13.492  67.501  1.00  0.00    -0.192 C  
HETATM   26  C   UNL     1     -10.035  18.267  69.138  1.00  0.00    -0.180 C  
HETATM   27  C   UNL     1      -7.887  15.310  70.450  1.00  0.00     0.875 C  
HETATM   28  N   UNL     1      -8.815  17.441  69.227  1.00  0.00     0.094 NA 
HETATM   29  C   UNL     1     -11.336  17.636  68.501  1.00  0.00     0.767 C  
HETATM   30  C   UNL     1      -8.669  14.028  70.209  1.00  0.00     2.533 A  
HETATM   31  C   UNL     1     -10.961  16.717  67.301  1.00  0.00    -0.064 C  
HETATM   32  C   UNL     1      -9.559  13.574  72.652  1.00  0.00    13.881 A  
HETATM   33  O   UNL     1     -12.144  18.709  67.982  1.00  0.00     1.623 OA 
HETATM   34  C   UNL     1      -9.470  14.606  66.841  1.00  0.00    -0.259 C  
HETATM   35  C   UNL     1      -8.615  16.704  67.992  1.00  0.00    -0.193 C  
HETATM   36  H   UNL     1     -12.926  18.329  67.599  1.00  0.00     0.000 HD 
HETATM   37  C   UNL     1      -8.871  13.277  69.032  1.00  0.00     0.455 A  
HETATM   38  C   UNL     1     -10.353  12.695  73.405  1.00  0.00    19.267 A  
HETATM   39  N   UNL     1      -9.475  12.107  69.455  1.00  0.00     0.470 NA 
HETATM   40  C   UNL     1      -9.366  13.337  71.275  1.00  0.00    11.056 A  
HETATM   41  C   UNL     1      -9.810  15.797  67.738  1.00  0.00    -0.224 C  
HETATM   42  C   UNL     1      -9.929  12.191  70.738  1.00  0.00     6.223 A  
HETATM   43  C   UNL     1      -8.709  16.631  70.458  1.00  0.00     3.286 C  
HETATM   44  C   UNL     1     -10.741  11.308  71.462  1.00  0.00     4.707 A  
HETATM   45  H   UNL     1      -9.571  11.276  68.872  1.00  0.00     0.000 HD 
HETATM   46  C   UNL     1     -10.954  11.591  72.811  1.00  0.00    11.728 A  
BRANCH  25  47
HETATM   47  C   UNL     1      -7.011  13.909  67.456  1.00  0.00    -0.144 C  
HETATM   48  O   UNL     1      -6.507  14.616  66.580  1.00  0.00     0.823 OA 
BRANCH  47  49
HETATM   49  O   UNL     1      -6.304  13.400  68.516  1.00  0.00    -0.075 OA 
HETATM   50  C   UNL     1      -5.165  12.608  68.158  1.00  0.00    -0.073 C  
ENDBRANCH  47  49
ENDBRANCH  25  47
BRANCH  29  51
HETATM   51  C   UNL     1     -12.184  16.896  69.570  1.00  0.00     2.166 C  
HETATM   52  C   UNL     1     -13.597  16.526  69.120  1.00  0.00     5.289 C  
ENDBRANCH  29  51
ENDBRANCH   8  25
BRANCH  18  53
HETATM   53  C   UNL     1     -11.060   7.708  68.649  1.00  0.00     0.222 C  
HETATM   54  C   UNL     1     -11.280   9.164  69.037  1.00  0.00     0.181 C  
ENDBRANCH  18  53
BRANCH  15  55
HETATM   55  O   UNL     1      -9.780   4.553  68.169  1.00  0.00    -0.155 OA 
BRANCH  55  56
HETATM   56  C   UNL     1     -10.178   3.747  67.133  1.00  0.00     0.689 C  
HETATM   57  O   UNL     1     -10.701   4.119  66.091  1.00  0.00     0.193 OA 
HETATM   58  C   UNL     1      -9.718   2.328  67.367  1.00  0.00     0.317 C  
ENDBRANCH  55  56
ENDBRANCH  15  55
BRANCH  14  59
HETATM   59  C   UNL     1      -9.112   5.070  65.266  1.00  0.00    -0.139 C  
HETATM   60  O   UNL     1      -8.005   4.969  64.750  1.00  0.00    -0.091 OA 
BRANCH  59  61
HETATM   61  O   UNL     1     -10.184   4.294  64.912  1.00  0.00    -0.212 OA 
HETATM   62  C   UNL     1     -10.069   2.903  65.230  1.00  0.00     0.467 C  
ENDBRANCH  59  61
ENDBRANCH  14  59
TORSDOF 10
ENDMDL
MODEL       69
REMARK 921   NORMALIZED FREE ENERGY PREDICTED BY IDOCK:   77.82 KCAL/MOL
REMARK 922        TOTAL FREE ENERGY PREDICTED BY IDOCK:  122.16 KCAL/MOL
REMARK 923 INTER-LIGAND FREE ENERGY PREDICTED BY IDOCK:  101.29 KCAL/MOL
REMARK 924 INTRA-LIGAND FREE ENERGY PREDICTED BY IDOCK:   20.87 KCAL/MOL
REMARK 927      BINDING AFFINITY PREDICTED BY RF-SCORE:    0.00 PKD
ROOT
HETATM    1  C   UNL     1     -11.480  14.003  65.157  1.00  0.00    -0.328 C  
HETATM    2  N   UNL     1     -11.626  12.716  64.439  1.00  0.00    -0.336 NA 
HETATM    3  C   UNL     1     -12.264  12.556  63.153  1.00  0.00    -0.240 C  
HETATM    4  C   UNL     1     -11.555  11.711  65.375  1.00  0.00    -0.026 A  
HETATM    5  C   UNL     1     -11.959  10.398  65.256  1.00  0.00     3.862 A  
HETATM    6  C   UNL     1     -11.715   9.487  66.292  1.00  0.00     4.066 A  
HETATM    7  N   UNL     1      -9.649  14.835  68.287  1.00  0.00    -0.209 NA 
HETATM    8  C   UNL     1     -10.915   9.866  67.395  1.00  0.00    -0.214 A  
HETATM    9  C   UNL     1     -10.553  11.228  67.502  1.00  0.00    -0.257 A  
HETATM   10  C   UNL     1      -8.918  16.029  68.619  1.00  0.00    -0.210 C  
HETATM   11  H   UNL     1      -9.569  15.240  62.694  1.00  0.00     0.000 HD 
HETATM   12  O   UNL     1     -10.020  14.573  63.199  1.00  0.00     5.424 OA 
HETATM   13  C   UNL     1     -10.962  12.135  66.548  1.00  0.00    -0.325 A  
HETATM   14  C   UNL     1     -10.737  15.101  64.325  1.00  0.00     0.483 C  
HETATM   15  C   UNL     1      -9.753  15.842  65.238  1.00  0.00     0.102 C  
HETATM   16  C   UNL     1     -10.878  13.643  66.599  1.00  0.00    -0.283 C  
HETATM   17  C   UNL     1      -9.468  14.135  67.020  1.00  0.00    -0.251 C  
HETATM   18  C   UNL     1      -8.687  14.889  65.900  1.00  0.00     0.596 C  
HETATM   19  C   UNL     1      -7.583  15.742  66.538  1.00  0.00     0.077 C  
HETATM   20  C   UNL     1     -11.825  14.149  67.725  1.00  0.00    -0.414 C  
HETATM   21  C   UNL     1      -7.703  16.249  67.772  1.00  0.00    -0.157 C  
HETATM   22  C   UNL     1     -10.957  14.677  68.852  1.00  0.00    -0.253 C  
ENDROOT
BRANCH   6  23
HETATM   23  O   UNL     1     -12.214   8.217  66.220  1.00  0.00     6.609 OA 
HETATM   24  C   UNL     1     -12.124   7.465  67.433  1.00  0.00     3.865 C  
ENDBRANCH   6  23
BRANCH   8  25
HETATM   25  C   UNL     1     -10.407   8.906  68.537  1.00  0.00    -0.229 C  
HETATM   26  C   UNL     1     -10.639   4.336  71.159  1.00  0.00     0.433 C  
HETATM   27  C   UNL     1      -7.977   7.008  70.232  1.00  0.00    -0.117 C  
HETATM   28  N   UNL     1      -9.934   5.625  71.308  1.00  0.00    -0.188 NA 
HETATM   29  C   UNL     1     -11.503   4.087  69.861  1.00  0.00     6.869 C  
HETATM   30  C   UNL     1      -8.144   7.333  68.757  1.00  0.00    -0.124 A  
HETATM   31  C   UNL     1     -12.233   5.396  69.436  1.00  0.00     5.614 C  
HETATM   32  C   UNL     1      -6.121   5.960  67.759  1.00  0.00    -0.022 A  
HETATM   33  O   UNL     1     -12.518   3.116  70.181  1.00  0.00    15.699 OA 
HETATM   34  C   UNL     1     -11.613   7.864  68.792  1.00  0.00     1.175 C  
HETATM   35  C   UNL     1     -10.800   6.721  70.911  1.00  0.00    -0.249 C  
HETATM   36  H   UNL     1     -13.037   2.967  69.399  1.00  0.00     0.000 HD 
HETATM   37  C   UNL     1      -9.092   8.137  68.089  1.00  0.00    -0.134 A  
HETATM   38  C   UNL     1      -5.492   5.619  66.552  1.00  0.00    -0.013 A  
HETATM   39  N   UNL     1      -8.623   8.237  66.792  1.00  0.00    -0.124 NA 
HETATM   40  C   UNL     1      -7.244   6.815  67.746  1.00  0.00    -0.091 A  
HETATM   41  C   UNL     1     -11.214   6.546  69.457  1.00  0.00    -0.434 C  
HETATM   42  C   UNL     1      -7.638   7.335  66.523  1.00  0.00    -0.092 A  
HETATM   43  C   UNL     1      -8.580   5.658  70.716  1.00  0.00    -0.128 C  
HETATM   44  C   UNL     1      -7.040   6.996  65.303  1.00  0.00    -0.068 A  
HETATM   45  H   UNL     1      -8.977   8.911  66.112  1.00  0.00     0.000 HD 
HETATM   46  C   UNL     1      -5.961   6.113  65.340  1.00  0.00    -0.025 A  
BRANCH  25  47
HETATM   47  C   UNL     1     -10.041   9.703  69.818  1.00  0.00    -0.233 C  
HETATM   48  O   UNL     1     -10.837   9.998  70.712  1.00  0.00    -0.312 OA 
BRANCH  47  49
HETATM   49  O   UNL     1      -8.712  10.045  69.847  1.00  0.00    -0.197 OA 
HETATM   50  C   UNL     1      -8.232  10.704  68.670  1.00  0.00    -0.135 C  
ENDBRANCH  47  49
ENDBRANCH  25  47
BRANCH  29  51
HETATM   51  C   UNL     1     -10.641   3.492  68.715  1.00  0.00     2.455 C  
HETATM   52  C   UNL     1      -9.704   2.363  69.143  1.00  0.00     0.110 C  
ENDBRANCH  29  51
ENDBRANCH   8  25
BRANCH  18  53
HETATM   53  C   UNL     1      -7.931  13.746  65.111  1.00  0.00     6.702 C  
HETATM   54  C   UNL     1      -6.755  12.945  65.654  1.00  0.00     5.647 C  
ENDBRANCH  18  53
BRANCH  15  55
HETATM   55  O   UNL     1      -9.068  16.951  64.604  1.00  0.00     2.706 OA 
BRANCH  55  56
HETATM   56  C   UNL     1      -7.719  16.748  64.474  1.00  0.00     8.214 C  
HETATM   57  O   UNL     1      -7.090  15.788  64.901  1.00  0.00     6.975 OA 
HETATM   58  C   UNL     1      -7.117  17.790  63.563  1.00  0.00    10.928 C  
ENDBRANCH  55  56
ENDBRANCH  15  55
BRANCH  14  59
HETATM   59  C   UNL     1     -11.795  16.029  63.676  1.00  0.00     1.222 C  
HETATM   60  O   UNL     1     -11.953  16.204  62.474  1.00  0.00     4.586 OA 
BRANCH  59  61
HETATM   61  O   UNL     1     -12.450  16.752  64.637  1.00  0.00     1.407 OA 
HETATM   62  C   UNL     1     -11.616  17.544  65.489  1.00  0.00     1.884 C  
ENDBRANCH  59  61
ENDBRANCH  14  59
TORSDOF 10
ENDMDL
MODEL       70
REMARK 921   NORMALIZED FREE ENERGY PREDICTED BY IDOCK:   83.29 KCAL/MOL
REMARK 922        TOTAL FREE ENERGY PREDICTED BY IDOCK:  130.82 KCAL/MOL
REMARK 923 INTER-LIGAND FREE ENERGY PREDICTED BY IDOCK:   84.72 KCAL/MOL
REMARK 924 INTRA-LIGAND FREE ENERGY PREDICTED BY IDOCK:   46.10 KCAL/MOL
REMARK 927      BINDING AFFINITY PREDICTED BY RF-SCORE:    0.00 PKD
ROOT
HETATM    1  C   UNL     1     -10.407  14.512  68.679  1.00  0.00    -0.242 C  
HETATM    2  N   UNL     1     -10.342  13.952  67.309  1.00  0.00    -0.255 NA 
HETATM    3  C   UNL     1     -11.011  14.509  66.157  1.00  0.00    -0.322 C  
HETATM    4  C   UNL     1     -10.021  12.619  67.423  1.00  0.00    -0.204 A  
HETATM    5  C   UNL     1     -10.169  11.618  66.486  1.00  0.00    -0.249 A  
HETATM    6  C   UNL     1      -9.692  10.328  66.750  1.00  0.00    -0.185 A  
HETATM    7  N   UNL     1      -8.592  13.544  71.779  1.00  0.00    10.467 NA 
HETATM    8  C   UNL     1      -8.918  10.081  67.907  1.00  0.00    -0.131 A  
HETATM    9  C   UNL     1      -8.822  11.119  68.862  1.00  0.00    -0.086 A  
HETATM   10  C   UNL     1      -8.089  14.383  72.834  1.00  0.00     8.047 C  
HETATM   11  H   UNL     1      -8.922  17.343  67.666  1.00  0.00     0.000 HD 
HETATM   12  O   UNL     1      -9.204  16.437  67.613  1.00  0.00    -0.199 OA 
HETATM   13  C   UNL     1      -9.455  12.324  68.647  1.00  0.00    -0.030 A  
HETATM   14  C   UNL     1      -9.942  16.004  68.766  1.00  0.00    -0.224 C  
HETATM   15  C   UNL     1      -9.069  16.185  70.013  1.00  0.00     0.764 C  
HETATM   16  C   UNL     1      -9.663  13.455  69.628  1.00  0.00     1.353 C  
HETATM   17  C   UNL     1      -8.353  13.833  70.369  1.00  0.00     3.258 C  
HETATM   18  C   UNL     1      -7.801  15.250  70.021  1.00  0.00     0.221 C  
HETATM   19  C   UNL     1      -6.849  15.710  71.132  1.00  0.00     1.752 C  
HETATM   20  C   UNL     1     -10.622  12.962  70.749  1.00  0.00     3.857 C  
HETATM   21  C   UNL     1      -6.992  15.306  72.400  1.00  0.00     3.650 C  
HETATM   22  C   UNL     1      -9.809  12.826  72.022  1.00  0.00    16.074 C  
ENDROOT
BRANCH   6  23
HETATM   23  O   UNL     1      -9.938   9.313  65.868  1.00  0.00    -0.307 OA 
HETATM   24  C   UNL     1      -9.556   9.584  64.516  1.00  0.00     0.109 C  
ENDBRANCH   6  23
BRANCH   8  25
HETATM   25  C   UNL     1      -8.167   8.737  68.243  1.00  0.00    -0.118 C  
HETATM   26  C   UNL     1      -7.876   4.133  70.799  1.00  0.00    -0.052 C  
HETATM   27  C   UNL     1      -6.672   5.656  67.434  1.00  0.00    -0.059 C  
HETATM   28  N   UNL     1      -6.987   4.944  69.943  1.00  0.00    -0.051 NA 
HETATM   29  C   UNL     1      -9.372   4.598  70.998  1.00  0.00    -0.147 C  
HETATM   30  C   UNL     1      -7.848   6.391  66.814  1.00  0.00    -0.104 A  
HETATM   31  C   UNL     1      -9.449   6.150  71.093  1.00  0.00    -0.182 C  
HETATM   32  C   UNL     1      -8.564   4.635  64.978  1.00  0.00    -0.138 A  
HETATM   33  O   UNL     1      -9.840   4.068  72.252  1.00  0.00    -0.145 OA 
HETATM   34  C   UNL     1      -8.784   8.238  69.648  1.00  0.00    -0.138 C  
HETATM   35  C   UNL     1      -7.173   6.358  70.222  1.00  0.00    -0.080 C  
HETATM   36  H   UNL     1     -10.740   4.348  72.371  1.00  0.00     0.000 HD 
HETATM   37  C   UNL     1      -8.411   7.651  67.110  1.00  0.00    -0.121 A  
HETATM   38  C   UNL     1      -9.512   4.396  63.971  1.00  0.00    -0.085 A  
HETATM   39  N   UNL     1      -9.311   7.888  66.088  1.00  0.00    -0.347 NA 
HETATM   40  C   UNL     1      -8.610   5.839  65.712  1.00  0.00    -0.149 A  
HETATM   41  C   UNL     1      -8.618   6.748  69.947  1.00  0.00    -0.141 C  
HETATM   42  C   UNL     1      -9.570   6.771  65.352  1.00  0.00     0.915 A  
HETATM   43  C   UNL     1      -7.015   4.585  68.511  1.00  0.00    -0.052 C  
HETATM   44  C   UNL     1     -10.539   6.551  64.365  1.00  0.00     6.648 A  
HETATM   45  H   UNL     1      -9.734   8.799  65.905  1.00  0.00     0.000 HD 
HETATM   46  C   UNL     1     -10.500   5.333  63.687  1.00  0.00     2.095 A  
BRANCH  25  47
HETATM   47  C   UNL     1      -6.631   8.958  68.322  1.00  0.00    -0.060 C  
HETATM   48  O   UNL     1      -6.065  10.032  68.107  1.00  0.00    -0.049 OA 
BRANCH  47  49
HETATM   49  O   UNL     1      -5.965   7.809  68.667  1.00  0.00    -0.033 OA 
HETATM   50  C   UNL     1      -6.436   6.621  68.019  1.00  0.00    -0.056 C  
ENDBRANCH  47  49
ENDBRANCH  25  47
BRANCH  29  51
HETATM   51  C   UNL     1     -10.292   4.027  69.885  1.00  0.00     0.707 C  
HETATM   52  C   UNL     1     -11.101   2.798  70.294  1.00  0.00     5.135 C  
ENDBRANCH  29  51
ENDBRANCH   8  25
BRANCH  18  53
HETATM   53  C   UNL     1      -6.885  15.013  68.754  1.00  0.00    -0.105 C  
HETATM   54  C   UNL     1      -5.929  16.043  68.166  1.00  0.00    -0.124 C  
ENDBRANCH  18  53
BRANCH  15  55
HETATM   55  O   UNL     1      -8.652  17.551  70.257  1.00  0.00     2.297 OA 
BRANCH  55  56
HETATM   56  C   UNL     1      -7.888  17.688  71.387  1.00  0.00     8.409 C  
HETATM   57  O   UNL     1      -7.452  16.776  72.077  1.00  0.00     7.970 OA 
HETATM   58  C   UNL     1      -7.495  19.132  71.583  1.00  0.00     4.013 C  
ENDBRANCH  55  56
ENDBRANCH  15  55
BRANCH  14  59
HETATM   59  C   UNL     1     -11.196  16.913  68.753  1.00  0.00    -0.058 C  
HETATM   60  O   UNL     1     -12.256  16.665  68.190  1.00  0.00     0.697 OA 
BRANCH  59  61
HETATM   61  O   UNL     1     -10.918  18.119  69.341  1.00  0.00     0.756 OA 
HETATM   62  C   UNL     1      -9.540  18.351  69.652  1.00  0.00     0.554 C  
ENDBRANCH  59  61
ENDBRANCH  14  59
TORSDOF 10
ENDMDL
MODEL       71
REMARK 921   NORMALIZED FREE ENERGY PREDICTED BY IDOCK:   84.95 KCAL/MOL
REMARK 922        TOTAL FREE ENERGY PREDICTED BY IDOCK:  133.46 KCAL/MOL
REMARK 923 INTER-LIGAND FREE ENERGY PREDICTED BY IDOCK:  128.34 KCAL/MOL
REMARK 924 INTRA-LIGAND FREE ENERGY PREDICTED BY IDOCK:    5.12 KCAL/MOL
REMARK 927      BINDING AFFINITY PREDICTED BY RF-SCORE:    0.00 PKD
ROOT
HETATM    1  C   UNL     1     -10.393  18.096  67.959  1.00  0.00    -0.391 C  
HETATM    2  N   UNL     1     -11.762  17.814  68.450  1.00  0.00     1.362 NA 
HETATM    3  C   UNL     1     -12.703  18.816  68.894  1.00  0.00    10.753 C  
HETATM    4  C   UNL     1     -11.780  16.513  68.898  1.00  0.00     0.079 A  
HETATM    5  C   UNL     1     -12.696  15.904  69.729  1.00  0.00     0.375 A  
HETATM    6  C   UNL     1     -12.602  14.532  69.998  1.00  0.00    -0.232 A  
HETATM    7  N   UNL     1      -7.844  15.837  66.464  1.00  0.00    -0.166 NA 
HETATM    8  C   UNL     1     -11.669  13.734  69.299  1.00  0.00    -0.376 A  
HETATM    9  C   UNL     1     -10.722  14.399  68.486  1.00  0.00    -0.258 A  
HETATM   10  C   UNL     1      -6.902  16.105  65.409  1.00  0.00     5.051 C  
HETATM   11  H   UNL     1     -11.610  19.846  65.370  1.00  0.00     0.000 HD 
HETATM   12  O   UNL     1     -11.632  19.245  66.106  1.00  0.00     0.775 OA 
HETATM   13  C   UNL     1     -10.734  15.773  68.382  1.00  0.00    -0.281 A  
HETATM   14  C   UNL     1     -10.358  19.085  66.747  1.00  0.00    -0.412 C  
HETATM   15  C   UNL     1      -9.342  18.579  65.716  1.00  0.00     0.417 C  
HETATM   16  C   UNL     1      -9.687  16.670  67.763  1.00  0.00    -0.240 C  
HETATM   17  C   UNL     1      -9.258  16.179  66.355  1.00  0.00    -0.300 C  
HETATM   18  C   UNL     1      -9.667  17.130  65.188  1.00  0.00     1.256 C  
HETATM   19  C   UNL     1      -8.792  16.837  63.963  1.00  0.00    10.771 C  
HETATM   20  C   UNL     1      -8.394  16.580  68.623  1.00  0.00    -0.235 C  
HETATM   21  C   UNL     1      -7.542  16.371  64.081  1.00  0.00    13.297 C  
HETATM   22  C   UNL     1      -7.352  15.836  67.810  1.00  0.00    -0.148 C  
ENDROOT
BRANCH   6  23
HETATM   23  O   UNL     1     -13.443  13.954  70.909  1.00  0.00    -0.162 OA 
HETATM   24  C   UNL     1     -13.567  14.662  72.146  1.00  0.00    -0.414 C  
ENDBRANCH   6  23
BRANCH   8  25
HETATM   25  C   UNL     1     -11.572  12.163  69.361  1.00  0.00    -0.381 C  
HETATM   26  C   UNL     1      -9.667   7.587  67.557  1.00  0.00    -0.150 C  
HETATM   27  C   UNL     1     -10.875   9.090  70.928  1.00  0.00    -0.323 C  
HETATM   28  N   UNL     1     -10.682   8.015  68.540  1.00  0.00    -0.087 NA 
HETATM   29  C   UNL     1      -8.766   8.686  66.867  1.00  0.00    -0.124 C  
HETATM   30  C   UNL     1     -10.233  10.460  71.080  1.00  0.00     1.235 A  
HETATM   31  C   UNL     1      -9.602   9.967  66.575  1.00  0.00    -0.237 C  
HETATM   32  C   UNL     1      -8.323   9.878  72.806  1.00  0.00     4.863 A  
HETATM   33  O   UNL     1      -8.322   8.167  65.599  1.00  0.00    -0.127 OA 
HETATM   34  C   UNL     1     -11.054  11.705  67.902  1.00  0.00    -0.306 C  
HETATM   35  C   UNL     1     -11.386   9.190  68.058  1.00  0.00     0.639 C  
HETATM   36  H   UNL     1      -7.780   8.828  65.185  1.00  0.00     0.000 HD 
HETATM   37  C   UNL     1     -10.550  11.699  70.485  1.00  0.00     2.184 A  
HETATM   38  C   UNL     1      -7.241  10.436  73.503  1.00  0.00     5.122 A  
HETATM   39  N   UNL     1      -9.773  12.626  71.156  1.00  0.00     8.396 NA 
HETATM   40  C   UNL     1      -9.104  10.691  71.958  1.00  0.00     8.813 A  
HETATM   41  C   UNL     1     -10.396  10.326  67.840  1.00  0.00    -0.234 C  
HETATM   42  C   UNL     1      -8.796  12.041  71.905  1.00  0.00    18.467 A  
HETATM   43  C   UNL     1     -10.191   8.112  69.930  1.00  0.00    -0.204 C  
HETATM   44  C   UNL     1      -7.711  12.620  72.574  1.00  0.00    14.225 A  
HETATM   45  H   UNL     1      -9.916  13.634  71.098  1.00  0.00     0.000 HD 
HETATM   46  C   UNL     1      -6.926  11.784  73.369  1.00  0.00     9.188 A  
BRANCH  25  47
HETATM   47  C   UNL     1     -12.944  11.530  69.720  1.00  0.00     0.643 C  
HETATM   48  O   UNL     1     -13.263  11.138  70.845  1.00  0.00    -0.149 OA 
BRANCH  47  49
HETATM   49  O   UNL     1     -13.777  11.459  68.631  1.00  0.00     4.513 OA 
HETATM   50  C   UNL     1     -13.227  11.980  67.415  1.00  0.00     5.809 C  
ENDBRANCH  47  49
ENDBRANCH  25  47
BRANCH  29  51
HETATM   51  C   UNL     1      -7.499   8.987  67.711  1.00  0.00    -0.085 C  
HETATM   52  C   UNL     1      -6.232   9.239  66.894  1.00  0.00    -0.065 C  
ENDBRANCH  29  51
ENDBRANCH   8  25
BRANCH  18  53
HETATM   53  C   UNL     1     -11.122  16.655  64.788  1.00  0.00    -0.120 C  
HETATM   54  C   UNL     1     -11.443  15.360  64.054  1.00  0.00     0.162 C  
ENDBRANCH  18  53
BRANCH  15  55
HETATM   55  O   UNL     1      -9.148  19.462  64.584  1.00  0.00     2.531 OA 
BRANCH  55  56
HETATM   56  C   UNL     1      -7.876  19.970  64.508  1.00  0.00     1.895 C  
HETATM   57  O   UNL     1      -7.386  20.543  63.545  1.00  0.00     0.593 OA 
HETATM   58  C   UNL     1      -7.198  19.888  65.854  1.00  0.00    -0.324 C  
ENDBRANCH  55  56
ENDBRANCH  15  55
BRANCH  14  59
HETATM   59  C   UNL     1     -10.041  20.506  67.278  1.00  0.00    -0.299 C  
HETATM   60  O   UNL     1      -9.018  21.142  67.056  1.00  0.00    -0.008 OA 
BRANCH  59  61
HETATM   61  O   UNL     1     -11.006  20.911  68.162  1.00  0.00     0.833 OA 
HETATM   62  C   UNL     1     -10.751  20.606  69.536  1.00  0.00     0.933 C  
ENDBRANCH  59  61
ENDBRANCH  14  59
TORSDOF 10
ENDMDL
MODEL       72
REMARK 921   NORMALIZED FREE ENERGY PREDICTED BY IDOCK:  106.74 KCAL/MOL
REMARK 922        TOTAL FREE ENERGY PREDICTED BY IDOCK:  167.99 KCAL/MOL
REMARK 923 INTER-LIGAND FREE ENERGY PREDICTED BY IDOCK:  160.22 KCAL/MOL
REMARK 924 INTRA-LIGAND FREE ENERGY PREDICTED BY IDOCK:    7.77 KCAL/MOL
REMARK 927      BINDING AFFINITY PREDICTED BY RF-SCORE:    0.00 PKD
ROOT
HETATM    1  C   UNL     1     -10.501  14.631  68.956  1.00  0.00    -0.246 C  
HETATM    2  N   UNL     1      -9.227  14.881  68.243  1.00  0.00    -0.182 NA 
HETATM    3  C   UNL     1      -8.680  16.187  67.962  1.00  0.00    -0.176 C  
HETATM    4  C   UNL     1      -8.961  13.771  67.474  1.00  0.00    -0.201 A  
HETATM    5  C   UNL     1      -8.097  13.655  66.405  1.00  0.00     0.988 A  
HETATM    6  C   UNL     1      -7.883  12.409  65.802  1.00  0.00     1.770 A  
HETATM    7  N   UNL     1     -12.044  11.451  70.116  1.00  0.00    -0.344 NA 
HETATM    8  C   UNL     1      -8.427  11.239  66.380  1.00  0.00    -0.169 A  
HETATM    9  C   UNL     1      -9.338  11.401  67.449  1.00  0.00    -0.171 A  
HETATM   10  C   UNL     1     -12.802  11.195  71.312  1.00  0.00    -0.412 C  
HETATM   11  H   UNL     1      -9.301  16.066  71.740  1.00  0.00     0.000 HD 
HETATM   12  O   UNL     1      -9.268  15.671  70.877  1.00  0.00     1.442 OA 
HETATM   13  C   UNL     1      -9.661  12.661  67.904  1.00  0.00    -0.211 A  
HETATM   14  C   UNL     1     -10.556  15.281  70.379  1.00  0.00    -0.197 C  
HETATM   15  C   UNL     1     -11.189  14.287  71.360  1.00  0.00     0.935 C  
HETATM   16  C   UNL     1     -10.764  13.052  68.861  1.00  0.00    -0.201 C  
HETATM   17  C   UNL     1     -10.773  12.167  70.134  1.00  0.00     1.313 C  
HETATM   18  C   UNL     1     -10.405  12.923  71.448  1.00  0.00     8.146 C  
HETATM   19  C   UNL     1     -10.923  12.127  72.653  1.00  0.00    11.611 C  
HETATM   20  C   UNL     1     -12.131  12.770  68.174  1.00  0.00    -0.158 C  
HETATM   21  C   UNL     1     -12.009  11.348  72.574  1.00  0.00     3.754 C  
HETATM   22  C   UNL     1     -12.769  11.594  68.887  1.00  0.00     1.122 C  
ENDROOT
BRANCH   6  23
HETATM   23  O   UNL     1      -7.114  12.316  64.676  1.00  0.00     4.090 OA 
HETATM   24  C   UNL     1      -7.799  12.606  63.454  1.00  0.00     6.618 C  
ENDBRANCH   6  23
BRANCH   8  25
HETATM   25  C   UNL     1      -8.125   9.761  65.924  1.00  0.00    -0.114 C  
HETATM   26  C   UNL     1      -8.188   4.561  66.805  1.00  0.00    -0.102 C  
HETATM   27  C   UNL     1      -8.412   6.986  63.779  1.00  0.00     0.343 C  
HETATM   28  N   UNL     1      -7.638   5.470  65.780  1.00  0.00    -0.081 NA 
HETATM   29  C   UNL     1      -9.112   5.162  67.937  1.00  0.00    -0.112 C  
HETATM   30  C   UNL     1      -9.403   8.081  64.137  1.00  0.00     1.829 A  
HETATM   31  C   UNL     1      -8.590   6.562  68.376  1.00  0.00    -0.119 C  
HETATM   32  C   UNL     1     -11.502   7.261  62.762  1.00  0.00    15.775 A  
HETATM   33  O   UNL     1      -9.030   4.296  69.084  1.00  0.00    -0.092 OA 
HETATM   34  C   UNL     1      -8.075   8.892  67.284  1.00  0.00    -0.104 C  
HETATM   35  C   UNL     1      -7.158   6.694  66.397  1.00  0.00    -0.067 C  
HETATM   36  H   UNL     1      -9.586   4.657  69.765  1.00  0.00     0.000 HD 
HETATM   37  C   UNL     1      -9.265   9.220  64.959  1.00  0.00    -0.178 A  
HETATM   38  C   UNL     1     -12.843   7.567  62.484  1.00  0.00    16.053 A  
HETATM   39  N   UNL     1     -10.412   9.960  64.739  1.00  0.00    -0.036 NA 
HETATM   40  C   UNL     1     -10.753   8.103  63.611  1.00  0.00    11.484 A  
HETATM   41  C   UNL     1      -8.306   7.391  67.113  1.00  0.00    -0.118 C  
HETATM   42  C   UNL     1     -11.373   9.248  64.086  1.00  0.00     9.375 A  
HETATM   43  C   UNL     1      -8.508   5.669  64.602  1.00  0.00    -0.085 C  
HETATM   44  C   UNL     1     -12.715   9.566  63.840  1.00  0.00    14.192 A  
HETATM   45  H   UNL     1     -10.526  10.930  65.032  1.00  0.00     0.000 HD 
HETATM   46  C   UNL     1     -13.446   8.692  63.036  1.00  0.00    18.063 A  
BRANCH  25  47
HETATM   47  C   UNL     1      -6.794   9.681  65.127  1.00  0.00    -0.098 C  
HETATM   48  O   UNL     1      -5.686   9.974  65.581  1.00  0.00    -0.056 OA 
BRANCH  47  49
HETATM   49  O   UNL     1      -6.991   9.236  63.844  1.00  0.00    -0.089 OA 
HETATM   50  C   UNL     1      -6.146   9.841  62.858  1.00  0.00    -0.107 C  
ENDBRANCH  47  49
ENDBRANCH  25  47
BRANCH  29  51
HETATM   51  C   UNL     1     -10.598   5.198  67.491  1.00  0.00    -0.085 C  
HETATM   52  C   UNL     1     -10.813   5.130  65.980  1.00  0.00    -0.127 C  
ENDBRANCH  29  51
ENDBRANCH   8  25
BRANCH  18  53
HETATM   53  C   UNL     1      -8.828  12.827  71.527  1.00  0.00    16.780 C  
HETATM   54  C   UNL     1      -7.865  13.569  70.611  1.00  0.00     3.777 C  
ENDBRANCH  18  53
BRANCH  15  55
HETATM   55  O   UNL     1     -11.383  14.809  72.698  1.00  0.00    -0.025 OA 
BRANCH  55  56
HETATM   56  C   UNL     1     -10.431  15.726  73.062  1.00  0.00     3.817 C  
HETATM   57  O   UNL     1      -9.226  15.630  72.869  1.00  0.00     7.510 OA 
HETATM   58  C   UNL     1     -11.086  16.981  73.586  1.00  0.00     2.358 C  
ENDBRANCH  55  56
ENDBRANCH  15  55
BRANCH  14  59
HETATM   59  C   UNL     1     -11.325  16.623  70.279  1.00  0.00     0.115 C  
HETATM   60  O   UNL     1     -12.512  16.789  70.530  1.00  0.00     1.239 OA 
BRANCH  59  61
HETATM   61  O   UNL     1     -10.527  17.590  69.727  1.00  0.00    -0.026 OA 
HETATM   62  C   UNL     1     -10.945  18.079  68.449  1.00  0.00     0.210 C  
ENDBRANCH  59  61
ENDBRANCH  14  59
TORSDOF 10
ENDMDL
MODEL       73
REMARK 921   NORMALIZED FREE ENERGY PREDICTED BY IDOCK:  107.74 KCAL/MOL
REMARK 922        TOTAL FREE ENERGY PREDICTED BY IDOCK:  169.58 KCAL/MOL
REMARK 923 INTER-LIGAND FREE ENERGY PREDICTED BY IDOCK:  127.24 KCAL/MOL
REMARK 924 INTRA-LIGAND FREE ENERGY PREDICTED BY IDOCK:   42.33 KCAL/MOL
REMARK 927      BINDING AFFINITY PREDICTED BY RF-SCORE:    0.00 PKD
ROOT
HETATM    1  C   UNL     1     -11.902  16.453  69.692  1.00  0.00     0.194 C  
HETATM    2  N   UNL     1     -11.941  15.466  68.587  1.00  0.00    -0.283 NA 
HETATM    3  C   UNL     1     -12.938  15.435  67.543  1.00  0.00     2.801 C  
HETATM    4  C   UNL     1     -11.253  14.351  69.006  1.00  0.00    -0.264 A  
HETATM    5  C   UNL     1     -11.292  13.074  68.488  1.00  0.00    -0.323 A  
HETATM    6  C   UNL     1     -10.440  12.082  68.989  1.00  0.00    -0.053 A  
HETATM    7  N   UNL     1      -9.351  17.025  72.338  1.00  0.00    10.980 NA 
HETATM    8  C   UNL     1      -9.428  12.419  69.917  1.00  0.00     2.693 A  
HETATM    9  C   UNL     1      -9.444  13.726  70.454  1.00  0.00     3.432 A  
HETATM   10  C   UNL     1      -8.910  18.266  72.919  1.00  0.00    13.042 C  
HETATM   11  H   UNL     1     -11.461  18.969  67.519  1.00  0.00     0.000 HD 
HETATM   12  O   UNL     1     -11.490  18.068  67.818  1.00  0.00     0.309 OA 
HETATM   13  C   UNL     1     -10.411  14.628  70.065  1.00  0.00     0.188 A  
HETATM   14  C   UNL     1     -11.855  17.938  69.200  1.00  0.00     3.806 C  
HETATM   15  C   UNL     1     -10.850  18.718  70.055  1.00  0.00     2.261 C  
HETATM   16  C   UNL     1     -10.735  15.970  70.680  1.00  0.00    -0.058 C  
HETATM   17  C   UNL     1      -9.465  16.835  70.896  1.00  0.00     3.948 C  
HETATM   18  C   UNL     1      -9.395  18.113  70.006  1.00  0.00     1.633 C  
HETATM   19  C   UNL     1      -8.417  19.115  70.631  1.00  0.00     2.793 C  
HETATM   20  C   UNL     1     -11.298  15.731  72.110  1.00  0.00    -0.311 C  
HETATM   21  C   UNL     1      -8.207  19.169  71.953  1.00  0.00     6.315 C  
HETATM   22  C   UNL     1     -10.258  16.219  73.100  1.00  0.00     6.861 C  
ENDROOT
BRANCH   6  23
HETATM   23  O   UNL     1     -10.558  10.792  68.551  1.00  0.00    -0.173 OA 
HETATM   24  C   UNL     1      -9.631  10.417  67.528  1.00  0.00    -0.156 C  
ENDBRANCH   6  23
BRANCH   8  25
HETATM   25  C   UNL     1      -8.289  11.457  70.427  1.00  0.00     3.355 C  
HETATM   26  C   UNL     1      -6.729   7.007  72.790  1.00  0.00    -0.068 C  
HETATM   27  C   UNL     1      -5.448   9.419  70.029  1.00  0.00    -0.031 C  
HETATM   28  N   UNL     1      -6.087   8.237  72.285  1.00  0.00    -0.054 NA 
HETATM   29  C   UNL     1      -8.271   6.789  72.523  1.00  0.00    -0.104 C  
HETATM   30  C   UNL     1      -6.610   9.710  69.094  1.00  0.00    -0.049 A  
HETATM   31  C   UNL     1      -9.037   8.140  72.641  1.00  0.00    -0.317 C  
HETATM   32  C   UNL     1      -5.967   8.144  67.068  1.00  0.00    -0.053 A  
HETATM   33  O   UNL     1      -8.781   5.916  73.547  1.00  0.00    -0.123 OA 
HETATM   34  C   UNL     1      -8.982  10.526  71.550  1.00  0.00     5.322 C  
HETATM   35  C   UNL     1      -6.936   9.388  72.538  1.00  0.00     0.851 C  
HETATM   36  H   UNL     1      -9.709   5.785  73.387  1.00  0.00     0.000 HD 
HETATM   37  C   UNL     1      -7.721  10.568  69.240  1.00  0.00    -0.144 A  
HETATM   38  C   UNL     1      -6.405   7.714  65.807  1.00  0.00    -0.042 A  
HETATM   39  N   UNL     1      -8.322  10.588  67.994  1.00  0.00    -0.115 NA 
HETATM   40  C   UNL     1      -6.728   9.087  67.790  1.00  0.00    -0.065 A  
HETATM   41  C   UNL     1      -8.273   9.202  71.835  1.00  0.00     0.336 C  
HETATM   42  C   UNL     1      -7.860   9.599  67.178  1.00  0.00    -0.091 A  
HETATM   43  C   UNL     1      -5.568   8.139  70.906  1.00  0.00    -0.029 C  
HETATM   44  C   UNL     1      -8.331   9.174  65.929  1.00  0.00    -0.127 A  
HETATM   45  H   UNL     1      -9.032  11.267  67.718  1.00  0.00     0.000 HD 
HETATM   46  C   UNL     1      -7.585   8.206  65.257  1.00  0.00    -0.095 A  
BRANCH  25  47
HETATM   47  C   UNL     1      -7.087  12.261  70.993  1.00  0.00     4.121 C  
HETATM   48  O   UNL     1      -7.183  13.322  71.615  1.00  0.00     3.601 OA 
BRANCH  47  49
HETATM   49  O   UNL     1      -5.888  11.649  70.724  1.00  0.00    -0.301 OA 
HETATM   50  C   UNL     1      -5.991  10.296  70.266  1.00  0.00    -0.088 C  
ENDBRANCH  47  49
ENDBRANCH  25  47
BRANCH  29  51
HETATM   51  C   UNL     1      -8.512   6.089  71.158  1.00  0.00    -0.125 C  
HETATM   52  C   UNL     1      -8.229   4.587  71.152  1.00  0.00    -0.087 C  
ENDBRANCH  29  51
ENDBRANCH   8  25
BRANCH  18  53
HETATM   53  C   UNL     1      -8.700  17.624  68.672  1.00  0.00    -0.266 C  
HETATM   54  C   UNL     1      -9.418  16.932  67.521  1.00  0.00    -0.241 C  
ENDBRANCH  18  53
BRANCH  15  55
HETATM   55  O   UNL     1     -10.784  20.134  69.758  1.00  0.00     0.275 OA 
BRANCH  55  56
HETATM   56  C   UNL     1      -9.592  20.513  69.196  1.00  0.00     0.676 C  
HETATM   57  O   UNL     1      -8.561  20.776  69.801  1.00  0.00     1.622 OA 
HETATM   58  C   UNL     1      -9.659  20.391  67.693  1.00  0.00    -0.517 C  
ENDBRANCH  55  56
ENDBRANCH  15  55
BRANCH  14  59
HETATM   59  C   UNL     1     -13.290  18.520  69.249  1.00  0.00    18.315 C  
HETATM   60  O   UNL     1     -14.277  18.040  68.705  1.00  0.00     9.399 OA 
BRANCH  59  61
HETATM   61  O   UNL     1     -13.289  19.740  69.872  1.00  0.00    15.387 OA 
HETATM   62  C   UNL     1     -13.384  20.875  69.006  1.00  0.00     7.482 C  
ENDBRANCH  59  61
ENDBRANCH  14  59
TORSDOF 10
ENDMDL
MODEL       74
REMARK 921   NORMALIZED FREE ENERGY PREDICTED BY IDOCK:  115.95 KCAL/MOL
REMARK 922        TOTAL FREE ENERGY PREDICTED BY IDOCK:  182.58 KCAL/MOL
REMARK 923 INTER-LIGAND FREE ENERGY PREDICTED BY IDOCK:  172.01 KCAL/MOL
REMARK 924 INTRA-LIGAND FREE ENERGY PREDICTED BY IDOCK:   10.57 KCAL/MOL
REMARK 927      BINDING AFFINITY PREDICTED BY RF-SCORE:    0.00 PKD
ROOT
HETATM    1  C   UNL     1     -11.492  13.999  65.142  1.00  0.00    -0.328 C  
HETATM    2  N   UNL     1     -11.776  12.760  64.382  1.00  0.00    -0.345 NA 
HETATM    3  C   UNL     1     -12.407  12.714  63.083  1.00  0.00    -0.187 C  
HETATM    4  C   UNL     1     -11.839  11.726  65.287  1.00  0.00     0.024 A  
HETATM    5  C   UNL     1     -12.392  10.474  65.123  1.00  0.00     5.112 A  
HETATM    6  C   UNL     1     -12.273   9.511  66.133  1.00  0.00     8.389 A  
HETATM    7  N   UNL     1      -9.630  14.518  68.320  1.00  0.00    -0.206 NA 
HETATM    8  C   UNL     1     -11.453   9.761  67.258  1.00  0.00     0.940 A  
HETATM    9  C   UNL     1     -10.936  11.068  67.411  1.00  0.00    -0.349 A  
HETATM   10  C   UNL     1      -8.770  15.608  68.699  1.00  0.00    -0.193 C  
HETATM   11  H   UNL     1      -9.410  15.075  62.743  1.00  0.00     0.000 HD 
HETATM   12  O   UNL     1      -9.944  14.451  63.221  1.00  0.00     4.275 OA 
HETATM   13  C   UNL     1     -11.220  12.044  66.481  1.00  0.00    -0.387 A  
HETATM   14  C   UNL     1     -10.613  15.026  64.354  1.00  0.00     0.297 C  
HETATM   15  C   UNL     1      -9.564  15.620  65.302  1.00  0.00     0.075 C  
HETATM   16  C   UNL     1     -10.961  13.529  66.579  1.00  0.00    -0.295 C  
HETATM   17  C   UNL     1      -9.510  13.839  67.034  1.00  0.00    -0.255 C  
HETATM   18  C   UNL     1      -8.628  14.530  65.949  1.00  0.00     1.048 C  
HETATM   19  C   UNL     1      -7.443  15.228  66.626  1.00  0.00     0.437 C  
HETATM   20  C   UNL     1     -11.861  14.109  67.708  1.00  0.00    -0.414 C  
HETATM   21  C   UNL     1      -7.523  15.709  67.874  1.00  0.00    -0.147 C  
HETATM   22  C   UNL     1     -10.957  14.498  68.862  1.00  0.00    -0.256 C  
ENDROOT
BRANCH   6  23
HETATM   23  O   UNL     1     -12.916   8.310  66.014  1.00  0.00    12.864 OA 
HETATM   24  C   UNL     1     -13.056   7.833  64.673  1.00  0.00    22.895 C  
ENDBRANCH   6  23
BRANCH   8  25
HETATM   25  C   UNL     1     -11.080   8.715  68.375  1.00  0.00     0.283 C  
HETATM   26  C   UNL     1      -7.811   5.108  70.406  1.00  0.00    -0.075 C  
HETATM   27  C   UNL     1     -10.391   7.718  71.679  1.00  0.00    -0.236 C  
HETATM   28  N   UNL     1      -9.169   5.611  70.695  1.00  0.00    -0.149 NA 
HETATM   29  C   UNL     1      -6.958   5.822  69.284  1.00  0.00    -0.064 C  
HETATM   30  C   UNL     1     -10.123   9.025  70.951  1.00  0.00    -0.329 A  
HETATM   31  C   UNL     1      -7.872   6.246  68.096  1.00  0.00    -0.104 C  
HETATM   32  C   UNL     1      -8.863  10.353  72.853  1.00  0.00    10.146 A  
HETATM   33  O   UNL     1      -6.007   4.870  68.774  1.00  0.00    -0.023 OA 
HETATM   34  C   UNL     1     -10.005   7.721  67.694  1.00  0.00    -0.230 C  
HETATM   35  C   UNL     1      -9.874   5.897  69.458  1.00  0.00    -0.169 C  
HETATM   36  H   UNL     1      -5.494   5.300  68.100  1.00  0.00     0.000 HD 
HETATM   37  C   UNL     1     -10.447   9.436  69.641  1.00  0.00    -0.223 A  
HETATM   38  C   UNL     1      -8.225  11.572  73.128  1.00  0.00    20.092 A  
HETATM   39  N   UNL     1     -10.151  10.786  69.607  1.00  0.00    -0.442 NA 
HETATM   40  C   UNL     1      -9.441  10.136  71.584  1.00  0.00     3.276 A  
HETATM   41  C   UNL     1      -9.112   6.951  68.667  1.00  0.00    -0.131 C  
HETATM   42  C   UNL     1      -9.403  11.182  70.676  1.00  0.00     3.915 A  
HETATM   43  C   UNL     1      -9.224   6.688  71.705  1.00  0.00    -0.148 C  
HETATM   44  C   UNL     1      -8.756  12.400  70.917  1.00  0.00     9.784 A  
HETATM   45  H   UNL     1     -10.458  11.416  68.866  1.00  0.00     0.000 HD 
HETATM   46  C   UNL     1      -8.152  12.571  72.163  1.00  0.00    16.493 A  
BRANCH  25  47
HETATM   47  C   UNL     1     -12.340   7.958  68.879  1.00  0.00     3.533 C  
HETATM   48  O   UNL     1     -12.793   6.932  68.368  1.00  0.00     4.773 OA 
BRANCH  47  49
HETATM   49  O   UNL     1     -12.898   8.567  69.975  1.00  0.00     1.256 OA 
HETATM   50  C   UNL     1     -14.211   8.106  70.318  1.00  0.00     2.156 C  
ENDBRANCH  47  49
ENDBRANCH  25  47
BRANCH  29  51
HETATM   51  C   UNL     1      -6.151   7.015  69.864  1.00  0.00    -0.024 C  
HETATM   52  C   UNL     1      -5.438   6.722  71.184  1.00  0.00    -0.027 C  
ENDBRANCH  29  51
ENDBRANCH   8  25
BRANCH  18  53
HETATM   53  C   UNL     1      -7.998  13.329  65.134  1.00  0.00     5.518 C  
HETATM   54  C   UNL     1      -6.932  12.381  65.667  1.00  0.00     3.407 C  
ENDBRANCH  18  53
BRANCH  15  55
HETATM   55  O   UNL     1      -8.744  16.658  64.712  1.00  0.00     2.508 OA 
BRANCH  55  56
HETATM   56  C   UNL     1      -7.427  16.299  64.586  1.00  0.00     9.280 C  
HETATM   57  O   UNL     1      -6.923  15.259  64.986  1.00  0.00     8.665 OA 
HETATM   58  C   UNL     1      -6.695  17.291  63.714  1.00  0.00     9.783 C  
ENDBRANCH  55  56
ENDBRANCH  15  55
BRANCH  14  59
HETATM   59  C   UNL     1     -11.544  16.090  63.720  1.00  0.00     0.796 C  
HETATM   60  O   UNL     1     -11.660  16.319  62.522  1.00  0.00     4.532 OA 
BRANCH  59  61
HETATM   61  O   UNL     1     -12.127  16.857  64.695  1.00  0.00     0.514 OA 
HETATM   62  C   UNL     1     -11.221  17.520  65.582  1.00  0.00     0.682 C  
ENDBRANCH  59  61
ENDBRANCH  14  59
TORSDOF 10
ENDMDL
MODEL       75
REMARK 921   NORMALIZED FREE ENERGY PREDICTED BY IDOCK:  125.22 KCAL/MOL
REMARK 922        TOTAL FREE ENERGY PREDICTED BY IDOCK:  197.26 KCAL/MOL
REMARK 923 INTER-LIGAND FREE ENERGY PREDICTED BY IDOCK:  169.93 KCAL/MOL
REMARK 924 INTRA-LIGAND FREE ENERGY PREDICTED BY IDOCK:   27.33 KCAL/MOL
REMARK 927      BINDING AFFINITY PREDICTED BY RF-SCORE:    0.00 PKD
ROOT
HETATM    1  C   UNL     1      -6.813  17.176  69.006  1.00  0.00    -0.231 C  
HETATM    2  N   UNL     1      -7.381  17.026  70.366  1.00  0.00     1.885 NA 
HETATM    3  C   UNL     1      -7.057  17.869  71.493  1.00  0.00     5.595 C  
HETATM    4  C   UNL     1      -7.802  15.723  70.495  1.00  0.00     1.649 A  
HETATM    5  C   UNL     1      -8.082  15.023  71.650  1.00  0.00     4.317 A  
HETATM    6  C   UNL     1      -8.598  13.722  71.579  1.00  0.00     9.211 A  
HETATM    7  N   UNL     1      -7.635  15.419  65.832  1.00  0.00     1.785 NA 
HETATM    8  C   UNL     1      -8.982  13.178  70.332  1.00  0.00     5.288 A  
HETATM    9  C   UNL     1      -8.643  13.908  69.170  1.00  0.00     0.343 A  
HETATM   10  C   UNL     1      -7.670  15.939  64.491  1.00  0.00    11.148 C  
HETATM   11  H   UNL     1      -8.201  20.212  68.688  1.00  0.00     0.000 HD 
HETATM   12  O   UNL     1      -8.059  19.352  69.064  1.00  0.00    -0.347 OA 
HETATM   13  C   UNL     1      -7.975  15.109  69.270  1.00  0.00    -0.213 A  
HETATM   14  C   UNL     1      -7.046  18.594  68.386  1.00  0.00    -0.272 C  
HETATM   15  C   UNL     1      -7.444  18.438  66.913  1.00  0.00    -0.215 C  
HETATM   16  C   UNL     1      -7.331  15.913  68.165  1.00  0.00    -0.133 C  
HETATM   17  C   UNL     1      -8.279  16.099  66.951  1.00  0.00    -0.238 C  
HETATM   18  C   UNL     1      -8.743  17.569  66.712  1.00  0.00    -0.278 C  
HETATM   19  C   UNL     1      -9.226  17.721  65.265  1.00  0.00     1.773 C  
HETATM   20  C   UNL     1      -6.128  15.101  67.606  1.00  0.00    -0.127 C  
HETATM   21  C   UNL     1      -8.731  16.973  64.271  1.00  0.00     8.876 C  
HETATM   22  C   UNL     1      -6.498  14.633  66.212  1.00  0.00     4.376 C  
ENDROOT
BRANCH   6  23
HETATM   23  O   UNL     1      -8.770  12.990  72.721  1.00  0.00    15.615 OA 
HETATM   24  C   UNL     1      -9.911  12.128  72.717  1.00  0.00    20.962 C  
ENDBRANCH   6  23
BRANCH   8  25
HETATM   25  C   UNL     1      -9.738  11.813  70.117  1.00  0.00     2.704 C  
HETATM   26  C   UNL     1     -13.180   8.817  67.472  1.00  0.00    16.496 C  
HETATM   27  C   UNL     1      -9.916   8.348  69.524  1.00  0.00    -0.190 C  
HETATM   28  N   UNL     1     -12.389   8.703  68.714  1.00  0.00     3.342 NA 
HETATM   29  C   UNL     1     -12.954  10.071  66.539  1.00  0.00    12.688 C  
HETATM   30  C   UNL     1      -8.920   9.395  69.052  1.00  0.00    -0.141 A  
HETATM   31  C   UNL     1     -12.711  11.348  67.396  1.00  0.00     3.424 C  
HETATM   32  C   UNL     1      -7.370   7.894  67.531  1.00  0.00    -0.092 A  
HETATM   33  O   UNL     1     -14.159  10.286  65.781  1.00  0.00    14.591 OA 
HETATM   34  C   UNL     1     -11.049  12.179  69.250  1.00  0.00    -0.229 C  
HETATM   35  C   UNL     1     -12.327   9.986  69.391  1.00  0.00     0.605 C  
HETATM   36  H   UNL     1     -14.022  11.040  65.220  1.00  0.00     0.000 HD 
HETATM   37  C   UNL     1      -8.825  10.774  69.335  1.00  0.00     0.047 A  
HETATM   38  C   UNL     1      -6.254   7.943  66.683  1.00  0.00    -0.050 A  
HETATM   39  N   UNL     1      -7.607  11.163  68.809  1.00  0.00    -0.122 NA 
HETATM   40  C   UNL     1      -7.816   9.069  68.171  1.00  0.00    -0.100 A  
HETATM   41  C   UNL     1     -11.674  11.015  68.479  1.00  0.00    -0.348 C  
HETATM   42  C   UNL     1      -7.076  10.224  67.976  1.00  0.00    -0.083 A  
HETATM   43  C   UNL     1     -11.088   8.021  68.554  1.00  0.00     0.372 C  
HETATM   44  C   UNL     1      -5.970  10.306  67.120  1.00  0.00    -0.050 A  
HETATM   45  H   UNL     1      -7.156  12.053  69.022  1.00  0.00     0.000 HD 
HETATM   46  C   UNL     1      -5.579   9.139  66.463  1.00  0.00    -0.049 A  
BRANCH  25  47
HETATM   47  C   UNL     1     -10.099  11.151  71.475  1.00  0.00     6.961 C  
HETATM   48  O   UNL     1      -9.310  10.514  72.177  1.00  0.00     5.540 OA 
BRANCH  47  49
HETATM   49  O   UNL     1     -11.412  11.362  71.815  1.00  0.00     1.746 OA 
HETATM   50  C   UNL     1     -12.359  11.056  70.784  1.00  0.00    -0.398 C  
ENDBRANCH  47  49
ENDBRANCH  25  47
BRANCH  29  51
HETATM   51  C   UNL     1     -11.809   9.816  65.521  1.00  0.00     5.630 C  
HETATM   52  C   UNL     1     -11.193   8.419  65.591  1.00  0.00     5.220 C  
ENDBRANCH  29  51
ENDBRANCH   8  25
BRANCH  18  53
HETATM   53  C   UNL     1     -10.039  17.720  67.606  1.00  0.00    -0.342 C  
HETATM   54  C   UNL     1     -11.122  16.660  67.755  1.00  0.00    -0.157 C  
ENDBRANCH  18  53
BRANCH  15  55
HETATM   55  O   UNL     1      -7.597  19.689  66.200  1.00  0.00    -0.286 OA 
BRANCH  55  56
HETATM   56  C   UNL     1      -7.102  19.646  64.922  1.00  0.00     0.326 C  
HETATM   57  O   UNL     1      -7.592  19.036  63.980  1.00  0.00     3.306 OA 
HETATM   58  C   UNL     1      -5.949  20.608  64.772  1.00  0.00    -0.305 C  
ENDBRANCH  55  56
ENDBRANCH  15  55
BRANCH  14  59
HETATM   59  C   UNL     1      -5.765  19.440  68.593  1.00  0.00    -0.211 C  
HETATM   60  O   UNL     1      -5.245  19.701  69.671  1.00  0.00    -0.187 OA 
BRANCH  59  61
HETATM   61  O   UNL     1      -5.359  19.991  67.405  1.00  0.00    -0.168 OA 
HETATM   62  C   UNL     1      -6.082  21.152  66.985  1.00  0.00    -0.322 C  
ENDBRANCH  59  61
ENDBRANCH  14  59
TORSDOF 10
ENDMDL
