MODEL        1
REMARK 921   NORMALIZED FREE ENERGY PREDICTED BY IDOCK:   -6.56 KCAL/MOL
REMARK 922        TOTAL FREE ENERGY PREDICTED BY IDOCK:  -12.06 KCAL/MOL
REMARK 923 INTER-LIGAND FREE ENERGY PREDICTED BY IDOCK:  -10.39 KCAL/MOL
REMARK 924 INTRA-LIGAND FREE ENERGY PREDICTED BY IDOCK:   -1.67 KCAL/MOL
REMARK 927      BINDING AFFINITY PREDICTED BY RF-SCORE:    0.00 PKD
ROOT
HETATM    1  C   UNL     1     -12.610  13.213  66.616  1.00  0.00     0.197 C  
HETATM    2  C   UNL     1     -13.025  13.925  65.328  1.00  0.00    -0.341 C  
ENDROOT
BRANCH   2   3
HETATM    3  C   UNL     1     -11.859  14.343  64.388  1.00  0.00    -0.415 C  
HETATM    4  C   UNL     1     -10.564  13.504  64.607  1.00  0.00    -0.441 C  
HETATM    5  O   UNL     1     -12.295  14.130  63.034  1.00  0.00    -1.070 OA 
HETATM    6  C   UNL     1      -9.876  14.019  65.871  1.00  0.00    -0.302 C  
HETATM    7  H   UNL     1     -11.583  14.386  62.459  1.00  0.00     0.000 HD 
HETATM    8  C   UNL     1      -9.424  15.445  65.584  1.00  0.00    -0.220 C  
HETATM    9  N   UNL     1     -10.568  16.335  65.538  1.00  0.00    -0.433 NA 
HETATM   10  C   UNL     1     -11.130  16.734  66.843  1.00  0.00     0.223 C  
HETATM   11  C   UNL     1     -11.553  15.887  64.533  1.00  0.00    -0.232 C  
HETATM   12  C   UNL     1     -10.251  16.597  68.128  1.00  0.00    -0.280 C  
HETATM   13  C   UNL     1     -10.415  15.258  68.809  1.00  0.00    -0.237 A  
HETATM   14  C   UNL     1      -9.672  14.071  68.710  1.00  0.00    -0.121 A  
HETATM   15  C   UNL     1      -8.348  13.618  67.955  1.00  0.00    -0.170 C  
HETATM   16  N   UNL     1     -10.393  13.111  69.401  1.00  0.00    -0.280 NA 
HETATM   17  H   UNL     1     -10.160  12.118  69.414  1.00  0.00     0.000 HD 
HETATM   18  C   UNL     1      -8.772  13.151  66.500  1.00  0.00     0.077 C  
HETATM   19  C   UNL     1     -11.498  15.001  69.721  1.00  0.00    -0.324 A  
HETATM   20  C   UNL     1     -12.529  15.796  70.269  1.00  0.00    -0.291 A  
HETATM   21  C   UNL     1     -11.452  13.659  70.061  1.00  0.00    -0.090 A  
HETATM   22  C   UNL     1     -13.463  15.222  71.134  1.00  0.00    -0.559 A  
HETATM   23  C   UNL     1     -13.385  13.870  71.446  1.00  0.00    -0.363 A  
HETATM   24  C   UNL     1     -12.391  13.059  70.917  1.00  0.00    -0.376 A  
BRANCH  15  25
HETATM   25  C   UNL     1      -7.666  12.520  68.848  1.00  0.00     0.085 A  
HETATM   26  O   UNL     1      -7.396   5.907  68.964  1.00  0.00    -0.079 OA 
HETATM   27  C   UNL     1      -6.151  11.539  70.538  1.00  0.00    -0.023 A  
HETATM   28  C   UNL     1      -7.586   6.537  70.236  1.00  0.00    -0.096 C  
HETATM   29  C   UNL     1      -6.745  12.672  69.909  1.00  0.00     0.247 A  
HETATM   30  C   UNL     1      -9.103   6.550  70.623  1.00  0.00    -0.148 C  
HETATM   31  C   UNL     1      -9.282   8.467  68.657  1.00  0.00    -0.142 C  
HETATM   32  C   UNL     1      -6.496  10.260  70.131  1.00  0.00    -0.128 A  
HETATM   33  N   UNL     1      -6.196   8.963  70.678  1.00  0.00    -0.038 N  
HETATM   34  H   UNL     1      -7.565   4.973  68.997  1.00  0.00     0.000 HD 
HETATM   35  C   UNL     1     -10.041   7.415  69.613  1.00  0.00    -0.186 C  
HETATM   36  C   UNL     1      -5.686   8.854  71.963  1.00  0.00    -0.063 C  
HETATM   37  C   UNL     1      -7.305   8.097  70.180  1.00  0.00    -0.060 C  
HETATM   38  O   UNL     1      -5.298   9.748  72.704  1.00  0.00    -0.220 OA 
HETATM   39  C   UNL     1      -7.775   8.685  68.853  1.00  0.00    -0.100 C  
HETATM   40  C   UNL     1      -7.062   8.290  67.547  1.00  0.00    -0.083 C  
HETATM   41  C   UNL     1      -7.424  10.123  69.115  1.00  0.00    -0.098 A  
HETATM   42  C   UNL     1      -7.982  11.206  68.471  1.00  0.00    -0.143 A  
HETATM   43  C   UNL     1      -8.172   7.869  66.598  1.00  0.00    -0.119 C  
HETATM   44  N   UNL     1      -9.391   8.387  67.193  1.00  0.00    -0.147 NA 
HETATM   45  C   UNL     1     -10.620   7.849  66.664  1.00  0.00    -0.002 C  
HETATM   46  C   UNL     1     -11.085   6.656  67.422  1.00  0.00    -0.398 C  
HETATM   47  C   UNL     1     -10.873   6.483  68.735  1.00  0.00    -0.357 C  
BRANCH  29  48
HETATM   48  O   UNL     1      -6.510  13.941  70.366  1.00  0.00    -0.085 OA 
HETATM   49  C   UNL     1      -5.586  14.044  71.446  1.00  0.00    -0.232 C  
ENDBRANCH  29  48
BRANCH  35  50
HETATM   50  C   UNL     1     -10.911   8.239  70.653  1.00  0.00    -0.254 C  
HETATM   51  C   UNL     1     -10.931   9.758  70.670  1.00  0.00    -0.398 C  
ENDBRANCH  35  50
BRANCH  30  52
HETATM   52  O   UNL     1      -9.826   5.489  71.312  1.00  0.00    -0.164 OA 
BRANCH  52  53
HETATM   53  C   UNL     1      -9.604   4.168  71.250  1.00  0.00    -0.172 C  
HETATM   54  C   UNL     1     -10.026   3.547  72.566  1.00  0.00    -0.230 C  
HETATM   55  O   UNL     1      -9.282   3.568  70.237  1.00  0.00    -0.122 OA 
ENDBRANCH  52  53
ENDBRANCH  30  52
BRANCH  28  56
HETATM   56  C   UNL     1      -6.688   5.842  71.255  1.00  0.00    -0.061 C  
HETATM   57  O   UNL     1      -6.821   5.886  72.469  1.00  0.00    -0.074 OA 
BRANCH  56  58
HETATM   58  O   UNL     1      -5.640   5.245  70.607  1.00  0.00    -0.007 OA 
HETATM   59  C   UNL     1      -5.496   3.837  70.809  1.00  0.00    -0.012 C  
ENDBRANCH  56  58
ENDBRANCH  28  56
ENDBRANCH  15  25
BRANCH  15  60
HETATM   60  C   UNL     1      -7.328  14.827  67.941  1.00  0.00    -0.151 C  
HETATM   61  O   UNL     1      -7.435  15.841  68.632  1.00  0.00    -0.136 OA 
BRANCH  60  62
HETATM   62  O   UNL     1      -6.250  14.597  67.132  1.00  0.00    -0.225 OA 
HETATM   63  C   UNL     1      -5.131  15.493  67.304  1.00  0.00     0.284 C  
ENDBRANCH  60  62
ENDBRANCH  15  60
ENDBRANCH   2   3
TORSDOF 10
ENDMDL
MODEL        2
REMARK 921   NORMALIZED FREE ENERGY PREDICTED BY IDOCK:   -6.32 KCAL/MOL
REMARK 922        TOTAL FREE ENERGY PREDICTED BY IDOCK:  -11.68 KCAL/MOL
REMARK 923 INTER-LIGAND FREE ENERGY PREDICTED BY IDOCK:  -10.34 KCAL/MOL
REMARK 924 INTRA-LIGAND FREE ENERGY PREDICTED BY IDOCK:   -1.34 KCAL/MOL
REMARK 927      BINDING AFFINITY PREDICTED BY RF-SCORE:    0.00 PKD
ROOT
HETATM    1  C   UNL     1      -9.678   3.532  69.871  1.00  0.00    -0.131 C  
HETATM    2  C   UNL     1      -9.781   2.306  70.779  1.00  0.00    -0.102 C  
ENDROOT
BRANCH   2   3
HETATM    3  C   UNL     1     -10.013   2.606  72.286  1.00  0.00    -0.166 C  
HETATM    4  C   UNL     1     -10.827   3.912  72.533  1.00  0.00     0.024 C  
HETATM    5  O   UNL     1     -10.765   1.511  72.837  1.00  0.00    -0.130 OA 
HETATM    6  C   UNL     1      -9.888   5.101  72.328  1.00  0.00    -0.216 C  
HETATM    7  H   UNL     1     -10.906   1.694  73.758  1.00  0.00     0.000 HD 
HETATM    8  C   UNL     1      -8.835   5.033  73.426  1.00  0.00    -0.113 C  
HETATM    9  N   UNL     1      -7.917   3.938  73.177  1.00  0.00    -0.086 NA 
HETATM   10  C   UNL     1      -6.885   4.181  72.150  1.00  0.00    -0.041 C  
HETATM   11  C   UNL     1      -8.636   2.653  73.063  1.00  0.00    -0.071 C  
HETATM   12  C   UNL     1      -6.534   5.650  71.752  1.00  0.00    -0.049 C  
HETATM   13  C   UNL     1      -7.368   6.160  70.599  1.00  0.00    -0.086 A  
HETATM   14  C   UNL     1      -8.558   6.907  70.575  1.00  0.00    -0.142 A  
HETATM   15  C   UNL     1      -9.489   7.598  71.662  1.00  0.00    -0.174 C  
HETATM   16  N   UNL     1      -8.977   6.912  69.255  1.00  0.00    -0.138 NA 
HETATM   17  H   UNL     1      -9.873   7.284  68.939  1.00  0.00     0.000 HD 
HETATM   18  C   UNL     1     -10.511   6.499  72.174  1.00  0.00    -0.229 C  
HETATM   19  C   UNL     1      -7.020   5.880  69.231  1.00  0.00    -0.064 A  
HETATM   20  C   UNL     1      -5.927   5.238  68.609  1.00  0.00    -0.021 A  
HETATM   21  C   UNL     1      -8.044   6.358  68.430  1.00  0.00    -0.113 A  
HETATM   22  C   UNL     1      -5.899   5.106  67.219  1.00  0.00    -0.025 A  
HETATM   23  C   UNL     1      -6.948   5.595  66.451  1.00  0.00    -0.060 A  
HETATM   24  C   UNL     1      -8.042   6.221  67.031  1.00  0.00    -0.109 A  
BRANCH  15  25
HETATM   25  C   UNL     1     -10.133   8.857  70.979  1.00  0.00    -0.324 A  
HETATM   26  O   UNL     1      -9.052  12.443  65.521  1.00  0.00    -0.424 OA 
HETATM   27  C   UNL     1     -11.790  10.634  70.518  1.00  0.00    -0.453 A  
HETATM   28  C   UNL     1      -9.324  13.196  66.707  1.00  0.00    -0.244 C  
HETATM   29  C   UNL     1     -11.304   9.567  71.329  1.00  0.00    -0.376 A  
HETATM   30  C   UNL     1      -7.992  13.680  67.371  1.00  0.00    -0.166 C  
HETATM   31  C   UNL     1      -7.720  11.029  68.057  1.00  0.00    -0.106 C  
HETATM   32  C   UNL     1     -11.097  11.010  69.378  1.00  0.00    -0.262 A  
HETATM   33  N   UNL     1     -11.251  12.126  68.483  1.00  0.00    -0.238 N  
HETATM   34  H   UNL     1      -8.708  12.986  64.822  1.00  0.00     0.000 HD 
HETATM   35  C   UNL     1      -7.028  12.473  67.886  1.00  0.00    -0.105 C  
HETATM   36  C   UNL     1     -12.036  13.208  68.854  1.00  0.00    -0.277 C  
HETATM   37  C   UNL     1      -9.898  12.289  67.875  1.00  0.00    -0.201 C  
HETATM   38  O   UNL     1     -12.775  13.312  69.824  1.00  0.00     0.022 OA 
HETATM   39  C   UNL     1      -9.239  10.913  67.866  1.00  0.00    -0.152 C  
HETATM   40  C   UNL     1      -9.500   9.949  66.694  1.00  0.00    -0.220 C  
HETATM   41  C   UNL     1      -9.934  10.330  69.064  1.00  0.00    -0.223 A  
HETATM   42  C   UNL     1      -9.467   9.274  69.817  1.00  0.00    -0.203 A  
HETATM   43  C   UNL     1      -8.124   9.497  66.235  1.00  0.00    -0.111 C  
HETATM   44  N   UNL     1      -7.230   9.854  67.322  1.00  0.00    -0.086 NA 
HETATM   45  C   UNL     1      -5.823   9.829  67.005  1.00  0.00    -0.051 C  
HETATM   46  C   UNL     1      -5.330  11.151  66.532  1.00  0.00    -0.120 C  
HETATM   47  C   UNL     1      -5.826  12.323  66.956  1.00  0.00    -0.042 C  
BRANCH  29  48
HETATM   48  O   UNL     1     -11.903   9.251  72.519  1.00  0.00    -0.074 OA 
HETATM   49  C   UNL     1     -13.303   8.993  72.453  1.00  0.00    -0.460 C  
ENDBRANCH  29  48
BRANCH  35  50
HETATM   50  C   UNL     1      -6.640  13.004  69.330  1.00  0.00    -0.063 C  
HETATM   51  C   UNL     1      -5.849  12.162  70.317  1.00  0.00    -0.161 C  
ENDBRANCH  35  50
BRANCH  30  52
HETATM   52  O   UNL     1      -7.264  14.902  67.054  1.00  0.00    -0.148 OA 
BRANCH  52  53
HETATM   53  C   UNL     1      -7.460  16.129  67.557  1.00  0.00    -0.153 C  
HETATM   54  C   UNL     1      -7.505  17.118  66.410  1.00  0.00    -0.341 C  
HETATM   55  O   UNL     1      -7.731  16.363  68.724  1.00  0.00    -0.188 OA 
ENDBRANCH  52  53
ENDBRANCH  30  52
BRANCH  28  56
HETATM   56  C   UNL     1     -10.288  14.323  66.349  1.00  0.00    -0.286 C  
HETATM   57  O   UNL     1     -10.525  15.305  67.039  1.00  0.00    -0.279 OA 
BRANCH  56  58
HETATM   58  O   UNL     1     -10.933  14.018  65.181  1.00  0.00    -0.319 OA 
HETATM   59  C   UNL     1     -12.361  14.059  65.220  1.00  0.00    -0.465 C  
ENDBRANCH  56  58
ENDBRANCH  28  56
ENDBRANCH  15  25
BRANCH  15  60
HETATM   60  C   UNL     1      -8.579   8.179  72.819  1.00  0.00    -0.206 C  
HETATM   61  O   UNL     1      -8.780   8.004  74.022  1.00  0.00    -0.269 OA 
BRANCH  60  62
HETATM   62  O   UNL     1      -7.479   8.838  72.344  1.00  0.00    -0.324 OA 
HETATM   63  C   UNL     1      -6.318   8.823  73.201  1.00  0.00    -0.002 C  
ENDBRANCH  60  62
ENDBRANCH  15  60
ENDBRANCH   2   3
TORSDOF 10
ENDMDL
MODEL        3
REMARK 921   NORMALIZED FREE ENERGY PREDICTED BY IDOCK:   -6.31 KCAL/MOL
REMARK 922        TOTAL FREE ENERGY PREDICTED BY IDOCK:  -11.68 KCAL/MOL
REMARK 923 INTER-LIGAND FREE ENERGY PREDICTED BY IDOCK:   -9.79 KCAL/MOL
REMARK 924 INTRA-LIGAND FREE ENERGY PREDICTED BY IDOCK:   -1.89 KCAL/MOL
REMARK 927      BINDING AFFINITY PREDICTED BY RF-SCORE:    0.00 PKD
ROOT
HETATM    1  C   UNL     1      -8.992  17.496  66.350  1.00  0.00    -0.264 C  
HETATM    2  C   UNL     1      -7.805  16.544  66.210  1.00  0.00    -0.266 C  
ENDROOT
BRANCH   2   3
HETATM    3  C   UNL     1      -6.982  16.302  67.507  1.00  0.00    -0.156 C  
HETATM    4  C   UNL     1      -6.176  14.968  67.481  1.00  0.00    -0.057 C  
HETATM    5  O   UNL     1      -6.039  17.381  67.631  1.00  0.00    -0.138 OA 
HETATM    6  C   UNL     1      -7.151  13.823  67.755  1.00  0.00    -0.175 C  
HETATM    7  H   UNL     1      -5.536  17.234  68.423  1.00  0.00     0.000 HD 
HETATM    8  C   UNL     1      -7.656  13.997  69.181  1.00  0.00     0.030 C  
HETATM    9  N   UNL     1      -8.563  15.125  69.260  1.00  0.00    -0.224 NA 
HETATM   10  C   UNL     1      -9.932  14.889  68.762  1.00  0.00    -0.228 C  
HETATM   11  C   UNL     1      -7.918  16.364  68.780  1.00  0.00    -0.233 C  
HETATM   12  C   UNL     1     -10.459  13.424  68.638  1.00  0.00    -0.237 C  
HETATM   13  C   UNL     1     -10.188  12.818  67.280  1.00  0.00    -0.232 A  
HETATM   14  C   UNL     1      -9.136  12.010  66.819  1.00  0.00    -0.197 A  
HETATM   15  C   UNL     1      -7.860  11.321  67.472  1.00  0.00    -0.123 C  
HETATM   16  N   UNL     1      -9.296  11.921  65.446  1.00  0.00    -0.420 NA 
HETATM   17  H   UNL     1      -8.621  11.488  64.816  1.00  0.00     0.000 HD 
HETATM   18  C   UNL     1      -6.687  12.388  67.449  1.00  0.00    -0.152 C  
HETATM   19  C   UNL     1     -11.060  13.052  66.159  1.00  0.00    -0.311 A  
HETATM   20  C   UNL     1     -12.293  13.721  65.999  1.00  0.00    -0.499 A  
HETATM   21  C   UNL     1     -10.470  12.485  65.042  1.00  0.00    -0.297 A  
HETATM   22  C   UNL     1     -12.887  13.790  64.737  1.00  0.00    -0.160 A  
HETATM   23  C   UNL     1     -12.261  13.212  63.640  1.00  0.00    -0.553 A  
HETATM   24  C   UNL     1     -11.044  12.556  63.760  1.00  0.00    -0.503 A  
BRANCH  15  25
HETATM   25  C   UNL     1      -7.591  10.000  66.667  1.00  0.00    -0.104 A  
HETATM   26  O   UNL     1      -9.873   3.787  66.727  1.00  0.00    -0.354 OA 
HETATM   27  C   UNL     1      -6.745   8.530  64.867  1.00  0.00    -0.068 A  
HETATM   28  C   UNL     1      -8.454   3.919  66.595  1.00  0.00    -0.105 C  
HETATM   29  C   UNL     1      -6.783   9.794  65.525  1.00  0.00    -0.090 A  
HETATM   30  C   UNL     1      -7.753   3.747  67.984  1.00  0.00    -0.066 C  
HETATM   31  C   UNL     1      -8.822   6.230  68.496  1.00  0.00    -0.114 C  
HETATM   32  C   UNL     1      -7.487   7.468  65.361  1.00  0.00    -0.082 A  
HETATM   33  N   UNL     1      -7.515   6.072  65.015  1.00  0.00    -0.080 N  
HETATM   34  H   UNL     1     -10.133   2.897  66.933  1.00  0.00     0.000 HD 
HETATM   35  C   UNL     1      -8.153   4.885  69.077  1.00  0.00    -0.079 C  
HETATM   36  C   UNL     1      -6.502   5.530  64.238  1.00  0.00    -0.030 C  
HETATM   37  C   UNL     1      -8.019   5.405  66.251  1.00  0.00    -0.105 C  
HETATM   38  O   UNL     1      -5.603   6.115  63.648  1.00  0.00    -0.017 OA 
HETATM   39  C   UNL     1      -8.910   6.411  66.974  1.00  0.00    -0.115 C  
HETATM   40  C   UNL     1     -10.397   6.526  66.593  1.00  0.00    -0.217 C  
HETATM   41  C   UNL     1      -8.246   7.672  66.498  1.00  0.00    -0.125 A  
HETATM   42  C   UNL     1      -8.323   8.896  67.128  1.00  0.00    -0.103 A  
HETATM   43  C   UNL     1     -11.155   6.435  67.907  1.00  0.00    -0.270 C  
HETATM   44  N   UNL     1     -10.155   6.671  68.933  1.00  0.00    -0.159 NA 
HETATM   45  C   UNL     1     -10.546   6.318  70.276  1.00  0.00    -0.248 C  
HETATM   46  C   UNL     1     -10.172   4.920  70.622  1.00  0.00    -0.282 C  
HETATM   47  C   UNL     1      -9.088   4.300  70.132  1.00  0.00    -0.174 C  
BRANCH  29  48
HETATM   48  O   UNL     1      -5.975  10.825  65.128  1.00  0.00    -0.102 OA 
HETATM   49  C   UNL     1      -5.175  10.571  63.976  1.00  0.00    -0.160 C  
ENDBRANCH  29  48
BRANCH  35  50
HETATM   50  C   UNL     1      -6.720   5.259  69.648  1.00  0.00    -0.051 C  
HETATM   51  C   UNL     1      -6.525   5.807  71.051  1.00  0.00    -0.040 C  
ENDBRANCH  35  50
BRANCH  30  52
HETATM   52  O   UNL     1      -7.336   2.489  68.590  1.00  0.00    -0.047 OA 
BRANCH  52  53
HETATM   53  C   UNL     1      -6.087   2.084  68.865  1.00  0.00    -0.025 C  
HETATM   54  C   UNL     1      -6.036   1.628  70.308  1.00  0.00    -0.018 C  
HETATM   55  O   UNL     1      -5.205   1.948  68.032  1.00  0.00    -0.011 OA 
ENDBRANCH  52  53
ENDBRANCH  30  52
BRANCH  28  56
HETATM   56  C   UNL     1      -7.977   2.936  65.530  1.00  0.00    -0.086 C  
HETATM   57  O   UNL     1      -6.815   2.618  65.322  1.00  0.00    -0.042 OA 
BRANCH  56  58
HETATM   58  O   UNL     1      -9.042   2.540  64.765  1.00  0.00    -0.123 OA 
HETATM   59  C   UNL     1      -8.977   2.873  63.376  1.00  0.00    -0.091 C  
ENDBRANCH  56  58
ENDBRANCH  28  56
ENDBRANCH  15  25
BRANCH  15  60
HETATM   60  C   UNL     1      -8.229  10.844  68.934  1.00  0.00    -0.141 C  
HETATM   61  O   UNL     1      -9.363  10.530  69.303  1.00  0.00    -0.199 OA 
BRANCH  60  62
HETATM   62  O   UNL     1      -7.133  10.730  69.744  1.00  0.00    -0.146 OA 
HETATM   63  C   UNL     1      -7.012   9.487  70.468  1.00  0.00    -0.123 C  
ENDBRANCH  60  62
ENDBRANCH  15  60
ENDBRANCH   2   3
TORSDOF 10
ENDMDL
MODEL        4
REMARK 921   NORMALIZED FREE ENERGY PREDICTED BY IDOCK:   -5.58 KCAL/MOL
REMARK 922        TOTAL FREE ENERGY PREDICTED BY IDOCK:  -10.52 KCAL/MOL
REMARK 923 INTER-LIGAND FREE ENERGY PREDICTED BY IDOCK:   -8.86 KCAL/MOL
REMARK 924 INTRA-LIGAND FREE ENERGY PREDICTED BY IDOCK:   -1.66 KCAL/MOL
REMARK 927      BINDING AFFINITY PREDICTED BY RF-SCORE:    0.00 PKD
ROOT
HETATM    1  C   UNL     1     -12.988  14.044  65.710  1.00  0.00    -0.297 C  
HETATM    2  C   UNL     1     -12.757  12.704  65.012  1.00  0.00    -0.403 C  
ENDROOT
BRANCH   2   3
HETATM    3  C   UNL     1     -11.548  12.656  64.036  1.00  0.00    -0.418 C  
HETATM    4  C   UNL     1     -10.983  11.217  63.831  1.00  0.00    -0.382 C  
HETATM    5  O   UNL     1     -12.001  13.134  62.758  1.00  0.00    -0.688 OA 
HETATM    6  C   UNL     1     -10.148  10.858  65.060  1.00  0.00    -0.362 C  
HETATM    7  H   UNL     1     -11.262  13.105  62.162  1.00  0.00     0.000 HD 
HETATM    8  C   UNL     1      -8.948  11.796  65.073  1.00  0.00     0.333 C  
HETATM    9  N   UNL     1      -9.363  13.139  65.433  1.00  0.00     0.270 NA 
HETATM   10  C   UNL     1      -9.613  13.375  66.868  1.00  0.00    -0.257 C  
HETATM   11  C   UNL     1     -10.406  13.639  64.515  1.00  0.00    -0.330 C  
HETATM   12  C   UNL     1      -9.000  12.398  67.922  1.00  0.00    -0.184 C  
HETATM   13  C   UNL     1      -9.923  11.250  68.262  1.00  0.00    -0.201 A  
HETATM   14  C   UNL     1     -10.004   9.944  67.752  1.00  0.00    -0.165 A  
HETATM   15  C   UNL     1      -9.174   9.077  66.709  1.00  0.00    -0.198 C  
HETATM   16  N   UNL     1     -11.160   9.399  68.284  1.00  0.00    -0.495 NA 
HETATM   17  H   UNL     1     -11.547   8.495  68.010  1.00  0.00     0.000 HD 
HETATM   18  C   UNL     1      -9.763   9.383  65.269  1.00  0.00    -0.184 C  
HETATM   19  C   UNL     1     -10.971  11.386  69.239  1.00  0.00    -0.282 A  
HETATM   20  C   UNL     1     -11.360  12.415  70.124  1.00  0.00     0.154 A  
HETATM   21  C   UNL     1     -11.717  10.219  69.218  1.00  0.00    -0.070 A  
HETATM   22  C   UNL     1     -12.470  12.236  70.952  1.00  0.00    -0.371 A  
HETATM   23  C   UNL     1     -13.196  11.052  70.899  1.00  0.00    -0.037 A  
HETATM   24  C   UNL     1     -12.846  10.025  70.034  1.00  0.00     0.254 A  
BRANCH  15  25
HETATM   25  C   UNL     1      -9.272   7.581  67.178  1.00  0.00    -0.161 A  
HETATM   26  O   UNL     1     -10.555   4.392  72.835  1.00  0.00    -0.182 OA 
HETATM   27  C   UNL     1      -9.425   5.119  67.009  1.00  0.00    -0.143 A  
HETATM   28  C   UNL     1      -9.462   3.872  72.070  1.00  0.00    -0.136 C  
HETATM   29  C   UNL     1      -9.211   6.396  66.411  1.00  0.00    -0.155 A  
HETATM   30  C   UNL     1      -8.100   4.422  72.610  1.00  0.00    -0.098 C  
HETATM   31  C   UNL     1      -8.935   6.777  71.457  1.00  0.00    -0.137 C  
HETATM   32  C   UNL     1      -9.669   5.023  68.370  1.00  0.00    -0.152 A  
HETATM   33  N   UNL     1      -9.754   3.891  69.254  1.00  0.00    -0.154 N  
HETATM   34  H   UNL     1     -10.574   4.042  73.717  1.00  0.00     0.000 HD 
HETATM   35  C   UNL     1      -7.935   6.036  72.480  1.00  0.00    -0.105 C  
HETATM   36  C   UNL     1      -9.291   2.651  68.839  1.00  0.00    -0.155 C  
HETATM   37  C   UNL     1      -9.429   4.458  70.596  1.00  0.00    -0.172 C  
HETATM   38  O   UNL     1      -8.925   2.314  67.720  1.00  0.00    -0.123 OA 
HETATM   39  C   UNL     1      -9.864   5.920  70.585  1.00  0.00    -0.230 C  
HETATM   40  C   UNL     1     -11.318   6.288  70.931  1.00  0.00    -0.389 C  
HETATM   41  C   UNL     1      -9.692   6.187  69.116  1.00  0.00    -0.164 A  
HETATM   42  C   UNL     1      -9.522   7.433  68.550  1.00  0.00    -0.144 A  
HETATM   43  C   UNL     1     -11.213   7.375  71.988  1.00  0.00    -0.251 C  
HETATM   44  N   UNL     1      -9.841   7.842  71.911  1.00  0.00    -0.169 NA 
HETATM   45  C   UNL     1      -9.393   8.643  73.023  1.00  0.00     0.114 C  
HETATM   46  C   UNL     1      -8.762   7.820  74.091  1.00  0.00    -0.293 C  
HETATM   47  C   UNL     1      -8.075   6.694  73.851  1.00  0.00    -0.119 C  
BRANCH  29  48
HETATM   48  O   UNL     1      -8.855   6.511  65.095  1.00  0.00     0.019 OA 
HETATM   49  C   UNL     1      -7.980   5.499  64.603  1.00  0.00    -0.115 C  
ENDBRANCH  29  48
BRANCH  35  50
HETATM   50  C   UNL     1      -6.467   6.134  71.885  1.00  0.00    -0.050 C  
HETATM   51  C   UNL     1      -6.184   6.743  70.522  1.00  0.00    -0.031 C  
ENDBRANCH  35  50
BRANCH  30  52
HETATM   52  O   UNL     1      -7.303   3.847  73.686  1.00  0.00    -0.065 OA 
BRANCH  52  53
HETATM   53  C   UNL     1      -6.578   2.719  73.660  1.00  0.00    -0.022 C  
HETATM   54  C   UNL     1      -5.513   2.856  72.591  1.00  0.00     0.000 C  
HETATM   55  O   UNL     1      -6.666   1.822  74.482  1.00  0.00    -0.019 OA 
ENDBRANCH  52  53
ENDBRANCH  30  52
BRANCH  28  56
HETATM   56  C   UNL     1      -9.562   2.349  72.065  1.00  0.00    -0.130 C  
HETATM   57  O   UNL     1      -8.752   1.583  71.563  1.00  0.00    -0.050 OA 
BRANCH  56  58
HETATM   58  O   UNL     1     -10.756   1.969  72.617  1.00  0.00    -0.152 OA 
HETATM   59  C   UNL     1     -10.702   1.484  73.961  1.00  0.00    -0.116 C  
ENDBRANCH  56  58
ENDBRANCH  28  56
ENDBRANCH  15  25
BRANCH  15  60
HETATM   60  C   UNL     1      -7.642   9.450  66.839  1.00  0.00    -0.091 C  
HETATM   61  O   UNL     1      -7.103   9.843  67.875  1.00  0.00    -0.084 OA 
BRANCH  60  62
HETATM   62  O   UNL     1      -6.942   9.208  65.689  1.00  0.00    -0.079 OA 
HETATM   63  C   UNL     1      -5.557   8.838  65.862  1.00  0.00    -0.045 C  
ENDBRANCH  60  62
ENDBRANCH  15  60
ENDBRANCH   2   3
TORSDOF 10
ENDMDL
MODEL        5
REMARK 921   NORMALIZED FREE ENERGY PREDICTED BY IDOCK:   -4.72 KCAL/MOL
REMARK 922        TOTAL FREE ENERGY PREDICTED BY IDOCK:   -9.15 KCAL/MOL
REMARK 923 INTER-LIGAND FREE ENERGY PREDICTED BY IDOCK:   -7.80 KCAL/MOL
REMARK 924 INTRA-LIGAND FREE ENERGY PREDICTED BY IDOCK:   -1.36 KCAL/MOL
REMARK 927      BINDING AFFINITY PREDICTED BY RF-SCORE:    0.00 PKD
ROOT
HETATM    1  C   UNL     1     -13.159  12.868  65.071  1.00  0.00     0.059 C  
HETATM    2  C   UNL     1     -12.648  14.186  65.653  1.00  0.00    -0.495 C  
ENDROOT
BRANCH   2   3
HETATM    3  C   UNL     1     -11.355  14.750  65.000  1.00  0.00    -0.391 C  
HETATM    4  C   UNL     1     -10.359  13.637  64.553  1.00  0.00    -0.355 C  
HETATM    5  O   UNL     1     -11.745  15.485  63.827  1.00  0.00    -0.821 OA 
HETATM    6  C   UNL     1      -9.637  13.122  65.798  1.00  0.00    -0.075 C  
HETATM    7  H   UNL     1     -10.955  15.830  63.428  1.00  0.00     0.000 HD 
HETATM    8  C   UNL     1      -8.792  14.271  66.333  1.00  0.00     0.034 C  
HETATM    9  N   UNL     1      -9.640  15.283  66.932  1.00  0.00    -0.225 NA 
HETATM   10  C   UNL     1     -10.151  14.980  68.283  1.00  0.00    -0.222 C  
HETATM   11  C   UNL     1     -10.644  15.777  65.969  1.00  0.00    -0.326 C  
HETATM   12  C   UNL     1      -9.428  13.899  69.150  1.00  0.00     0.280 C  
HETATM   13  C   UNL     1      -9.999  12.513  68.953  1.00  0.00     0.080 A  
HETATM   14  C   UNL     1      -9.608  11.461  68.110  1.00  0.00    -0.190 A  
HETATM   15  C   UNL     1      -8.416  11.204  67.090  1.00  0.00    -0.137 C  
HETATM   16  N   UNL     1     -10.609  10.508  68.201  1.00  0.00    -0.189 NA 
HETATM   17  H   UNL     1     -10.661   9.673  67.617  1.00  0.00     0.000 HD 
HETATM   18  C   UNL     1      -8.858  11.799  65.689  1.00  0.00     0.120 C  
HETATM   19  C   UNL     1     -11.167  12.068  69.667  1.00  0.00    -0.168 A  
HETATM   20  C   UNL     1     -11.971  12.632  70.682  1.00  0.00    -0.196 A  
HETATM   21  C   UNL     1     -11.515  10.824  69.168  1.00  0.00    -0.298 A  
HETATM   22  C   UNL     1     -13.080  11.931  71.159  1.00  0.00    -0.131 A  
HETATM   23  C   UNL     1     -13.399  10.687  70.629  1.00  0.00     0.061 A  
HETATM   24  C   UNL     1     -12.636  10.109  69.625  1.00  0.00     0.369 A  
BRANCH  15  25
HETATM   25  C   UNL     1      -8.122   9.661  67.110  1.00  0.00    -0.110 A  
HETATM   26  O   UNL     1     -10.018   4.453  70.729  1.00  0.00    -0.204 OA 
HETATM   27  C   UNL     1      -7.311   7.460  66.327  1.00  0.00    -0.082 A  
HETATM   28  C   UNL     1      -8.621   4.512  70.421  1.00  0.00    -0.078 C  
HETATM   29  C   UNL     1      -7.382   8.877  66.196  1.00  0.00    -0.090 A  
HETATM   30  C   UNL     1      -7.820   5.135  71.613  1.00  0.00    -0.109 C  
HETATM   31  C   UNL     1      -9.000   7.481  70.790  1.00  0.00    -0.149 C  
HETATM   32  C   UNL     1      -7.953   6.828  67.381  1.00  0.00    -0.114 A  
HETATM   33  N   UNL     1      -7.921   5.469  67.851  1.00  0.00    -0.096 N  
HETATM   34  H   UNL     1     -10.210   3.816  71.406  1.00  0.00     0.000 HD 
HETATM   35  C   UNL     1      -8.214   6.679  71.945  1.00  0.00    -0.103 C  
HETATM   36  C   UNL     1      -6.931   4.605  67.405  1.00  0.00    -0.061 C  
HETATM   37  C   UNL     1      -8.300   5.577  69.290  1.00  0.00    -0.101 C  
HETATM   38  O   UNL     1      -6.110   4.787  66.515  1.00  0.00    -0.029 OA 
HETATM   39  C   UNL     1      -9.200   6.801  69.428  1.00  0.00    -0.143 C  
HETATM   40  C   UNL     1     -10.714   6.669  69.179  1.00  0.00    -0.304 C  
HETATM   41  C   UNL     1      -8.646   7.609  68.288  1.00  0.00    -0.124 A  
HETATM   42  C   UNL     1      -8.754   8.977  68.158  1.00  0.00    -0.130 A  
HETATM   43  C   UNL     1     -11.375   7.299  70.394  1.00  0.00    -0.271 C  
HETATM   44  N   UNL     1     -10.325   8.069  71.035  1.00  0.00    -0.201 NA 
HETATM   45  C   UNL     1     -10.603   8.500  72.383  1.00  0.00    -0.298 C  
HETATM   46  C   UNL     1     -10.123   7.522  73.397  1.00  0.00    -0.393 C  
HETATM   47  C   UNL     1      -9.039   6.750  73.228  1.00  0.00    -0.148 C  
BRANCH  29  48
HETATM   48  O   UNL     1      -6.664   9.537  65.233  1.00  0.00    -0.077 OA 
HETATM   49  C   UNL     1      -6.706   8.959  63.931  1.00  0.00    -0.087 C  
ENDBRANCH  29  48
BRANCH  35  50
HETATM   50  C   UNL     1      -6.771   7.324  72.093  1.00  0.00    -0.055 C  
HETATM   51  C   UNL     1      -6.536   8.820  71.969  1.00  0.00    -0.061 C  
ENDBRANCH  35  50
BRANCH  30  52
HETATM   52  O   UNL     1      -7.288   4.417  72.764  1.00  0.00    -0.073 OA 
BRANCH  52  53
HETATM   53  C   UNL     1      -7.812   3.345  73.377  1.00  0.00    -0.070 C  
HETATM   54  C   UNL     1      -6.706   2.634  74.131  1.00  0.00    -0.030 C  
HETATM   55  O   UNL     1      -9.006   3.103  73.448  1.00  0.00    -0.085 OA 
ENDBRANCH  52  53
ENDBRANCH  30  52
BRANCH  28  56
HETATM   56  C   UNL     1      -8.158   3.114  70.021  1.00  0.00    -0.045 C  
HETATM   57  O   UNL     1      -8.884   2.146  69.846  1.00  0.00    -0.061 OA 
BRANCH  56  58
HETATM   58  O   UNL     1      -6.790   3.078  69.991  1.00  0.00    -0.033 OA 
HETATM   59  C   UNL     1      -6.185   1.832  70.344  1.00  0.00    -0.023 C  
ENDBRANCH  56  58
ENDBRANCH  28  56
ENDBRANCH  15  25
BRANCH  15  60
HETATM   60  C   UNL     1      -7.102  11.879  67.659  1.00  0.00    -0.112 C  
HETATM   61  O   UNL     1      -6.282  12.497  66.978  1.00  0.00    -0.227 OA 
BRANCH  60  62
HETATM   62  O   UNL     1      -7.006  11.780  69.019  1.00  0.00    -0.100 OA 
HETATM   63  C   UNL     1      -5.749  12.199  69.593  1.00  0.00    -0.100 C  
ENDBRANCH  60  62
ENDBRANCH  15  60
ENDBRANCH   2   3
TORSDOF 10
ENDMDL
MODEL        6
REMARK 921   NORMALIZED FREE ENERGY PREDICTED BY IDOCK:   -4.39 KCAL/MOL
REMARK 922        TOTAL FREE ENERGY PREDICTED BY IDOCK:   -8.63 KCAL/MOL
REMARK 923 INTER-LIGAND FREE ENERGY PREDICTED BY IDOCK:   -7.89 KCAL/MOL
REMARK 924 INTRA-LIGAND FREE ENERGY PREDICTED BY IDOCK:   -0.75 KCAL/MOL
REMARK 927      BINDING AFFINITY PREDICTED BY RF-SCORE:    0.00 PKD
ROOT
HETATM    1  C   UNL     1      -8.518  19.258  69.269  1.00  0.00    -0.040 C  
HETATM    2  C   UNL     1      -9.008  18.006  68.542  1.00  0.00    -0.297 C  
ENDROOT
BRANCH   2   3
HETATM    3  C   UNL     1     -10.423  18.110  67.907  1.00  0.00    -0.392 C  
HETATM    4  C   UNL     1     -11.466  17.165  68.577  1.00  0.00     0.462 C  
HETATM    5  O   UNL     1     -10.881  19.462  68.084  1.00  0.00    -0.381 OA 
HETATM    6  C   UNL     1     -11.219  15.747  68.061  1.00  0.00    -0.338 C  
HETATM    7  H   UNL     1     -11.746  19.526  67.696  1.00  0.00     0.000 HD 
HETATM    8  C   UNL     1     -11.534  15.753  66.570  1.00  0.00     0.252 C  
HETATM    9  N   UNL     1     -10.506  16.471  65.842  1.00  0.00    -0.340 NA 
HETATM   10  C   UNL     1      -9.245  15.739  65.612  1.00  0.00    -0.087 C  
HETATM   11  C   UNL     1     -10.356  17.850  66.349  1.00  0.00    -0.365 C  
HETATM   12  C   UNL     1      -9.237  14.180  65.716  1.00  0.00     0.218 C  
HETATM   13  C   UNL     1      -8.914  13.688  67.108  1.00  0.00    -0.235 A  
HETATM   14  C   UNL     1      -9.747  13.313  68.175  1.00  0.00    -0.227 A  
HETATM   15  C   UNL     1     -11.314  13.155  68.393  1.00  0.00    -0.324 C  
HETATM   16  N   UNL     1      -8.913  13.144  69.268  1.00  0.00     0.142 NA 
HETATM   17  H   UNL     1      -9.242  12.976  70.220  1.00  0.00     0.000 HD 
HETATM   18  C   UNL     1     -11.876  14.577  68.813  1.00  0.00    -0.350 C  
HETATM   19  C   UNL     1      -7.557  13.563  67.571  1.00  0.00    -0.176 A  
HETATM   20  C   UNL     1      -6.293  13.728  66.962  1.00  0.00     0.987 A  
HETATM   21  C   UNL     1      -7.600  13.228  68.914  1.00  0.00     0.032 A  
HETATM   22  C   UNL     1      -5.131  13.548  67.714  1.00  0.00    -0.036 A  
HETATM   23  C   UNL     1      -5.217  13.218  69.061  1.00  0.00    -0.069 A  
HETATM   24  C   UNL     1      -6.441  13.058  69.692  1.00  0.00    -0.044 A  
BRANCH  15  25
HETATM   25  C   UNL     1     -11.515  12.008  69.447  1.00  0.00    -0.361 A  
HETATM   26  O   UNL     1      -8.280   6.527  71.264  1.00  0.00    -0.118 OA 
HETATM   27  C   UNL     1     -12.445  10.813  71.402  1.00  0.00    -0.478 A  
HETATM   28  C   UNL     1      -9.699   6.390  71.141  1.00  0.00    -0.175 C  
HETATM   29  C   UNL     1     -12.486  11.889  70.468  1.00  0.00    -0.215 A  
HETATM   30  C   UNL     1     -10.077   5.787  69.746  1.00  0.00    -0.209 C  
HETATM   31  C   UNL     1      -9.349   8.270  68.810  1.00  0.00    -0.143 C  
HETATM   32  C   UNL     1     -11.458   9.846  71.304  1.00  0.00    -0.361 A  
HETATM   33  N   UNL     1     -11.269   8.591  71.982  1.00  0.00    -0.324 N  
HETATM   34  H   UNL     1      -7.842   5.686  71.325  1.00  0.00     0.000 HD 
HETATM   35  C   UNL     1      -9.662   6.724  68.482  1.00  0.00    -0.133 C  
HETATM   36  C   UNL     1     -12.312   8.030  72.704  1.00  0.00    -0.114 C  
HETATM   37  C   UNL     1     -10.430   7.794  71.039  1.00  0.00    -0.203 C  
HETATM   38  O   UNL     1     -13.393   8.530  72.988  1.00  0.00    -0.138 OA 
HETATM   39  C   UNL     1      -9.592   8.784  70.236  1.00  0.00    -0.198 C  
HETATM   40  C   UNL     1      -8.248   9.280  70.799  1.00  0.00    -0.210 C  
HETATM   41  C   UNL     1     -10.533   9.955  70.281  1.00  0.00    -0.348 A  
HETATM   42  C   UNL     1     -10.536  11.006  69.389  1.00  0.00    -0.212 A  
HETATM   43  C   UNL     1      -7.243   9.069  69.679  1.00  0.00    -0.059 C  
HETATM   44  N   UNL     1      -8.047   8.871  68.486  1.00  0.00    -0.107 NA 
HETATM   45  C   UNL     1      -7.348   8.330  67.347  1.00  0.00    -0.092 C  
HETATM   46  C   UNL     1      -7.413   6.843  67.302  1.00  0.00    -0.096 C  
HETATM   47  C   UNL     1      -8.455   6.132  67.758  1.00  0.00    -0.115 C  
BRANCH  29  48
HETATM   48  O   UNL     1     -13.515  12.792  70.471  1.00  0.00     0.644 OA 
HETATM   49  C   UNL     1     -13.674  13.538  71.675  1.00  0.00    -0.199 C  
ENDBRANCH  29  48
BRANCH  35  50
HETATM   50  C   UNL     1     -10.997   6.667  67.625  1.00  0.00    -0.392 C  
HETATM   51  C   UNL     1     -11.111   5.839  66.357  1.00  0.00     0.073 C  
ENDBRANCH  35  50
BRANCH  30  52
HETATM   52  O   UNL     1     -10.155   4.371  69.412  1.00  0.00    -0.162 OA 
BRANCH  52  53
HETATM   53  C   UNL     1      -9.214   3.432  69.585  1.00  0.00    -0.154 C  
HETATM   54  C   UNL     1      -9.657   2.170  68.874  1.00  0.00    -0.082 C  
HETATM   55  O   UNL     1      -8.118   3.635  70.082  1.00  0.00    -0.047 OA 
ENDBRANCH  52  53
ENDBRANCH  30  52
BRANCH  28  56
HETATM   56  C   UNL     1     -10.208   5.580  72.329  1.00  0.00    -0.199 C  
HETATM   57  O   UNL     1     -11.104   4.749  72.295  1.00  0.00    -0.073 OA 
BRANCH  56  58
HETATM   58  O   UNL     1      -9.580   6.000  73.471  1.00  0.00    -0.138 OA 
HETATM   59  C   UNL     1      -9.074   4.972  74.326  1.00  0.00    -0.114 C  
ENDBRANCH  56  58
ENDBRANCH  28  56
ENDBRANCH  15  25
BRANCH  15  60
HETATM   60  C   UNL     1     -11.963  12.605  67.059  1.00  0.00    -0.260 C  
HETATM   61  O   UNL     1     -11.711  11.507  66.559  1.00  0.00    -0.455 OA 
BRANCH  60  62
HETATM   62  O   UNL     1     -12.910  13.448  66.548  1.00  0.00    -0.108 OA 
HETATM   63  C   UNL     1     -12.988  13.509  65.108  1.00  0.00    -0.201 C  
ENDBRANCH  60  62
ENDBRANCH  15  60
ENDBRANCH   2   3
TORSDOF 10
ENDMDL
MODEL        7
REMARK 921   NORMALIZED FREE ENERGY PREDICTED BY IDOCK:   -4.35 KCAL/MOL
REMARK 922        TOTAL FREE ENERGY PREDICTED BY IDOCK:   -8.56 KCAL/MOL
REMARK 923 INTER-LIGAND FREE ENERGY PREDICTED BY IDOCK:   -7.49 KCAL/MOL
REMARK 924 INTRA-LIGAND FREE ENERGY PREDICTED BY IDOCK:   -1.07 KCAL/MOL
REMARK 927      BINDING AFFINITY PREDICTED BY RF-SCORE:    0.00 PKD
ROOT
HETATM    1  C   UNL     1      -9.560   4.956  66.464  1.00  0.00    -0.176 C  
HETATM    2  C   UNL     1      -8.877   3.691  66.984  1.00  0.00    -0.138 C  
ENDROOT
BRANCH   2   3
HETATM    3  C   UNL     1      -9.261   3.268  68.430  1.00  0.00    -0.178 C  
HETATM    4  C   UNL     1     -10.253   4.256  69.114  1.00  0.00     0.279 C  
HETATM    5  O   UNL     1      -9.905   1.985  68.352  1.00  0.00    -0.182 OA 
HETATM    6  C   UNL     1      -9.462   5.484  69.565  1.00  0.00    -0.185 C  
HETATM    7  H   UNL     1     -10.139   1.727  69.236  1.00  0.00     0.000 HD 
HETATM    8  C   UNL     1      -8.496   5.021  70.648  1.00  0.00    -0.106 C  
HETATM    9  N   UNL     1      -7.429   4.231  70.067  1.00  0.00    -0.049 NA 
HETATM   10  C   UNL     1      -6.361   4.989  69.386  1.00  0.00    -0.034 C  
HETATM   11  C   UNL     1      -7.965   3.077  69.317  1.00  0.00    -0.048 C  
HETATM   12  C   UNL     1      -6.173   6.505  69.712  1.00  0.00    -0.037 C  
HETATM   13  C   UNL     1      -6.975   7.404  68.800  1.00  0.00    -0.078 A  
HETATM   14  C   UNL     1      -8.245   7.984  68.952  1.00  0.00    -0.125 A  
HETATM   15  C   UNL     1      -9.338   8.040  70.105  1.00  0.00    -0.156 C  
HETATM   16  N   UNL     1      -8.559   8.541  67.724  1.00  0.00    -0.133 NA 
HETATM   17  H   UNL     1      -9.469   8.941  67.491  1.00  0.00     0.000 HD 
HETATM   18  C   UNL     1     -10.246   6.749  69.956  1.00  0.00    -0.211 C  
HETATM   19  C   UNL     1      -6.489   7.792  67.502  1.00  0.00    -0.055 A  
HETATM   20  C   UNL     1      -5.277   7.586  66.805  1.00  0.00    -0.023 A  
HETATM   21  C   UNL     1      -7.501   8.490  66.865  1.00  0.00    -0.084 A  
HETATM   22  C   UNL     1      -5.126   8.089  65.512  1.00  0.00    -0.028 A  
HETATM   23  C   UNL     1      -6.167   8.780  64.906  1.00  0.00    -0.065 A  
HETATM   24  C   UNL     1      -7.374   8.992  65.558  1.00  0.00    -0.085 A  
BRANCH  15  25
HETATM   25  C   UNL     1     -10.084   9.415  69.960  1.00  0.00    -0.259 A  
HETATM   26  O   UNL     1      -9.140  15.072  66.656  1.00  0.00    -0.246 OA 
HETATM   27  C   UNL     1     -11.906  11.077  70.140  1.00  0.00    -0.441 A  
HETATM   28  C   UNL     1      -9.556  15.218  68.018  1.00  0.00    -0.203 C  
HETATM   29  C   UNL     1     -11.344   9.809  70.466  1.00  0.00    -0.314 A  
HETATM   30  C   UNL     1      -8.321  15.474  68.946  1.00  0.00    -0.205 C  
HETATM   31  C   UNL     1      -7.788  12.817  68.470  1.00  0.00    -0.099 C  
HETATM   32  C   UNL     1     -11.203  11.961  69.336  1.00  0.00    -0.211 A  
HETATM   33  N   UNL     1     -11.437  13.337  68.986  1.00  0.00    -0.283 N  
HETATM   34  H   UNL     1      -8.825  15.888  66.287  1.00  0.00     0.000 HD 
HETATM   35  C   UNL     1      -7.255  14.246  68.990  1.00  0.00    -0.118 C  
HETATM   36  C   UNL     1     -12.356  14.088  69.703  1.00  0.00    -0.260 C  
HETATM   37  C   UNL     1     -10.082  13.854  68.634  1.00  0.00    -0.203 C  
HETATM   38  O   UNL     1     -13.150  13.705  70.553  1.00  0.00    -0.093 OA 
HETATM   39  C   UNL     1      -9.272  12.673  68.106  1.00  0.00    -0.209 C  
HETATM   40  C   UNL     1      -9.363  12.288  66.618  1.00  0.00    -0.228 C  
HETATM   41  C   UNL     1      -9.957  11.578  68.875  1.00  0.00    -0.117 A  
HETATM   42  C   UNL     1      -9.412  10.342  69.151  1.00  0.00    -0.220 A  
HETATM   43  C   UNL     1      -7.923  12.190  66.143  1.00  0.00     0.578 C  
HETATM   44  N   UNL     1      -7.131  12.116  67.357  1.00  0.00    -0.135 NA 
HETATM   45  C   UNL     1      -5.717  12.343  67.193  1.00  0.00    -0.062 C  
HETATM   46  C   UNL     1      -5.352  13.775  67.371  1.00  0.00     0.302 C  
HETATM   47  C   UNL     1      -5.999  14.606  68.201  1.00  0.00    -0.143 C  
BRANCH  29  48
HETATM   48  O   UNL     1     -11.963   8.965  71.349  1.00  0.00    -0.282 OA 
HETATM   49  C   UNL     1     -12.853   9.586  72.272  1.00  0.00    -0.346 C  
ENDBRANCH  29  48
BRANCH  35  50
HETATM   50  C   UNL     1      -7.002  14.133  70.553  1.00  0.00     0.517 C  
HETATM   51  C   UNL     1      -5.781  13.437  71.129  1.00  0.00    -0.140 C  
ENDBRANCH  35  50
BRANCH  30  52
HETATM   52  O   UNL     1      -7.721  16.768  69.244  1.00  0.00    -0.206 OA 
BRANCH  52  53
HETATM   53  C   UNL     1      -7.873  17.919  68.573  1.00  0.00    -0.298 C  
HETATM   54  C   UNL     1      -7.191  17.785  67.227  1.00  0.00    -0.199 C  
HETATM   55  O   UNL     1      -8.590  18.839  68.932  1.00  0.00    -0.297 OA 
ENDBRANCH  52  53
ENDBRANCH  30  52
BRANCH  28  56
HETATM   56  C   UNL     1     -10.621  16.308  68.081  1.00  0.00    -0.307 C  
HETATM   57  O   UNL     1     -11.087  16.792  69.102  1.00  0.00    -0.266 OA 
BRANCH  56  58
HETATM   58  O   UNL     1     -11.058  16.592  66.815  1.00  0.00    -0.007 OA 
HETATM   59  C   UNL     1     -10.918  17.950  66.390  1.00  0.00     0.266 C  
ENDBRANCH  56  58
ENDBRANCH  28  56
ENDBRANCH  15  25
BRANCH  15  60
HETATM   60  C   UNL     1      -8.602   8.117  71.504  1.00  0.00    -0.139 C  
HETATM   61  O   UNL     1      -7.764   8.968  71.808  1.00  0.00    -0.327 OA 
BRANCH  60  62
HETATM   62  O   UNL     1      -9.056   7.180  72.390  1.00  0.00    -0.131 OA 
HETATM   63  C   UNL     1      -9.094   7.589  73.773  1.00  0.00    -0.260 C  
ENDBRANCH  60  62
ENDBRANCH  15  60
ENDBRANCH   2   3
TORSDOF 10
ENDMDL
MODEL        8
REMARK 921   NORMALIZED FREE ENERGY PREDICTED BY IDOCK:   -3.59 KCAL/MOL
REMARK 922        TOTAL FREE ENERGY PREDICTED BY IDOCK:   -7.37 KCAL/MOL
REMARK 923 INTER-LIGAND FREE ENERGY PREDICTED BY IDOCK:   -7.50 KCAL/MOL
REMARK 924 INTRA-LIGAND FREE ENERGY PREDICTED BY IDOCK:    0.13 KCAL/MOL
REMARK 927      BINDING AFFINITY PREDICTED BY RF-SCORE:    0.00 PKD
ROOT
HETATM    1  C   UNL     1      -8.967  16.054  65.636  1.00  0.00     0.123 C  
HETATM    2  C   UNL     1      -7.604  16.347  66.263  1.00  0.00    -0.075 C  
ENDROOT
BRANCH   2   3
HETATM    3  C   UNL     1      -7.641  17.053  67.648  1.00  0.00    -0.165 C  
HETATM    4  C   UNL     1      -7.725  16.054  68.842  1.00  0.00    -0.196 C  
HETATM    5  O   UNL     1      -6.421  17.801  67.788  1.00  0.00    -0.176 OA 
HETATM    6  C   UNL     1      -9.165  15.550  68.937  1.00  0.00    -0.218 C  
HETATM    7  H   UNL     1      -6.444  18.233  68.634  1.00  0.00     0.000 HD 
HETATM    8  C   UNL     1     -10.033  16.745  69.310  1.00  0.00    -0.206 C  
HETATM    9  N   UNL     1     -10.154  17.650  68.184  1.00  0.00    -0.326 NA 
HETATM   10  C   UNL     1     -11.101  17.243  67.128  1.00  0.00     0.192 C  
HETATM   11  C   UNL     1      -8.829  18.095  67.710  1.00  0.00    -0.256 C  
HETATM   12  C   UNL     1     -12.211  16.194  67.458  1.00  0.00     1.319 C  
HETATM   13  C   UNL     1     -11.772  14.773  67.189  1.00  0.00    -0.351 A  
HETATM   14  C   UNL     1     -11.219  13.798  68.035  1.00  0.00    -0.267 A  
HETATM   15  C   UNL     1     -10.889  13.694  69.586  1.00  0.00     0.117 C  
HETATM   16  N   UNL     1     -10.828  12.757  67.211  1.00  0.00    -0.247 NA 
HETATM   17  H   UNL     1     -10.291  11.947  67.524  1.00  0.00     0.000 HD 
HETATM   18  C   UNL     1      -9.443  14.309  69.802  1.00  0.00     0.809 C  
HETATM   19  C   UNL     1     -11.848  14.195  65.874  1.00  0.00    -0.391 A  
HETATM   20  C   UNL     1     -12.357  14.639  64.634  1.00  0.00    -0.390 A  
HETATM   21  C   UNL     1     -11.248  12.948  65.928  1.00  0.00    -0.293 A  
HETATM   22  C   UNL     1     -12.253  13.822  63.507  1.00  0.00    -0.236 A  
HETATM   23  C   UNL     1     -11.640  12.579  63.602  1.00  0.00    -0.580 A  
HETATM   24  C   UNL     1     -11.119  12.116  64.802  1.00  0.00    -0.364 A  
BRANCH  15  25
HETATM   25  C   UNL     1     -11.050  12.184  69.988  1.00  0.00     0.307 A  
HETATM   26  O   UNL     1      -7.336   6.712  69.708  1.00  0.00    -0.081 OA 
HETATM   27  C   UNL     1     -12.022  10.174  71.052  1.00  0.00    -0.474 A  
HETATM   28  C   UNL     1      -8.704   6.548  69.318  1.00  0.00    -0.130 C  
HETATM   29  C   UNL     1     -12.102  11.550  70.688  1.00  0.00    -0.353 A  
HETATM   30  C   UNL     1      -8.844   6.614  67.760  1.00  0.00    -0.114 C  
HETATM   31  C   UNL     1      -8.353   9.296  68.129  1.00  0.00    -0.120 C  
HETATM   32  C   UNL     1     -10.910   9.427  70.696  1.00  0.00    -0.283 A  
HETATM   33  N   UNL     1     -10.633   8.017  70.778  1.00  0.00    -0.211 N  
HETATM   34  H   UNL     1      -6.801   5.967  69.463  1.00  0.00     0.000 HD 
HETATM   35  C   UNL     1      -8.422   8.047  67.114  1.00  0.00    -0.124 C  
HETATM   36  C   UNL     1     -11.665   7.120  71.010  1.00  0.00    -0.320 C  
HETATM   37  C   UNL     1      -9.598   7.792  69.726  1.00  0.00    -0.167 C  
HETATM   38  O   UNL     1     -12.826   7.362  71.312  1.00  0.00    -0.351 OA 
HETATM   39  C   UNL     1      -8.815   9.093  69.579  1.00  0.00    -0.149 C  
HETATM   40  C   UNL     1      -7.618   9.374  70.505  1.00  0.00    -0.162 C  
HETATM   41  C   UNL     1      -9.903  10.049  69.982  1.00  0.00    -0.247 A  
HETATM   42  C   UNL     1      -9.947  11.386  69.651  1.00  0.00     0.572 A  
HETATM   43  C   UNL     1      -6.478   9.761  69.577  1.00  0.00    -0.046 C  
HETATM   44  N   UNL     1      -7.114  10.067  68.308  1.00  0.00    -0.072 NA 
HETATM   45  C   UNL     1      -6.231  10.148  67.172  1.00  0.00    -0.062 C  
HETATM   46  C   UNL     1      -6.094   8.841  66.472  1.00  0.00    -0.057 C  
HETATM   47  C   UNL     1      -7.076   7.930  66.403  1.00  0.00    -0.071 C  
BRANCH  29  48
HETATM   48  O   UNL     1     -13.235  12.281  70.925  1.00  0.00     0.046 OA 
HETATM   49  C   UNL     1     -13.726  12.238  72.262  1.00  0.00    -0.093 C  
ENDBRANCH  29  48
BRANCH  35  50
HETATM   50  C   UNL     1      -9.636   8.290  66.121  1.00  0.00    -0.217 C  
HETATM   51  C   UNL     1     -10.804   9.194  66.476  1.00  0.00     0.231 C  
ENDBRANCH  35  50
BRANCH  30  52
HETATM   52  O   UNL     1      -8.698   5.500  66.833  1.00  0.00    -0.113 OA 
BRANCH  52  53
HETATM   53  C   UNL     1      -9.648   4.652  66.411  1.00  0.00    -0.183 C  
HETATM   54  C   UNL     1      -9.152   3.235  66.611  1.00  0.00    -0.180 C  
HETATM   55  O   UNL     1     -10.778   4.983  66.089  1.00  0.00    -0.315 OA 
ENDBRANCH  52  53
ENDBRANCH  30  52
BRANCH  28  56
HETATM   56  C   UNL     1      -9.227   5.255  69.937  1.00  0.00    -0.137 C  
HETATM   57  O   UNL     1     -10.267   4.689  69.633  1.00  0.00    -0.221 OA 
BRANCH  56  58
HETATM   58  O   UNL     1      -8.406   4.877  70.965  1.00  0.00    -0.103 OA 
HETATM   59  C   UNL     1      -8.127   3.478  71.066  1.00  0.00    -0.065 C  
ENDBRANCH  56  58
ENDBRANCH  28  56
ENDBRANCH  15  25
BRANCH  15  60
HETATM   60  C   UNL     1     -12.010  14.458  70.401  1.00  0.00    -0.325 C  
HETATM   61  O   UNL     1     -13.152  14.671  69.989  1.00  0.00    -0.078 OA 
BRANCH  60  62
HETATM   62  O   UNL     1     -11.607  14.793  71.664  1.00  0.00    -0.330 OA 
HETATM   63  C   UNL     1     -12.111  16.046  72.173  1.00  0.00    -0.526 C  
ENDBRANCH  60  62
ENDBRANCH  15  60
ENDBRANCH   2   3
TORSDOF 10
ENDMDL
MODEL        9
REMARK 921   NORMALIZED FREE ENERGY PREDICTED BY IDOCK:   -3.52 KCAL/MOL
REMARK 922        TOTAL FREE ENERGY PREDICTED BY IDOCK:   -7.25 KCAL/MOL
REMARK 923 INTER-LIGAND FREE ENERGY PREDICTED BY IDOCK:   -7.58 KCAL/MOL
REMARK 924 INTRA-LIGAND FREE ENERGY PREDICTED BY IDOCK:    0.34 KCAL/MOL
REMARK 927      BINDING AFFINITY PREDICTED BY RF-SCORE:    0.00 PKD
ROOT
HETATM    1  C   UNL     1      -9.493  15.262  65.333  1.00  0.00    -0.015 C  
HETATM    2  C   UNL     1      -8.456  15.787  66.326  1.00  0.00    -0.245 C  
ENDROOT
BRANCH   2   3
HETATM    3  C   UNL     1      -9.031  16.389  67.639  1.00  0.00    -0.196 C  
HETATM    4  C   UNL     1      -8.850  15.452  68.873  1.00  0.00    -0.211 C  
HETATM    5  O   UNL     1      -8.317  17.608  67.908  1.00  0.00    -0.225 OA 
HETATM    6  C   UNL     1      -9.905  14.349  68.786  1.00  0.00    -0.214 C  
HETATM    7  H   UNL     1      -8.668  17.976  68.710  1.00  0.00     0.000 HD 
HETATM    8  C   UNL     1     -11.265  15.018  68.945  1.00  0.00    -0.277 C  
HETATM    9  N   UNL     1     -11.594  15.777  67.755  1.00  0.00    -0.180 NA 
HETATM   10  C   UNL     1     -12.072  14.993  66.600  1.00  0.00     0.148 C  
HETATM   11  C   UNL     1     -10.552  16.779  67.455  1.00  0.00    -0.291 C  
HETATM   12  C   UNL     1     -12.630  13.552  66.832  1.00  0.00     0.035 C  
HETATM   13  C   UNL     1     -11.563  12.487  66.727  1.00  0.00    -0.446 A  
HETATM   14  C   UNL     1     -10.777  11.863  67.709  1.00  0.00    -0.207 A  
HETATM   15  C   UNL     1     -10.692  11.908  69.296  1.00  0.00    -0.095 C  
HETATM   16  N   UNL     1      -9.831  11.118  67.024  1.00  0.00    -0.183 NA 
HETATM   17  H   UNL     1      -9.048  10.638  67.468  1.00  0.00     0.000 HD 
HETATM   18  C   UNL     1      -9.733  13.110  69.682  1.00  0.00     1.517 C  
HETATM   19  C   UNL     1     -11.156  11.947  65.457  1.00  0.00    -0.356 A  
HETATM   20  C   UNL     1     -11.601  12.121  64.128  1.00  0.00    -0.467 A  
HETATM   21  C   UNL     1     -10.078  11.107  65.684  1.00  0.00    -0.253 A  
HETATM   22  C   UNL     1     -10.959  11.448  63.087  1.00  0.00    -0.129 A  
HETATM   23  C   UNL     1      -9.878  10.618  63.355  1.00  0.00    -0.376 A  
HETATM   24  C   UNL     1      -9.408  10.433  64.648  1.00  0.00    -0.304 A  
BRANCH  15  25
HETATM   25  C   UNL     1     -10.222  10.486  69.770  1.00  0.00    -0.168 A  
HETATM   26  O   UNL     1      -5.434   6.217  68.140  1.00  0.00    -0.004 OA 
HETATM   27  C   UNL     1     -10.052   8.472  71.194  1.00  0.00    -0.263 A  
HETATM   28  C   UNL     1      -6.727   5.639  68.350  1.00  0.00    -0.057 C  
HETATM   29  C   UNL     1     -10.679   9.707  70.857  1.00  0.00    -0.332 A  
HETATM   30  C   UNL     1      -7.468   5.434  66.986  1.00  0.00    -0.088 C  
HETATM   31  C   UNL     1      -7.710   8.175  67.047  1.00  0.00    -0.096 C  
HETATM   32  C   UNL     1      -8.993   8.001  70.434  1.00  0.00    -0.146 A  
HETATM   33  N   UNL     1      -8.293   6.744  70.433  1.00  0.00    -0.128 N  
HETATM   34  H   UNL     1      -4.836   5.613  67.717  1.00  0.00     0.000 HD 
HETATM   35  C   UNL     1      -7.782   6.816  66.185  1.00  0.00    -0.091 C  
HETATM   36  C   UNL     1      -8.833   5.651  71.093  1.00  0.00    -0.135 C  
HETATM   37  C   UNL     1      -7.727   6.648  69.056  1.00  0.00    -0.109 C  
HETATM   38  O   UNL     1      -9.804   5.618  71.839  1.00  0.00    -0.162 OA 
HETATM   39  C   UNL     1      -7.494   8.074  68.564  1.00  0.00    -0.102 C  
HETATM   40  C   UNL     1      -6.179   8.796  68.908  1.00  0.00    -0.044 C  
HETATM   41  C   UNL     1      -8.577   8.756  69.352  1.00  0.00    -0.133 A  
HETATM   42  C   UNL     1      -9.148   9.969  69.032  1.00  0.00    -0.172 A  
HETATM   43  C   UNL     1      -5.659   9.330  67.583  1.00  0.00    -0.038 C  
HETATM   44  N   UNL     1      -6.794   9.265  66.681  1.00  0.00    -0.079 NA 
HETATM   45  C   UNL     1      -6.484   9.407  65.280  1.00  0.00    -0.074 C  
HETATM   46  C   UNL     1      -6.237   8.095  64.622  1.00  0.00    -0.056 C  
HETATM   47  C   UNL     1      -6.845   6.956  64.987  1.00  0.00    -0.051 C  
BRANCH  29  48
HETATM   48  O   UNL     1     -11.798  10.138  71.519  1.00  0.00    -0.362 OA 
HETATM   49  C   UNL     1     -12.746   9.126  71.847  1.00  0.00    -0.389 C  
ENDBRANCH  29  48
BRANCH  35  50
HETATM   50  C   UNL     1      -9.295   6.578  65.772  1.00  0.00     0.115 C  
HETATM   51  C   UNL     1     -10.454   7.091  66.611  1.00  0.00    -0.209 C  
ENDBRANCH  35  50
BRANCH  30  52
HETATM   52  O   UNL     1      -7.360   4.274  66.112  1.00  0.00    -0.074 OA 
BRANCH  52  53
HETATM   53  C   UNL     1      -8.355   3.531  65.605  1.00  0.00    -0.106 C  
HETATM   54  C   UNL     1      -8.095   3.323  64.127  1.00  0.00    -0.082 C  
HETATM   55  O   UNL     1      -9.216   2.981  66.273  1.00  0.00    -0.153 OA 
ENDBRANCH  52  53
ENDBRANCH  30  52
BRANCH  28  56
HETATM   56  C   UNL     1      -6.554   4.361  69.165  1.00  0.00    -0.041 C  
HETATM   57  O   UNL     1      -7.364   3.448  69.239  1.00  0.00    -0.048 OA 
BRANCH  56  58
HETATM   58  O   UNL     1      -5.396   4.435  69.891  1.00  0.00    -0.007 OA 
HETATM   59  C   UNL     1      -5.498   4.094  71.276  1.00  0.00    -0.008 C  
ENDBRANCH  56  58
ENDBRANCH  28  56
ENDBRANCH  15  25
BRANCH  15  60
HETATM   60  C   UNL     1     -12.153  12.074  69.882  1.00  0.00    -0.263 C  
HETATM   61  O   UNL     1     -13.126  11.400  69.538  1.00  0.00     0.310 OA 
BRANCH  60  62
HETATM   62  O   UNL     1     -12.216  13.000  70.886  1.00  0.00    -0.354 OA 
HETATM   63  C   UNL     1     -13.281  12.819  71.843  1.00  0.00    -0.412 C  
ENDBRANCH  60  62
ENDBRANCH  15  60
ENDBRANCH   2   3
TORSDOF 10
ENDMDL
MODEL       10
REMARK 921   NORMALIZED FREE ENERGY PREDICTED BY IDOCK:   -3.50 KCAL/MOL
REMARK 922        TOTAL FREE ENERGY PREDICTED BY IDOCK:   -7.22 KCAL/MOL
REMARK 923 INTER-LIGAND FREE ENERGY PREDICTED BY IDOCK:   -6.89 KCAL/MOL
REMARK 924 INTRA-LIGAND FREE ENERGY PREDICTED BY IDOCK:   -0.32 KCAL/MOL
REMARK 927      BINDING AFFINITY PREDICTED BY RF-SCORE:    0.00 PKD
ROOT
HETATM    1  C   UNL     1      -8.943   3.359  70.020  1.00  0.00    -0.170 C  
HETATM    2  C   UNL     1      -7.525   3.874  69.774  1.00  0.00    -0.052 C  
ENDROOT
BRANCH   2   3
HETATM    3  C   UNL     1      -7.050   3.849  68.294  1.00  0.00    -0.051 C  
HETATM    4  C   UNL     1      -6.361   5.175  67.849  1.00  0.00    -0.040 C  
HETATM    5  O   UNL     1      -6.085   2.790  68.165  1.00  0.00    -0.024 OA 
HETATM    6  C   UNL     1      -7.454   6.213  67.595  1.00  0.00    -0.088 C  
HETATM    7  H   UNL     1      -5.795   2.774  67.261  1.00  0.00     0.000 HD 
HETATM    8  C   UNL     1      -8.266   5.725  66.402  1.00  0.00    -0.107 C  
HETATM    9  N   UNL     1      -9.080   4.586  66.780  1.00  0.00    -0.118 NA 
HETATM   10  C   UNL     1     -10.308   4.893  67.539  1.00  0.00    -0.043 C  
HETATM   11  C   UNL     1      -8.251   3.495  67.329  1.00  0.00    -0.090 C  
HETATM   12  C   UNL     1     -10.897   6.340  67.487  1.00  0.00    -0.436 C  
HETATM   13  C   UNL     1     -10.360   7.229  68.585  1.00  0.00    -0.208 A  
HETATM   14  C   UNL     1      -9.292   8.141  68.600  1.00  0.00    -0.143 A  
HETATM   15  C   UNL     1      -8.259   8.700  67.528  1.00  0.00    -0.110 C  
HETATM   16  N   UNL     1      -9.132   8.519  69.922  1.00  0.00    -0.148 NA 
HETATM   17  H   UNL     1      -8.361   9.092  70.266  1.00  0.00     0.000 HD 
HETATM   18  C   UNL     1      -7.038   7.690  67.479  1.00  0.00    -0.086 C  
HETATM   19  C   UNL     1     -10.925   7.223  69.908  1.00  0.00    -0.262 A  
HETATM   20  C   UNL     1     -12.034   6.577  70.499  1.00  0.00    -0.322 A  
HETATM   21  C   UNL     1     -10.133   8.030  70.708  1.00  0.00    -0.192 A  
HETATM   22  C   UNL     1     -12.309   6.769  71.854  1.00  0.00    -0.369 A  
HETATM   23  C   UNL     1     -11.487   7.583  72.623  1.00  0.00    -0.369 A  
HETATM   24  C   UNL     1     -10.384   8.224  72.078  1.00  0.00    -0.350 A  
BRANCH  15  25
HETATM   25  C   UNL     1      -7.907  10.170  67.957  1.00  0.00    -0.096 A  
HETATM   26  O   UNL     1     -11.163  15.893  68.623  1.00  0.00    -0.318 OA 
HETATM   27  C   UNL     1      -6.599  12.042  68.903  1.00  0.00    -0.089 A  
HETATM   28  C   UNL     1      -9.883  15.985  67.988  1.00  0.00    -0.222 C  
HETATM   29  C   UNL     1      -6.696  10.688  68.471  1.00  0.00    -0.056 A  
HETATM   30  C   UNL     1     -10.040  15.998  66.430  1.00  0.00    -0.300 C  
HETATM   31  C   UNL     1     -10.665  13.340  66.769  1.00  0.00    -0.276 C  
HETATM   32  C   UNL     1      -7.694  12.885  68.797  1.00  0.00     0.007 A  
HETATM   33  N   UNL     1      -7.839  14.303  68.991  1.00  0.00    -0.091 N  
HETATM   34  H   UNL     1     -11.674  16.687  68.516  1.00  0.00     0.000 HD 
HETATM   35  C   UNL     1     -10.687  14.638  65.815  1.00  0.00    -0.321 C  
HETATM   36  C   UNL     1      -6.714  15.111  69.062  1.00  0.00    -0.120 C  
HETATM   37  C   UNL     1      -9.030  14.660  68.165  1.00  0.00    -0.179 C  
HETATM   38  O   UNL     1      -5.540  14.772  69.127  1.00  0.00    -0.094 OA 
HETATM   39  C   UNL     1      -9.927  13.427  68.112  1.00  0.00    -0.237 C  
HETATM   40  C   UNL     1     -10.950  13.178  69.235  1.00  0.00    -0.131 C  
HETATM   41  C   UNL     1      -8.863  12.376  68.261  1.00  0.00    -0.174 A  
HETATM   42  C   UNL     1      -8.987  11.060  67.870  1.00  0.00    -0.144 A  
HETATM   43  C   UNL     1     -12.269  12.925  68.525  1.00  0.00     0.037 C  
HETATM   44  N   UNL     1     -11.906  12.648  67.147  1.00  0.00    -0.432 NA 
HETATM   45  C   UNL     1     -12.989  12.695  66.196  1.00  0.00     1.560 C  
HETATM   46  C   UNL     1     -13.150  14.046  65.592  1.00  0.00    -0.189 C  
HETATM   47  C   UNL     1     -12.129  14.888  65.377  1.00  0.00    -0.076 C  
BRANCH  29  48
HETATM   48  O   UNL     1      -5.600   9.867  68.457  1.00  0.00    -0.039 OA 
HETATM   49  C   UNL     1      -5.133   9.444  69.735  1.00  0.00    -0.034 C  
ENDBRANCH  29  48
BRANCH  35  50
HETATM   50  C   UNL     1      -9.702  14.368  64.600  1.00  0.00     0.780 C  
HETATM   51  C   UNL     1      -9.684  13.048  63.848  1.00  0.00     0.786 C  
ENDBRANCH  35  50
BRANCH  30  52
HETATM   52  O   UNL     1     -10.267  17.171  65.596  1.00  0.00    -0.564 OA 
BRANCH  52  53
HETATM   53  C   UNL     1      -9.782  18.410  65.770  1.00  0.00     0.252 C  
HETATM   54  C   UNL     1     -10.939  19.345  66.051  1.00  0.00    -0.255 C  
HETATM   55  O   UNL     1      -8.595  18.681  65.857  1.00  0.00    -0.488 OA 
ENDBRANCH  52  53
ENDBRANCH  30  52
BRANCH  28  56
HETATM   56  C   UNL     1      -9.153  17.200  68.552  1.00  0.00    -0.265 C  
HETATM   57  O   UNL     1      -7.954  17.419  68.457  1.00  0.00    -0.249 OA 
BRANCH  56  58
HETATM   58  O   UNL     1     -10.030  17.963  69.276  1.00  0.00    -0.248 OA 
HETATM   59  C   UNL     1      -9.729  19.358  69.361  1.00  0.00    -0.146 C  
ENDBRANCH  56  58
ENDBRANCH  28  56
ENDBRANCH  15  25
BRANCH  15  60
HETATM   60  C   UNL     1      -8.996   8.844  66.135  1.00  0.00    -0.178 C  
HETATM   61  O   UNL     1     -10.179   9.156  65.998  1.00  0.00    -0.256 OA 
BRANCH  60  62
HETATM   62  O   UNL     1      -8.153   8.665  65.073  1.00  0.00    -0.126 OA 
HETATM   63  C   UNL     1      -7.769   9.863  64.366  1.00  0.00    -0.142 C  
ENDBRANCH  60  62
ENDBRANCH  15  60
ENDBRANCH   2   3
TORSDOF 10
ENDMDL
MODEL       11
REMARK 921   NORMALIZED FREE ENERGY PREDICTED BY IDOCK:   -3.20 KCAL/MOL
REMARK 922        TOTAL FREE ENERGY PREDICTED BY IDOCK:   -6.75 KCAL/MOL
REMARK 923 INTER-LIGAND FREE ENERGY PREDICTED BY IDOCK:   -8.25 KCAL/MOL
REMARK 924 INTRA-LIGAND FREE ENERGY PREDICTED BY IDOCK:    1.50 KCAL/MOL
REMARK 927      BINDING AFFINITY PREDICTED BY RF-SCORE:    0.00 PKD
ROOT
HETATM    1  C   UNL     1     -12.402  15.169  66.801  1.00  0.00     0.629 C  
HETATM    2  C   UNL     1     -13.047  14.460  65.610  1.00  0.00     0.061 C  
ENDROOT
BRANCH   2   3
HETATM    3  C   UNL     1     -12.064  13.735  64.649  1.00  0.00    -0.421 C  
HETATM    4  C   UNL     1     -11.868  12.227  64.996  1.00  0.00    -0.412 C  
HETATM    5  O   UNL     1     -12.615  13.810  63.323  1.00  0.00    -1.005 OA 
HETATM    6  C   UNL     1     -10.931  12.137  66.200  1.00  0.00    -0.335 C  
HETATM    7  H   UNL     1     -12.014  13.368  62.736  1.00  0.00     0.000 HD 
HETATM    8  C   UNL     1      -9.573  12.658  65.749  1.00  0.00    -0.110 C  
HETATM    9  N   UNL     1      -9.619  14.096  65.571  1.00  0.00    -0.114 NA 
HETATM   10  C   UNL     1      -9.561  14.902  66.806  1.00  0.00    -0.251 C  
HETATM   11  C   UNL     1     -10.671  14.482  64.609  1.00  0.00    -0.310 C  
HETATM   12  C   UNL     1      -9.002  14.257  68.115  1.00  0.00    -0.189 C  
HETATM   13  C   UNL     1     -10.079  13.607  68.952  1.00  0.00    -0.049 A  
HETATM   14  C   UNL     1     -10.528  12.277  69.015  1.00  0.00    -0.015 A  
HETATM   15  C   UNL     1     -10.098  10.900  68.348  1.00  0.00    -0.196 C  
HETATM   16  N   UNL     1     -11.666  12.296  69.804  1.00  0.00    -0.416 NA 
HETATM   17  H   UNL     1     -12.280  11.494  69.944  1.00  0.00     0.000 HD 
HETATM   18  C   UNL     1     -10.846  10.798  66.953  1.00  0.00    -0.288 C  
HETATM   19  C   UNL     1     -10.889  14.367  69.867  1.00  0.00    -0.030 A  
HETATM   20  C   UNL     1     -10.887  15.714  70.292  1.00  0.00    -0.366 A  
HETATM   21  C   UNL     1     -11.863  13.520  70.370  1.00  0.00    -0.220 A  
HETATM   22  C   UNL     1     -11.850  16.155  71.202  1.00  0.00    -0.411 A  
HETATM   23  C   UNL     1     -12.813  15.276  71.680  1.00  0.00    -0.469 A  
HETATM   24  C   UNL     1     -12.849  13.949  71.275  1.00  0.00    -0.435 A  
BRANCH  15  25
HETATM   25  C   UNL     1     -10.435   9.766  69.382  1.00  0.00    -0.241 A  
HETATM   26  O   UNL     1      -7.115   4.969  72.508  1.00  0.00    -0.076 OA 
HETATM   27  C   UNL     1     -11.726   8.489  71.060  1.00  0.00    -0.310 A  
HETATM   28  C   UNL     1      -8.390   4.590  71.980  1.00  0.00    -0.112 C  
HETATM   29  C   UNL     1     -11.642   9.514  70.074  1.00  0.00    -0.048 A  
HETATM   30  C   UNL     1      -8.225   3.891  70.589  1.00  0.00    -0.065 C  
HETATM   31  C   UNL     1      -7.634   6.433  69.717  1.00  0.00    -0.093 C  
HETATM   32  C   UNL     1     -10.620   7.700  71.337  1.00  0.00    -0.213 A  
HETATM   33  N   UNL     1     -10.459   6.516  72.138  1.00  0.00    -0.203 N  
HETATM   34  H   UNL     1      -6.594   4.217  72.763  1.00  0.00     0.000 HD 
HETATM   35  C   UNL     1      -7.591   4.848  69.435  1.00  0.00    -0.060 C  
HETATM   36  C   UNL     1     -11.575   5.808  72.560  1.00  0.00    -0.267 C  
HETATM   37  C   UNL     1      -9.260   5.846  71.554  1.00  0.00    -0.146 C  
HETATM   38  O   UNL     1     -12.754   6.126  72.469  1.00  0.00    -0.002 OA 
HETATM   39  C   UNL     1      -8.377   6.940  70.961  1.00  0.00    -0.126 C  
HETATM   40  C   UNL     1      -7.363   7.673  71.857  1.00  0.00    -0.070 C  
HETATM   41  C   UNL     1      -9.455   7.935  70.630  1.00  0.00    -0.162 A  
HETATM   42  C   UNL     1      -9.344   8.943  69.697  1.00  0.00    -0.163 A  
HETATM   43  C   UNL     1      -6.043   7.603  71.107  1.00  0.00    -0.035 C  
HETATM   44  N   UNL     1      -6.403   7.237  69.749  1.00  0.00    -0.034 NA 
HETATM   45  C   UNL     1      -5.315   6.789  68.916  1.00  0.00    -0.016 C  
HETATM   46  C   UNL     1      -5.135   5.312  68.972  1.00  0.00     0.000 C  
HETATM   47  C   UNL     1      -6.145   4.448  69.152  1.00  0.00    -0.027 C  
BRANCH  29  48
HETATM   48  O   UNL     1     -12.748  10.229  69.699  1.00  0.00    -0.012 OA 
HETATM   49  C   UNL     1     -13.820  10.240  70.637  1.00  0.00     0.753 C  
ENDBRANCH  29  48
BRANCH  35  50
HETATM   50  C   UNL     1      -8.574   4.540  68.227  1.00  0.00    -0.107 C  
HETATM   51  C   UNL     1      -9.077   5.628  67.294  1.00  0.00    -0.110 C  
ENDBRANCH  35  50
BRANCH  30  52
HETATM   52  O   UNL     1      -7.980   2.474  70.360  1.00  0.00    -0.042 OA 
BRANCH  52  53
HETATM   53  C   UNL     1      -6.892   1.763  70.691  1.00  0.00    -0.032 C  
HETATM   54  C   UNL     1      -6.093   1.492  69.434  1.00  0.00    -0.024 C  
HETATM   55  O   UNL     1      -6.537   1.537  71.837  1.00  0.00    -0.014 OA 
ENDBRANCH  52  53
ENDBRANCH  30  52
BRANCH  28  56
HETATM   56  C   UNL     1      -9.109   3.740  73.024  1.00  0.00    -0.099 C  
HETATM   57  O   UNL     1     -10.292   3.433  73.002  1.00  0.00    -0.151 OA 
BRANCH  56  58
HETATM   58  O   UNL     1      -8.250   3.458  74.052  1.00  0.00    -0.073 OA 
HETATM   59  C   UNL     1      -8.206   2.095  74.481  1.00  0.00    -0.057 C  
ENDBRANCH  56  58
ENDBRANCH  28  56
ENDBRANCH  15  25
BRANCH  15  60
HETATM   60  C   UNL     1      -8.523  10.870  68.206  1.00  0.00    -0.134 C  
HETATM   61  O   UNL     1      -7.736  11.325  69.038  1.00  0.00    -0.135 OA 
BRANCH  60  62
HETATM   62  O   UNL     1      -8.108  10.203  67.086  1.00  0.00    -0.119 OA 
HETATM   63  C   UNL     1      -6.754   9.702  67.118  1.00  0.00    -0.075 C  
ENDBRANCH  60  62
ENDBRANCH  15  60
ENDBRANCH   2   3
TORSDOF 10
ENDMDL
MODEL       12
REMARK 921   NORMALIZED FREE ENERGY PREDICTED BY IDOCK:   -2.93 KCAL/MOL
REMARK 922        TOTAL FREE ENERGY PREDICTED BY IDOCK:   -6.32 KCAL/MOL
REMARK 923 INTER-LIGAND FREE ENERGY PREDICTED BY IDOCK:   -5.60 KCAL/MOL
REMARK 924 INTRA-LIGAND FREE ENERGY PREDICTED BY IDOCK:   -0.72 KCAL/MOL
REMARK 927      BINDING AFFINITY PREDICTED BY RF-SCORE:    0.00 PKD
ROOT
HETATM    1  C   UNL     1     -11.404  17.464  68.395  1.00  0.00     0.432 C  
HETATM    2  C   UNL     1     -11.645  17.314  66.893  1.00  0.00     1.369 C  
ENDROOT
BRANCH   2   3
HETATM    3  C   UNL     1     -10.365  17.235  66.014  1.00  0.00    -0.305 C  
HETATM    4  C   UNL     1     -10.089  15.803  65.462  1.00  0.00    -0.383 C  
HETATM    5  O   UNL     1     -10.557  18.108  64.887  1.00  0.00    -0.209 OA 
HETATM    6  C   UNL     1      -9.495  14.967  66.596  1.00  0.00    -0.286 C  
HETATM    7  H   UNL     1      -9.775  18.060  64.350  1.00  0.00     0.000 HD 
HETATM    8  C   UNL     1      -8.138  15.571  66.933  1.00  0.00    -0.249 C  
HETATM    9  N   UNL     1      -8.307  16.839  67.615  1.00  0.00    -0.181 NA 
HETATM   10  C   UNL     1      -8.670  16.761  69.044  1.00  0.00    -0.176 C  
HETATM   11  C   UNL     1      -9.110  17.778  66.807  1.00  0.00    -0.262 C  
HETATM   12  C   UNL     1      -8.400  15.438  69.830  1.00  0.00    -0.006 C  
HETATM   13  C   UNL     1      -9.572  14.485  69.792  1.00  0.00     0.478 A  
HETATM   14  C   UNL     1      -9.859  13.402  68.945  1.00  0.00     0.087 A  
HETATM   15  C   UNL     1      -9.109  12.656  67.758  1.00  0.00    -0.192 C  
HETATM   16  N   UNL     1     -11.157  13.021  69.241  1.00  0.00    -0.421 NA 
HETATM   17  H   UNL     1     -11.687  12.328  68.712  1.00  0.00     0.000 HD 
HETATM   18  C   UNL     1      -9.449  13.439  66.422  1.00  0.00    -0.230 C  
HETATM   19  C   UNL     1     -10.677  14.608  70.706  1.00  0.00     0.372 A  
HETATM   20  C   UNL     1     -10.948  15.445  71.811  1.00  0.00    -0.095 A  
HETATM   21  C   UNL     1     -11.640  13.688  70.328  1.00  0.00    -0.092 A  
HETATM   22  C   UNL     1     -12.160  15.324  72.493  1.00  0.00    -0.505 A  
HETATM   23  C   UNL     1     -13.102  14.391  72.080  1.00  0.00    -0.444 A  
HETATM   24  C   UNL     1     -12.872  13.560  70.992  1.00  0.00    -0.343 A  
BRANCH  15  25
HETATM   25  C   UNL     1      -9.567  11.154  67.800  1.00  0.00    -0.180 A  
HETATM   26  O   UNL     1      -8.601   5.945  71.767  1.00  0.00    -0.130 OA 
HETATM   27  C   UNL     1     -10.857   9.122  67.233  1.00  0.00    -0.121 A  
HETATM   28  C   UNL     1      -8.520   5.672  70.365  1.00  0.00    -0.127 C  
HETATM   29  C   UNL     1     -10.491  10.475  66.974  1.00  0.00    -0.249 A  
HETATM   30  C   UNL     1      -7.028   5.672  69.889  1.00  0.00    -0.062 C  
HETATM   31  C   UNL     1      -7.227   8.394  70.245  1.00  0.00    -0.044 C  
HETATM   32  C   UNL     1     -10.284   8.441  68.296  1.00  0.00    -0.205 A  
HETATM   33  N   UNL     1     -10.333   7.057  68.689  1.00  0.00    -0.180 N  
HETATM   34  H   UNL     1      -8.262   5.230  72.292  1.00  0.00     0.000 HD 
HETATM   35  C   UNL     1      -6.277   7.107  70.054  1.00  0.00    -0.027 C  
HETATM   36  C   UNL     1     -10.801   6.101  67.801  1.00  0.00    -0.325 C  
HETATM   37  C   UNL     1      -9.087   6.866  69.488  1.00  0.00    -0.142 C  
HETATM   38  O   UNL     1     -11.342   6.273  66.716  1.00  0.00    -0.229 OA 
HETATM   39  C   UNL     1      -8.747   8.212  70.121  1.00  0.00    -0.130 C  
HETATM   40  C   UNL     1      -9.385   8.608  71.465  1.00  0.00    -0.319 C  
HETATM   41  C   UNL     1      -9.357   9.105  69.077  1.00  0.00    -0.151 A  
HETATM   42  C   UNL     1      -9.015  10.423  68.862  1.00  0.00    -0.170 A  
HETATM   43  C   UNL     1      -8.225   9.039  72.346  1.00  0.00     0.511 C  
HETATM   44  N   UNL     1      -7.119   9.254  71.432  1.00  0.00    -0.309 NA 
HETATM   45  C   UNL     1      -5.816   9.354  72.043  1.00  0.00     0.010 C  
HETATM   46  C   UNL     1      -5.131   8.036  72.124  1.00  0.00    -0.035 C  
HETATM   47  C   UNL     1      -5.294   7.058  71.221  1.00  0.00    -0.027 C  
BRANCH  29  48
HETATM   48  O   UNL     1     -10.952  11.134  65.866  1.00  0.00    -0.213 OA 
HETATM   49  C   UNL     1     -10.610  10.547  64.614  1.00  0.00     0.029 C  
ENDBRANCH  29  48
BRANCH  35  50
HETATM   50  C   UNL     1      -5.566   7.230  68.640  1.00  0.00    -0.022 C  
HETATM   51  C   UNL     1      -5.954   8.294  67.628  1.00  0.00    -0.047 C  
ENDBRANCH  35  50
BRANCH  30  52
HETATM   52  O   UNL     1      -6.114   4.538  69.915  1.00  0.00    -0.017 OA 
BRANCH  52  53
HETATM   53  C   UNL     1      -6.304   3.343  70.493  1.00  0.00    -0.027 C  
HETATM   54  C   UNL     1      -6.164   3.505  71.993  1.00  0.00    -0.014 C  
HETATM   55  O   UNL     1      -6.696   2.346  69.907  1.00  0.00    -0.032 OA 
ENDBRANCH  52  53
ENDBRANCH  30  52
BRANCH  28  56
HETATM   56  C   UNL     1      -9.264   4.370  70.085  1.00  0.00    -0.132 C  
HETATM   57  O   UNL     1      -9.596   3.961  68.981  1.00  0.00    -0.175 OA 
BRANCH  56  58
HETATM   58  O   UNL     1      -9.601   3.773  71.270  1.00  0.00    -0.150 OA 
HETATM   59  C   UNL     1      -9.906   2.378  71.208  1.00  0.00    -0.066 C  
ENDBRANCH  56  58
ENDBRANCH  28  56
ENDBRANCH  15  25
BRANCH  15  60
HETATM   60  C   UNL     1      -7.559  12.622  68.074  1.00  0.00    -0.132 C  
HETATM   61  O   UNL     1      -7.070  12.771  69.196  1.00  0.00    -0.068 OA 
BRANCH  60  62
HETATM   62  O   UNL     1      -6.804  12.324  66.974  1.00  0.00    -0.125 OA 
HETATM   63  C   UNL     1      -5.413  12.033  67.227  1.00  0.00    -0.128 C  
ENDBRANCH  60  62
ENDBRANCH  15  60
ENDBRANCH   2   3
TORSDOF 10
ENDMDL
MODEL       13
REMARK 921   NORMALIZED FREE ENERGY PREDICTED BY IDOCK:   -2.77 KCAL/MOL
REMARK 922        TOTAL FREE ENERGY PREDICTED BY IDOCK:   -6.07 KCAL/MOL
REMARK 923 INTER-LIGAND FREE ENERGY PREDICTED BY IDOCK:   -6.76 KCAL/MOL
REMARK 924 INTRA-LIGAND FREE ENERGY PREDICTED BY IDOCK:    0.69 KCAL/MOL
REMARK 927      BINDING AFFINITY PREDICTED BY RF-SCORE:    0.00 PKD
ROOT
HETATM    1  C   UNL     1      -8.736   5.349  62.628  1.00  0.00    -0.021 C  
HETATM    2  C   UNL     1      -9.058   5.663  64.089  1.00  0.00     0.497 C  
ENDROOT
BRANCH   2   3
HETATM    3  C   UNL     1      -9.677   4.494  64.906  1.00  0.00    -0.097 C  
HETATM    4  C   UNL     1     -10.776   4.960  65.908  1.00  0.00    -0.233 C  
HETATM    5  O   UNL     1     -10.292   3.589  63.972  1.00  0.00    -0.208 OA 
HETATM    6  C   UNL     1     -10.078   5.582  67.118  1.00  0.00    -0.220 C  
HETATM    7  H   UNL     1     -10.670   2.874  64.471  1.00  0.00     0.000 HD 
HETATM    8  C   UNL     1      -9.306   4.466  67.810  1.00  0.00    -0.153 C  
HETATM    9  N   UNL     1      -8.151   4.088  67.019  1.00  0.00    -0.096 NA 
HETATM   10  C   UNL     1      -6.989   4.993  67.097  1.00  0.00    -0.061 C  
HETATM   11  C   UNL     1      -8.548   3.680  65.656  1.00  0.00    -0.113 C  
HETATM   12  C   UNL     1      -6.866   5.978  68.305  1.00  0.00    -0.070 C  
HETATM   13  C   UNL     1      -7.509   7.319  68.034  1.00  0.00    -0.102 A  
HETATM   14  C   UNL     1      -8.790   7.810  68.334  1.00  0.00    -0.130 A  
HETATM   15  C   UNL     1     -10.061   7.266  69.118  1.00  0.00    -0.183 C  
HETATM   16  N   UNL     1      -8.896   9.023  67.675  1.00  0.00    -0.124 NA 
HETATM   17  H   UNL     1      -9.756   9.569  67.614  1.00  0.00     0.000 HD 
HETATM   18  C   UNL     1     -10.924   6.424  68.089  1.00  0.00    -0.393 C  
HETATM   19  C   UNL     1      -6.814   8.361  67.326  1.00  0.00    -0.070 A  
HETATM   20  C   UNL     1      -5.502   8.499  66.822  1.00  0.00    -0.036 A  
HETATM   21  C   UNL     1      -7.710   9.397  67.119  1.00  0.00    -0.091 A  
HETATM   22  C   UNL     1      -5.138   9.663  66.143  1.00  0.00    -0.035 A  
HETATM   23  C   UNL     1      -6.067  10.678  65.952  1.00  0.00    -0.138 A  
HETATM   24  C   UNL     1      -7.367  10.570  66.424  1.00  0.00    -0.129 A  
BRANCH  15  25
HETATM   25  C   UNL     1     -10.781   8.514  69.745  1.00  0.00    -0.213 A  
HETATM   26  O   UNL     1     -12.356  14.637  67.785  1.00  0.00    -0.602 OA 
HETATM   27  C   UNL     1     -12.135   9.834  71.338  1.00  0.00    -0.486 A  
HETATM   28  C   UNL     1     -11.819  14.534  69.108  1.00  0.00    -0.319 C  
HETATM   29  C   UNL     1     -11.448   8.636  70.985  1.00  0.00    -0.278 A  
HETATM   30  C   UNL     1     -10.287  14.855  69.106  1.00  0.00    -0.245 C  
HETATM   31  C   UNL     1     -10.078  12.400  67.881  1.00  0.00    -0.208 C  
HETATM   32  C   UNL     1     -12.135  10.915  70.471  1.00  0.00    -0.371 A  
HETATM   33  N   UNL     1     -12.589  12.272  70.625  1.00  0.00    -0.214 N  
HETATM   34  H   UNL     1     -12.377  15.534  67.474  1.00  0.00     0.000 HD 
HETATM   35  C   UNL     1      -9.389  13.813  68.236  1.00  0.00    -0.209 C  
HETATM   36  C   UNL     1     -12.871  12.768  71.888  1.00  0.00    -0.201 C  
HETATM   37  C   UNL     1     -11.784  13.036  69.626  1.00  0.00    -0.297 C  
HETATM   38  O   UNL     1     -12.932  12.157  72.948  1.00  0.00     0.655 OA 
HETATM   39  C   UNL     1     -11.450  12.077  68.488  1.00  0.00    -0.345 C  
HETATM   40  C   UNL     1     -12.449  11.883  67.333  1.00  0.00     1.361 C  
HETATM   41  C   UNL     1     -11.451  10.796  69.275  1.00  0.00    -0.369 A  
HETATM   42  C   UNL     1     -10.809   9.635  68.901  1.00  0.00    -0.201 A  
HETATM   43  C   UNL     1     -11.635  12.074  66.065  1.00  0.00    -0.305 C  
HETATM   44  N   UNL     1     -10.250  11.964  66.487  1.00  0.00    -0.200 NA 
HETATM   45  C   UNL     1      -9.271  12.429  65.537  1.00  0.00     0.225 C  
HETATM   46  C   UNL     1      -8.929  13.863  65.737  1.00  0.00     0.678 C  
HETATM   47  C   UNL     1      -8.932  14.467  66.934  1.00  0.00    -0.263 C  
BRANCH  29  48
HETATM   48  O   UNL     1     -11.335   7.597  71.869  1.00  0.00    -0.250 OA 
HETATM   49  C   UNL     1     -10.754   7.922  73.129  1.00  0.00    -0.264 C  
ENDBRANCH  29  48
BRANCH  35  50
HETATM   50  C   UNL     1      -8.199  13.535  69.249  1.00  0.00     0.584 C  
HETATM   51  C   UNL     1      -6.797  14.072  69.018  1.00  0.00    -0.111 C  
ENDBRANCH  35  50
BRANCH  30  52
HETATM   52  O   UNL     1      -9.682  16.175  69.225  1.00  0.00    -0.235 OA 
BRANCH  52  53
HETATM   53  C   UNL     1      -9.845  17.230  68.413  1.00  0.00    -0.309 C  
HETATM   54  C   UNL     1      -8.482  17.806  68.092  1.00  0.00    -0.262 C  
HETATM   55  O   UNL     1     -10.904  17.546  67.893  1.00  0.00    -0.374 OA 
ENDBRANCH  52  53
ENDBRANCH  30  52
BRANCH  28  56
HETATM   56  C   UNL     1     -12.642  15.427  70.031  1.00  0.00    -0.234 C  
HETATM   57  O   UNL     1     -13.800  15.772  69.844  1.00  0.00     0.756 OA 
BRANCH  56  58
HETATM   58  O   UNL     1     -11.852  15.876  71.056  1.00  0.00    -0.374 OA 
HETATM   59  C   UNL     1     -12.457  15.905  72.351  1.00  0.00    -0.474 C  
ENDBRANCH  56  58
ENDBRANCH  28  56
ENDBRANCH  15  25
BRANCH  15  60
HETATM   60  C   UNL     1      -9.572   6.411  70.356  1.00  0.00    -0.165 C  
HETATM   61  O   UNL     1     -10.076   5.345  70.714  1.00  0.00    -0.193 OA 
BRANCH  60  62
HETATM   62  O   UNL     1      -8.459   6.937  70.952  1.00  0.00    -0.132 OA 
HETATM   63  C   UNL     1      -7.797   6.085  71.911  1.00  0.00    -0.106 C  
ENDBRANCH  60  62
ENDBRANCH  15  60
ENDBRANCH   2   3
TORSDOF 10
ENDMDL
MODEL       14
REMARK 921   NORMALIZED FREE ENERGY PREDICTED BY IDOCK:   -2.48 KCAL/MOL
REMARK 922        TOTAL FREE ENERGY PREDICTED BY IDOCK:   -5.61 KCAL/MOL
REMARK 923 INTER-LIGAND FREE ENERGY PREDICTED BY IDOCK:   -4.56 KCAL/MOL
REMARK 924 INTRA-LIGAND FREE ENERGY PREDICTED BY IDOCK:   -1.05 KCAL/MOL
REMARK 927      BINDING AFFINITY PREDICTED BY RF-SCORE:    0.00 PKD
ROOT
HETATM    1  C   UNL     1     -10.204   4.524  63.399  1.00  0.00     0.263 C  
HETATM    2  C   UNL     1      -9.065   3.686  63.982  1.00  0.00    -0.119 C  
ENDROOT
BRANCH   2   3
HETATM    3  C   UNL     1      -9.437   2.814  65.214  1.00  0.00    -0.036 C  
HETATM    4  C   UNL     1     -10.363   3.552  66.229  1.00  0.00     0.982 C  
HETATM    5  O   UNL     1     -10.148   1.661  64.733  1.00  0.00    -0.323 OA 
HETATM    6  C   UNL     1      -9.500   4.521  67.037  1.00  0.00    -0.186 C  
HETATM    7  H   UNL     1     -10.375   1.128  65.485  1.00  0.00     0.000 HD 
HETATM    8  C   UNL     1      -8.536   3.679  67.863  1.00  0.00    -0.094 C  
HETATM    9  N   UNL     1      -7.523   3.091  67.008  1.00  0.00    -0.069 NA 
HETATM   10  C   UNL     1      -6.434   3.991  66.583  1.00  0.00    -0.041 C  
HETATM   11  C   UNL     1      -8.134   2.282  65.935  1.00  0.00    -0.085 C  
HETATM   12  C   UNL     1      -6.161   5.298  67.395  1.00  0.00    -0.035 C  
HETATM   13  C   UNL     1      -6.937   6.485  66.871  1.00  0.00    -0.067 A  
HETATM   14  C   UNL     1      -8.172   7.029  67.258  1.00  0.00    -0.119 A  
HETATM   15  C   UNL     1      -9.235   6.736  68.403  1.00  0.00    -0.123 C  
HETATM   16  N   UNL     1      -8.485   7.982  66.303  1.00  0.00    -0.126 NA 
HETATM   17  H   UNL     1      -9.378   8.473  66.253  1.00  0.00     0.000 HD 
HETATM   18  C   UNL     1     -10.211   5.609  67.862  1.00  0.00    -0.234 C  
HETATM   19  C   UNL     1      -6.461   7.270  65.762  1.00  0.00    -0.045 A  
HETATM   20  C   UNL     1      -5.277   7.263  64.992  1.00  0.00    -0.028 A  
HETATM   21  C   UNL     1      -7.451   8.183  65.438  1.00  0.00    -0.082 A  
HETATM   22  C   UNL     1      -5.129   8.168  63.939  1.00  0.00    -0.041 A  
HETATM   23  C   UNL     1      -6.148   9.066  63.643  1.00  0.00    -0.087 A  
HETATM   24  C   UNL     1      -7.327   9.092  64.373  1.00  0.00    -0.100 A  
BRANCH  15  25
HETATM   25  C   UNL     1      -9.914   8.107  68.760  1.00  0.00    -0.198 A  
HETATM   26  O   UNL     1      -8.984  14.475  67.213  1.00  0.00    -0.189 OA 
HETATM   27  C   UNL     1     -11.613   9.679  69.629  1.00  0.00     0.030 A  
HETATM   28  C   UNL     1      -9.254  14.211  68.593  1.00  0.00    -0.146 C  
HETATM   29  C   UNL     1     -11.093   8.358  69.496  1.00  0.00     0.053 A  
HETATM   30  C   UNL     1      -7.922  14.145  69.413  1.00  0.00     0.294 C  
HETATM   31  C   UNL     1      -7.588  11.745  68.109  1.00  0.00    -0.117 C  
HETATM   32  C   UNL     1     -10.944  10.748  69.053  1.00  0.00    -0.240 A  
HETATM   33  N   UNL     1     -11.134  12.170  69.158  1.00  0.00    -0.227 N  
HETATM   34  H   UNL     1      -8.662  15.357  67.072  1.00  0.00     0.000 HD 
HETATM   35  C   UNL     1      -6.927  12.935  68.970  1.00  0.00    -0.058 C  
HETATM   36  C   UNL     1     -11.934  12.690  70.165  1.00  0.00    -0.299 C  
HETATM   37  C   UNL     1      -9.793  12.737  68.828  1.00  0.00     0.032 C  
HETATM   38  O   UNL     1     -12.660  12.087  70.944  1.00  0.00    -0.336 OA 
HETATM   39  C   UNL     1      -9.107  11.754  67.886  1.00  0.00    -0.181 C  
HETATM   40  C   UNL     1      -9.366  11.840  66.370  1.00  0.00    -0.229 C  
HETATM   41  C   UNL     1      -9.773  10.494  68.363  1.00  0.00    -0.166 A  
HETATM   42  C   UNL     1      -9.274   9.220  68.195  1.00  0.00    -0.136 A  
HETATM   43  C   UNL     1      -7.988  11.856  65.730  1.00  0.00     0.798 C  
HETATM   44  N   UNL     1      -7.085  11.399  66.771  1.00  0.00    -0.143 NA 
HETATM   45  C   UNL     1      -5.683  11.631  66.526  1.00  0.00    -0.056 C  
HETATM   46  C   UNL     1      -5.223  12.932  67.083  1.00  0.00     0.239 C  
HETATM   47  C   UNL     1      -5.736  13.489  68.190  1.00  0.00    -0.114 C  
BRANCH  29  48
HETATM   48  O   UNL     1     -11.669   7.302  70.150  1.00  0.00    -0.180 OA 
HETATM   49  C   UNL     1     -12.676   7.641  71.100  1.00  0.00    -0.206 C  
ENDBRANCH  29  48
BRANCH  35  50
HETATM   50  C   UNL     1      -6.528  12.349  70.389  1.00  0.00     0.471 C  
HETATM   51  C   UNL     1      -5.444  11.297  70.556  1.00  0.00    -0.129 C  
ENDBRANCH  35  50
BRANCH  30  52
HETATM   52  O   UNL     1      -7.223  15.273  70.016  1.00  0.00    -0.140 OA 
BRANCH  52  53
HETATM   53  C   UNL     1      -6.747  16.367  69.404  1.00  0.00    -0.215 C  
HETATM   54  C   UNL     1      -5.590  16.908  70.217  1.00  0.00    -0.203 C  
HETATM   55  O   UNL     1      -7.087  16.741  68.293  1.00  0.00    -0.156 OA 
ENDBRANCH  52  53
ENDBRANCH  30  52
BRANCH  28  56
HETATM   56  C   UNL     1     -10.245  15.256  69.097  1.00  0.00    -0.242 C  
HETATM   57  O   UNL     1     -10.573  15.424  70.263  1.00  0.00    -0.301 OA 
BRANCH  56  58
HETATM   58  O   UNL     1     -10.797  15.913  68.030  1.00  0.00    -0.296 OA 
HETATM   59  C   UNL     1     -10.722  17.340  68.062  1.00  0.00    -0.367 C  
ENDBRANCH  56  58
ENDBRANCH  28  56
ENDBRANCH  15  25
BRANCH  15  60
HETATM   60  C   UNL     1      -8.465   6.304  69.717  1.00  0.00    -0.126 C  
HETATM   61  O   UNL     1      -8.578   5.207  70.265  1.00  0.00    -0.108 OA 
BRANCH  60  62
HETATM   62  O   UNL     1      -7.583   7.257  70.147  1.00  0.00    -0.086 OA 
HETATM   63  C   UNL     1      -7.847   7.816  71.451  1.00  0.00    -0.090 C  
ENDBRANCH  60  62
ENDBRANCH  15  60
ENDBRANCH   2   3
TORSDOF 10
ENDMDL
MODEL       15
REMARK 921   NORMALIZED FREE ENERGY PREDICTED BY IDOCK:   -2.27 KCAL/MOL
REMARK 922        TOTAL FREE ENERGY PREDICTED BY IDOCK:   -5.27 KCAL/MOL
REMARK 923 INTER-LIGAND FREE ENERGY PREDICTED BY IDOCK:   -4.14 KCAL/MOL
REMARK 924 INTRA-LIGAND FREE ENERGY PREDICTED BY IDOCK:   -1.13 KCAL/MOL
REMARK 927      BINDING AFFINITY PREDICTED BY RF-SCORE:    0.00 PKD
ROOT
HETATM    1  C   UNL     1      -8.804  15.533  65.991  1.00  0.00    -0.160 C  
HETATM    2  C   UNL     1      -9.580  16.686  66.627  1.00  0.00    -0.280 C  
ENDROOT
BRANCH   2   3
HETATM    3  C   UNL     1      -9.569  16.725  68.181  1.00  0.00    -0.242 C  
HETATM    4  C   UNL     1      -8.722  15.581  68.816  1.00  0.00    -0.192 C  
HETATM    5  O   UNL     1      -8.984  17.976  68.581  1.00  0.00    -0.304 OA 
HETATM    6  C   UNL     1      -9.540  14.291  68.744  1.00  0.00    -0.153 C  
HETATM    7  H   UNL     1      -8.978  18.000  69.530  1.00  0.00     0.000 HD 
HETATM    8  C   UNL     1     -10.755  14.482  69.644  1.00  0.00    -0.103 C  
HETATM    9  N   UNL     1     -11.689  15.410  69.037  1.00  0.00    -0.352 NA 
HETATM   10  C   UNL     1     -12.530  14.864  67.953  1.00  0.00     0.505 C  
HETATM   11  C   UNL     1     -11.045  16.706  68.749  1.00  0.00    -0.270 C  
HETATM   12  C   UNL     1     -12.720  13.318  67.838  1.00  0.00     1.096 C  
HETATM   13  C   UNL     1     -11.685  12.665  66.952  1.00  0.00    -0.453 A  
HETATM   14  C   UNL     1     -10.461  12.046  67.256  1.00  0.00    -0.218 A  
HETATM   15  C   UNL     1      -9.670  11.684  68.587  1.00  0.00    -0.151 C  
HETATM   16  N   UNL     1      -9.840  11.811  66.041  1.00  0.00    -0.226 NA 
HETATM   17  H   UNL     1      -8.884  11.469  65.942  1.00  0.00     0.000 HD 
HETATM   18  C   UNL     1      -8.813  12.957  68.986  1.00  0.00     0.505 C  
HETATM   19  C   UNL     1     -11.831  12.624  65.521  1.00  0.00    -0.479 A  
HETATM   20  C   UNL     1     -12.852  13.018  64.627  1.00  0.00    -0.279 A  
HETATM   21  C   UNL     1     -10.666  12.093  64.994  1.00  0.00    -0.297 A  
HETATM   22  C   UNL     1     -12.670  12.859  63.252  1.00  0.00    -0.028 A  
HETATM   23  C   UNL     1     -11.484  12.326  62.763  1.00  0.00     0.605 A  
HETATM   24  C   UNL     1     -10.457  11.939  63.612  1.00  0.00    -0.493 A  
BRANCH  15  25
HETATM   25  C   UNL     1      -8.848  10.379  68.290  1.00  0.00    -0.135 A  
HETATM   26  O   UNL     1      -9.468   3.914  69.566  1.00  0.00    -0.163 OA 
HETATM   27  C   UNL     1      -7.143   8.915  67.258  1.00  0.00    -0.083 A  
HETATM   28  C   UNL     1      -8.157   4.455  69.759  1.00  0.00    -0.060 C  
HETATM   29  C   UNL     1      -7.693  10.209  67.494  1.00  0.00    -0.091 A  
HETATM   30  C   UNL     1      -7.920   4.800  71.268  1.00  0.00    -0.096 C  
HETATM   31  C   UNL     1      -9.659   6.871  70.760  1.00  0.00    -0.165 C  
HETATM   32  C   UNL     1      -7.726   7.798  67.836  1.00  0.00    -0.122 A  
HETATM   33  N   UNL     1      -7.306   6.424  67.911  1.00  0.00    -0.087 N  
HETATM   34  H   UNL     1      -9.559   3.049  69.948  1.00  0.00     0.000 HD 
HETATM   35  C   UNL     1      -8.910   5.953  71.851  1.00  0.00    -0.138 C  
HETATM   36  C   UNL     1      -5.999   6.081  67.601  1.00  0.00    -0.017 C  
HETATM   37  C   UNL     1      -8.005   5.900  69.122  1.00  0.00    -0.099 C  
HETATM   38  O   UNL     1      -5.126   6.786  67.110  1.00  0.00    -0.008 OA 
HETATM   39  C   UNL     1      -9.295   6.700  69.279  1.00  0.00    -0.142 C  
HETATM   40  C   UNL     1     -10.563   6.262  68.523  1.00  0.00    -0.315 C  
HETATM   41  C   UNL     1      -8.836   7.981  68.640  1.00  0.00    -0.134 A  
HETATM   42  C   UNL     1      -9.402   9.220  68.852  1.00  0.00    -0.150 A  
HETATM   43  C   UNL     1     -11.656   6.207  69.577  1.00  0.00    -0.027 C  
HETATM   44  N   UNL     1     -11.127   6.950  70.706  1.00  0.00    -0.261 NA 
HETATM   45  C   UNL     1     -11.831   6.774  71.952  1.00  0.00    -0.326 C  
HETATM   46  C   UNL     1     -11.264   5.666  72.768  1.00  0.00    -0.347 C  
HETATM   47  C   UNL     1      -9.965   5.331  72.763  1.00  0.00    -0.189 C  
BRANCH  29  48
HETATM   48  O   UNL     1      -7.071  11.338  67.031  1.00  0.00    -0.112 OA 
HETATM   49  C   UNL     1      -5.671  11.416  67.282  1.00  0.00    -0.079 C  
ENDBRANCH  29  48
BRANCH  35  50
HETATM   50  C   UNL     1      -7.870   6.866  72.628  1.00  0.00    -0.098 C  
HETATM   51  C   UNL     1      -7.755   6.855  74.143  1.00  0.00    -0.119 C  
ENDBRANCH  35  50
BRANCH  30  52
HETATM   52  O   UNL     1      -7.430   3.889  72.294  1.00  0.00    -0.061 OA 
BRANCH  52  53
HETATM   53  C   UNL     1      -8.015   2.770  72.747  1.00  0.00    -0.058 C  
HETATM   54  C   UNL     1      -7.842   2.711  74.251  1.00  0.00    -0.059 C  
HETATM   55  O   UNL     1      -8.714   2.032  72.070  1.00  0.00    -0.066 OA 
ENDBRANCH  52  53
ENDBRANCH  30  52
BRANCH  28  56
HETATM   56  C   UNL     1      -7.143   3.477  69.176  1.00  0.00    -0.049 C  
HETATM   57  O   UNL     1      -6.180   3.009  69.767  1.00  0.00    -0.026 OA 
BRANCH  56  58
HETATM   58  O   UNL     1      -7.411   3.279  67.848  1.00  0.00    -0.054 OA 
HETATM   59  C   UNL     1      -7.906   1.986  67.491  1.00  0.00    -0.060 C  
ENDBRANCH  56  58
ENDBRANCH  28  56
ENDBRANCH  15  25
BRANCH  15  60
HETATM   60  C   UNL     1     -10.711  11.269  69.704  1.00  0.00    -0.030 C  
HETATM   61  O   UNL     1     -10.671  11.649  70.875  1.00  0.00     2.082 OA 
BRANCH  60  62
HETATM   62  O   UNL     1     -11.728  10.497  69.214  1.00  0.00    -0.260 OA 
HETATM   63  C   UNL     1     -12.832  10.266  70.115  1.00  0.00     0.028 C  
ENDBRANCH  60  62
ENDBRANCH  15  60
ENDBRANCH   2   3
TORSDOF 10
ENDMDL
MODEL       16
REMARK 921   NORMALIZED FREE ENERGY PREDICTED BY IDOCK:   -1.38 KCAL/MOL
REMARK 922        TOTAL FREE ENERGY PREDICTED BY IDOCK:   -3.85 KCAL/MOL
REMARK 923 INTER-LIGAND FREE ENERGY PREDICTED BY IDOCK:   -3.86 KCAL/MOL
REMARK 924 INTRA-LIGAND FREE ENERGY PREDICTED BY IDOCK:    0.01 KCAL/MOL
REMARK 927      BINDING AFFINITY PREDICTED BY RF-SCORE:    0.00 PKD
ROOT
HETATM    1  C   UNL     1     -10.553  19.303  67.078  1.00  0.00    -0.571 C  
HETATM    2  C   UNL     1      -9.817  18.167  66.366  1.00  0.00    -0.353 C  
ENDROOT
BRANCH   2   3
HETATM    3  C   UNL     1      -8.278  18.342  66.239  1.00  0.00    -0.212 C  
HETATM    4  C   UNL     1      -7.555  17.056  65.734  1.00  0.00     0.367 C  
HETATM    5  O   UNL     1      -8.035  19.385  65.279  1.00  0.00    -0.169 OA 
HETATM    6  C   UNL     1      -7.459  16.078  66.904  1.00  0.00    -0.253 C  
HETATM    7  H   UNL     1      -7.095  19.492  65.202  1.00  0.00     0.000 HD 
HETATM    8  C   UNL     1      -6.541  16.711  67.942  1.00  0.00    -0.142 C  
HETATM    9  N   UNL     1      -7.208  17.821  68.593  1.00  0.00    -0.252 NA 
HETATM   10  C   UNL     1      -8.196  17.463  69.630  1.00  0.00     0.904 C  
HETATM   11  C   UNL     1      -7.657  18.827  67.610  1.00  0.00    -0.230 C  
HETATM   12  C   UNL     1      -8.138  16.045  70.284  1.00  0.00     1.435 C  
HETATM   13  C   UNL     1      -8.987  15.029  69.554  1.00  0.00    -0.059 A  
HETATM   14  C   UNL     1      -8.664  14.096  68.556  1.00  0.00    -0.166 A  
HETATM   15  C   UNL     1      -7.332  13.632  67.822  1.00  0.00    -0.170 C  
HETATM   16  N   UNL     1      -9.869  13.574  68.118  1.00  0.00    -0.231 NA 
HETATM   17  H   UNL     1      -9.966  12.948  67.317  1.00  0.00     0.000 HD 
HETATM   18  C   UNL     1      -7.103  14.613  66.597  1.00  0.00     1.506 C  
HETATM   19  C   UNL     1     -10.399  14.906  69.803  1.00  0.00    -0.111 A  
HETATM   20  C   UNL     1     -11.292  15.510  70.716  1.00  0.00    -0.384 A  
HETATM   21  C   UNL     1     -10.909  13.998  68.889  1.00  0.00    -0.258 A  
HETATM   22  C   UNL     1     -12.648  15.179  70.683  1.00  0.00    -0.450 A  
HETATM   23  C   UNL     1     -13.121  14.267  69.748  1.00  0.00     0.609 A  
HETATM   24  C   UNL     1     -12.273  13.663  68.830  1.00  0.00    -0.221 A  
BRANCH  15  25
HETATM   25  C   UNL     1      -7.518  12.117  67.452  1.00  0.00    -0.156 A  
HETATM   26  O   UNL     1     -11.969   7.378  68.695  1.00  0.00     0.707 OA 
HETATM   27  C   UNL     1      -7.149   9.968  66.286  1.00  0.00    -0.105 A  
HETATM   28  C   UNL     1     -10.599   6.977  68.801  1.00  0.00    -0.212 C  
HETATM   29  C   UNL     1      -6.760  11.308  66.575  1.00  0.00    -0.105 A  
HETATM   30  C   UNL     1     -10.126   7.019  70.293  1.00  0.00    -0.187 C  
HETATM   31  C   UNL     1     -10.218   9.746  69.934  1.00  0.00    -0.254 C  
HETATM   32  C   UNL     1      -8.272   9.426  66.891  1.00  0.00    -0.116 A  
HETATM   33  N   UNL     1      -8.797   8.087  66.920  1.00  0.00    -0.128 N  
HETATM   34  H   UNL     1     -12.560   6.738  69.073  1.00  0.00     0.000 HD 
HETATM   35  C   UNL     1     -10.152   8.504  70.958  1.00  0.00    -0.257 C  
HETATM   36  C   UNL     1      -8.005   7.023  66.514  1.00  0.00    -0.108 C  
HETATM   37  C   UNL     1      -9.611   8.046  68.171  1.00  0.00    -0.153 C  
HETATM   38  O   UNL     1      -6.908   7.058  65.971  1.00  0.00    -0.054 OA 
HETATM   39  C   UNL     1     -10.112   9.464  68.428  1.00  0.00    -0.208 C  
HETATM   40  C   UNL     1     -11.411   9.949  67.759  1.00  0.00     0.104 C  
HETATM   41  C   UNL     1      -8.986  10.215  67.774  1.00  0.00    -0.129 A  
HETATM   42  C   UNL     1      -8.646  11.525  68.039  1.00  0.00    -0.150 A  
HETATM   43  C   UNL     1     -12.247  10.530  68.887  1.00  0.00     0.323 C  
HETATM   44  N   UNL     1     -11.317  10.721  69.985  1.00  0.00    -0.303 NA 
HETATM   45  C   UNL     1     -11.916  10.955  71.275  1.00  0.00    -0.124 C  
HETATM   46  C   UNL     1     -12.124   9.693  72.036  1.00  0.00    -0.269 C  
HETATM   47  C   UNL     1     -11.319   8.625  71.935  1.00  0.00    -0.417 C  
BRANCH  29  48
HETATM   48  O   UNL     1      -5.594  11.830  66.082  1.00  0.00    -0.233 OA 
HETATM   49  C   UNL     1      -5.138  11.267  64.855  1.00  0.00     0.464 C  
ENDBRANCH  29  48
BRANCH  35  50
HETATM   50  C   UNL     1      -8.734   8.532  71.669  1.00  0.00    -0.262 C  
HETATM   51  C   UNL     1      -7.434   8.442  70.889  1.00  0.00    -0.066 C  
ENDBRANCH  35  50
BRANCH  30  52
HETATM   52  O   UNL     1     -10.262   5.948  71.271  1.00  0.00    -0.196 OA 
BRANCH  52  53
HETATM   53  C   UNL     1      -9.304   5.134  71.737  1.00  0.00    -0.146 C  
HETATM   54  C   UNL     1      -9.959   3.879  72.277  1.00  0.00    -0.236 C  
HETATM   55  O   UNL     1      -8.107   5.315  71.582  1.00  0.00    -0.112 OA 
ENDBRANCH  52  53
ENDBRANCH  30  52
BRANCH  28  56
HETATM   56  C   UNL     1     -10.445   5.613  68.136  1.00  0.00    -0.195 C  
HETATM   57  O   UNL     1     -10.002   4.606  68.668  1.00  0.00    -0.144 OA 
BRANCH  56  58
HETATM   58  O   UNL     1     -10.782   5.710  66.812  1.00  0.00    -0.291 OA 
HETATM   59  C   UNL     1     -10.174   4.757  65.936  1.00  0.00    -0.258 C  
ENDBRANCH  56  58
ENDBRANCH  28  56
ENDBRANCH  15  25
BRANCH  15  60
HETATM   60  C   UNL     1      -6.140  13.658  68.862  1.00  0.00    -0.088 C  
HETATM   61  O   UNL     1      -5.237  14.496  68.871  1.00  0.00    -0.085 OA 
BRANCH  60  62
HETATM   62  O   UNL     1      -6.256  12.689  69.820  1.00  0.00    -0.129 OA 
HETATM   63  C   UNL     1      -5.359  12.806  70.945  1.00  0.00    -0.173 C  
ENDBRANCH  60  62
ENDBRANCH  15  60
ENDBRANCH   2   3
TORSDOF 10
ENDMDL
MODEL       17
REMARK 921   NORMALIZED FREE ENERGY PREDICTED BY IDOCK:   -0.60 KCAL/MOL
REMARK 922        TOTAL FREE ENERGY PREDICTED BY IDOCK:   -2.62 KCAL/MOL
REMARK 923 INTER-LIGAND FREE ENERGY PREDICTED BY IDOCK:   -2.27 KCAL/MOL
REMARK 924 INTRA-LIGAND FREE ENERGY PREDICTED BY IDOCK:   -0.35 KCAL/MOL
REMARK 927      BINDING AFFINITY PREDICTED BY RF-SCORE:    0.00 PKD
ROOT
HETATM    1  C   UNL     1      -8.025   6.354  69.366  1.00  0.00    -0.110 C  
HETATM    2  C   UNL     1      -8.556   5.898  68.007  1.00  0.00    -0.113 C  
ENDROOT
BRANCH   2   3
HETATM    3  C   UNL     1     -10.099   5.740  67.909  1.00  0.00    -0.162 C  
HETATM    4  C   UNL     1     -10.773   6.837  67.030  1.00  0.00    -0.435 C  
HETATM    5  O   UNL     1     -10.369   4.465  67.300  1.00  0.00    -0.065 OA 
HETATM    6  C   UNL     1     -10.846   8.123  67.853  1.00  0.00    -0.038 C  
HETATM    7  H   UNL     1     -11.312   4.368  67.241  1.00  0.00     0.000 HD 
HETATM    8  C   UNL     1     -11.795   7.856  69.015  1.00  0.00     1.625 C  
HETATM    9  N   UNL     1     -11.171   6.972  69.981  1.00  0.00    -0.280 NA 
HETATM   10  C   UNL     1     -10.181   7.594  70.881  1.00  0.00    -0.199 C  
HETATM   11  C   UNL     1     -10.748   5.706  69.351  1.00  0.00    -0.295 C  
HETATM   12  C   UNL     1     -10.196   9.144  71.081  1.00  0.00    -0.384 C  
HETATM   13  C   UNL     1      -9.306   9.869  70.097  1.00  0.00    -0.200 A  
HETATM   14  C   UNL     1      -9.589  10.470  68.860  1.00  0.00    -0.193 A  
HETATM   15  C   UNL     1     -10.898  10.734  67.996  1.00  0.00    -0.302 C  
HETATM   16  N   UNL     1      -8.363  10.802  68.308  1.00  0.00    -0.120 NA 
HETATM   17  H   UNL     1      -8.238  11.156  67.359  1.00  0.00     0.000 HD 
HETATM   18  C   UNL     1     -11.149   9.439  67.116  1.00  0.00     0.218 C  
HETATM   19  C   UNL     1      -7.893  10.019  70.324  1.00  0.00    -0.065 A  
HETATM   20  C   UNL     1      -7.030   9.689  71.392  1.00  0.00     0.289 A  
HETATM   21  C   UNL     1      -7.345  10.596  69.190  1.00  0.00    -0.111 A  
HETATM   22  C   UNL     1      -5.663   9.954  71.287  1.00  0.00    -0.054 A  
HETATM   23  C   UNL     1      -5.151  10.530  70.131  1.00  0.00    -0.040 A  
HETATM   24  C   UNL     1      -5.969  10.857  69.060  1.00  0.00    -0.041 A  
BRANCH  15  25
HETATM   25  C   UNL     1     -10.657  12.063  67.195  1.00  0.00    -0.255 A  
HETATM   26  O   UNL     1      -5.997  16.758  66.963  1.00  0.00    -0.159 OA 
HETATM   27  C   UNL     1     -10.958  13.786  65.447  1.00  0.00    -0.309 A  
HETATM   28  C   UNL     1      -7.348  17.232  66.951  1.00  0.00    -0.205 C  
HETATM   29  C   UNL     1     -11.396  12.608  66.121  1.00  0.00    -0.330 A  
HETATM   30  C   UNL     1      -7.797  17.653  68.391  1.00  0.00    -0.268 C  
HETATM   31  C   UNL     1      -7.821  14.940  68.853  1.00  0.00    -0.161 C  
HETATM   32  C   UNL     1      -9.804  14.433  65.860  1.00  0.00    -0.310 A  
HETATM   33  N   UNL     1      -9.225  15.697  65.490  1.00  0.00    -0.089 N  
HETATM   34  H   UNL     1      -5.374  17.454  67.132  1.00  0.00     0.000 HD 
HETATM   35  C   UNL     1      -7.819  16.430  69.465  1.00  0.00     0.105 C  
HETATM   36  C   UNL     1      -9.980  16.627  64.791  1.00  0.00     1.535 C  
HETATM   37  C   UNL     1      -8.389  16.068  66.670  1.00  0.00    -0.296 C  
HETATM   38  O   UNL     1     -11.086  16.481  64.287  1.00  0.00    -0.915 OA 
HETATM   39  C   UNL     1      -7.942  14.769  67.332  1.00  0.00    -0.220 C  
HETATM   40  C   UNL     1      -6.675  14.052  66.831  1.00  0.00     1.238 C  
HETATM   41  C   UNL     1      -9.108  13.908  66.934  1.00  0.00    -0.257 A  
HETATM   42  C   UNL     1      -9.496  12.752  67.575  1.00  0.00    -0.187 A  
HETATM   43  C   UNL     1      -5.843  13.794  68.077  1.00  0.00    -0.133 C  
HETATM   44  N   UNL     1      -6.762  13.976  69.186  1.00  0.00    -0.109 NA 
HETATM   45  C   UNL     1      -6.152  14.107  70.485  1.00  0.00    -0.174 C  
HETATM   46  C   UNL     1      -5.879  15.527  70.838  1.00  0.00     0.140 C  
HETATM   47  C   UNL     1      -6.642  16.552  70.430  1.00  0.00     0.754 C  
BRANCH  29  48
HETATM   48  O   UNL     1     -12.590  12.016  65.809  1.00  0.00    -0.156 OA 
HETATM   49  C   UNL     1     -13.061  12.241  64.483  1.00  0.00     0.205 C  
ENDBRANCH  29  48
BRANCH  35  50
HETATM   50  C   UNL     1      -9.225  16.675  70.159  1.00  0.00     1.573 C  
HETATM   51  C   UNL     1     -10.539  16.423  69.439  1.00  0.00    -0.317 C  
ENDBRANCH  35  50
BRANCH  30  52
HETATM   52  O   UNL     1      -7.601  18.958  69.009  1.00  0.00    -0.314 OA 
BRANCH  52  53
HETATM   53  C   UNL     1      -6.440  19.566  69.295  1.00  0.00    -0.324 C  
HETATM   54  C   UNL     1      -6.497  20.064  70.724  1.00  0.00    -0.118 C  
HETATM   55  O   UNL     1      -5.457  19.553  68.572  1.00  0.00    -0.197 OA 
ENDBRANCH  52  53
ENDBRANCH  30  52
BRANCH  28  56
HETATM   56  C   UNL     1      -7.458  18.344  65.914  1.00  0.00    -0.173 C  
HETATM   57  O   UNL     1      -8.273  19.255  65.928  1.00  0.00    -0.440 OA 
BRANCH  56  58
HETATM   58  O   UNL     1      -6.568  18.111  64.899  1.00  0.00    -0.240 OA 
HETATM   59  C   UNL     1      -5.561  19.106  64.703  1.00  0.00    -0.253 C  
ENDBRANCH  56  58
ENDBRANCH  28  56
ENDBRANCH  15  25
BRANCH  15  60
HETATM   60  C   UNL     1     -12.099  11.056  68.974  1.00  0.00    -0.215 C  
HETATM   61  O   UNL     1     -13.110  10.361  69.094  1.00  0.00     0.532 OA 
BRANCH  60  62
HETATM   62  O   UNL     1     -11.865  12.157  69.750  1.00  0.00    -0.314 OA 
HETATM   63  C   UNL     1     -12.115  11.996  71.163  1.00  0.00     0.161 C  
ENDBRANCH  60  62
ENDBRANCH  15  60
ENDBRANCH   2   3
TORSDOF 10
ENDMDL
MODEL       18
REMARK 921   NORMALIZED FREE ENERGY PREDICTED BY IDOCK:    0.56 KCAL/MOL
REMARK 922        TOTAL FREE ENERGY PREDICTED BY IDOCK:   -0.78 KCAL/MOL
REMARK 923 INTER-LIGAND FREE ENERGY PREDICTED BY IDOCK:   -4.50 KCAL/MOL
REMARK 924 INTRA-LIGAND FREE ENERGY PREDICTED BY IDOCK:    3.72 KCAL/MOL
REMARK 927      BINDING AFFINITY PREDICTED BY RF-SCORE:    0.00 PKD
ROOT
HETATM    1  C   UNL     1     -12.022  15.843  67.640  1.00  0.00     0.505 C  
HETATM    2  C   UNL     1     -12.041  16.580  66.300  1.00  0.00     2.378 C  
ENDROOT
BRANCH   2   3
HETATM    3  C   UNL     1     -10.866  16.251  65.337  1.00  0.00    -0.273 C  
HETATM    4  C   UNL     1     -10.581  14.723  65.218  1.00  0.00    -0.414 C  
HETATM    5  O   UNL     1     -11.226  16.732  64.031  1.00  0.00    -1.438 OA 
HETATM    6  C   UNL     1      -9.823  14.284  66.470  1.00  0.00    -0.299 C  
HETATM    7  H   UNL     1     -10.508  16.532  63.442  1.00  0.00     0.000 HD 
HETATM    8  C   UNL     1      -8.468  14.981  66.439  1.00  0.00     0.068 C  
HETATM    9  N   UNL     1      -8.624  16.395  66.719  1.00  0.00    -0.210 NA 
HETATM   10  C   UNL     1      -8.820  16.756  68.137  1.00  0.00    -0.223 C  
HETATM   11  C   UNL     1      -9.558  17.029  65.768  1.00  0.00    -0.009 C  
HETATM   12  C   UNL     1      -8.397  15.743  69.249  1.00  0.00    -0.249 C  
HETATM   13  C   UNL     1      -9.516  14.809  69.647  1.00  0.00     0.163 A  
HETATM   14  C   UNL     1      -9.843  13.515  69.211  1.00  0.00     0.491 A  
HETATM   15  C   UNL     1      -9.194  12.450  68.225  1.00  0.00    -0.189 C  
HETATM   16  N   UNL     1     -11.078  13.226  69.765  1.00  0.00    -0.470 NA 
HETATM   17  H   UNL     1     -11.628  12.396  69.540  1.00  0.00     0.000 HD 
HETATM   18  C   UNL     1      -9.720  12.778  66.765  1.00  0.00    -0.243 C  
HETATM   19  C   UNL     1     -10.517  15.194  70.607  1.00  0.00     0.025 A  
HETATM   20  C   UNL     1     -10.704  16.327  71.430  1.00  0.00     0.867 A  
HETATM   21  C   UNL     1     -11.469  14.188  70.647  1.00  0.00    -0.004 A  
HETATM   22  C   UNL     1     -11.824  16.405  72.259  1.00  0.00    -0.531 A  
HETATM   23  C   UNL     1     -12.759  15.377  72.267  1.00  0.00    -0.466 A  
HETATM   24  C   UNL     1     -12.611  14.255  71.464  1.00  0.00    -0.432 A  
BRANCH  15  25
HETATM   25  C   UNL     1      -9.568  11.028  68.777  1.00  0.00    -0.194 A  
HETATM   26  O   UNL     1      -6.688   5.075  69.068  1.00  0.00    -0.046 OA 
HETATM   27  C   UNL     1     -10.807   9.298  70.037  1.00  0.00    -0.264 A  
HETATM   28  C   UNL     1      -8.069   5.072  68.692  1.00  0.00    -0.085 C  
HETATM   29  C   UNL     1     -10.692  10.627  69.534  1.00  0.00    -0.251 A  
HETATM   30  C   UNL     1      -8.216   5.000  67.135  1.00  0.00    -0.107 C  
HETATM   31  C   UNL     1      -7.338   7.606  67.231  1.00  0.00    -0.091 C  
HETATM   32  C   UNL     1      -9.820   8.365  69.763  1.00  0.00    -0.187 A  
HETATM   33  N   UNL     1      -9.748   6.946  69.989  1.00  0.00    -0.167 N  
HETATM   34  H   UNL     1      -6.268   4.239  68.902  1.00  0.00     0.000 HD 
HETATM   35  C   UNL     1      -7.598   6.284  66.348  1.00  0.00    -0.094 C  
HETATM   36  C   UNL     1     -10.896   6.236  70.307  1.00  0.00    -0.304 C  
HETATM   37  C   UNL     1      -8.769   6.468  68.969  1.00  0.00    -0.128 C  
HETATM   38  O   UNL     1     -12.007   6.674  70.578  1.00  0.00    -0.400 OA 
HETATM   39  C   UNL     1      -7.808   7.620  68.692  1.00  0.00    -0.121 C  
HETATM   40  C   UNL     1      -6.572   7.816  69.589  1.00  0.00    -0.035 C  
HETATM   41  C   UNL     1      -8.741   8.760  68.993  1.00  0.00    -0.133 A  
HETATM   42  C   UNL     1      -8.595  10.049  68.527  1.00  0.00    -0.119 A  
HETATM   43  C   UNL     1      -5.399   7.938  68.630  1.00  0.00    -0.027 C  
HETATM   44  N   UNL     1      -5.998   8.204  67.335  1.00  0.00    -0.049 NA 
HETATM   45  C   UNL     1      -5.125   8.039  66.200  1.00  0.00    -0.025 C  
HETATM   46  C   UNL     1      -5.187   6.663  65.637  1.00  0.00    -0.018 C  
HETATM   47  C   UNL     1      -6.291   5.902  65.657  1.00  0.00    -0.042 C  
BRANCH  29  48
HETATM   48  O   UNL     1     -11.705  11.535  69.691  1.00  0.00    -0.294 OA 
HETATM   49  C   UNL     1     -12.911  11.020  70.248  1.00  0.00    -0.004 C  
ENDBRANCH  29  48
BRANCH  35  50
HETATM   50  C   UNL     1      -8.775   6.599  65.332  1.00  0.00    -0.006 C  
HETATM   51  C   UNL     1      -8.535   7.300  64.006  1.00  0.00     0.300 C  
ENDBRANCH  35  50
BRANCH  30  52
HETATM   52  O   UNL     1      -8.243   3.788  66.326  1.00  0.00    -0.099 OA 
BRANCH  52  53
HETATM   53  C   UNL     1      -7.476   2.696  66.456  1.00  0.00    -0.071 C  
HETATM   54  C   UNL     1      -8.298   1.482  66.078  1.00  0.00    -0.090 C  
HETATM   55  O   UNL     1      -6.274   2.717  66.671  1.00  0.00    -0.024 OA 
ENDBRANCH  52  53
ENDBRANCH  30  52
BRANCH  28  56
HETATM   56  C   UNL     1      -8.767   3.938  69.437  1.00  0.00    -0.079 C  
HETATM   57  O   UNL     1      -9.962   3.685  69.393  1.00  0.00     0.005 OA 
BRANCH  56  58
HETATM   58  O   UNL     1      -7.867   3.307  70.254  1.00  0.00    -0.043 OA 
HETATM   59  C   UNL     1      -8.267   3.130  71.615  1.00  0.00    -0.061 C  
ENDBRANCH  56  58
ENDBRANCH  28  56
ENDBRANCH  15  25
BRANCH  15  60
HETATM   60  C   UNL     1      -7.618  12.536  68.344  1.00  0.00    -0.129 C  
HETATM   61  O   UNL     1      -6.864  12.874  67.430  1.00  0.00    -0.160 OA 
BRANCH  60  62
HETATM   62  O   UNL     1      -7.171  12.273  69.610  1.00  0.00     0.193 OA 
HETATM   63  C   UNL     1      -6.156  13.165  70.116  1.00  0.00    -0.099 C  
ENDBRANCH  60  62
ENDBRANCH  15  60
ENDBRANCH   2   3
TORSDOF 10
ENDMDL
MODEL       19
REMARK 921   NORMALIZED FREE ENERGY PREDICTED BY IDOCK:    1.23 KCAL/MOL
REMARK 922        TOTAL FREE ENERGY PREDICTED BY IDOCK:    0.28 KCAL/MOL
REMARK 923 INTER-LIGAND FREE ENERGY PREDICTED BY IDOCK:   -2.06 KCAL/MOL
REMARK 924 INTRA-LIGAND FREE ENERGY PREDICTED BY IDOCK:    2.34 KCAL/MOL
REMARK 927      BINDING AFFINITY PREDICTED BY RF-SCORE:    0.00 PKD
ROOT
HETATM    1  C   UNL     1     -10.184  17.284  70.477  1.00  0.00     1.542 C  
HETATM    2  C   UNL     1      -9.926  17.062  68.987  1.00  0.00    -0.269 C  
ENDROOT
BRANCH   2   3
HETATM    3  C   UNL     1     -11.193  17.001  68.088  1.00  0.00    -0.039 C  
HETATM    4  C   UNL     1     -12.122  15.795  68.421  1.00  0.00     0.132 C  
HETATM    5  O   UNL     1     -11.944  18.207  68.313  1.00  0.00     1.287 OA 
HETATM    6  C   UNL     1     -11.498  14.537  67.817  1.00  0.00    -0.362 C  
HETATM    7  H   UNL     1     -12.718  18.170  67.764  1.00  0.00     0.000 HD 
HETATM    8  C   UNL     1     -11.532  14.705  66.303  1.00  0.00    -0.351 C  
HETATM    9  N   UNL     1     -10.560  15.696  65.885  1.00  0.00    -0.329 NA 
HETATM   10  C   UNL     1      -9.155  15.246  65.843  1.00  0.00    -0.103 C  
HETATM   11  C   UNL     1     -10.792  16.989  66.559  1.00  0.00     0.047 C  
HETATM   12  C   UNL     1      -8.844  13.716  65.777  1.00  0.00     0.941 C  
HETATM   13  C   UNL     1      -8.685  13.091  67.144  1.00  0.00    -0.204 A  
HETATM   14  C   UNL     1      -9.602  12.419  67.968  1.00  0.00    -0.211 A  
HETATM   15  C   UNL     1     -11.116  11.950  67.839  1.00  0.00    -0.297 C  
HETATM   16  N   UNL     1      -8.964  12.244  69.185  1.00  0.00    -0.110 NA 
HETATM   17  H   UNL     1      -9.418  11.882  70.024  1.00  0.00     0.000 HD 
HETATM   18  C   UNL     1     -12.026  13.169  68.285  1.00  0.00    -0.328 C  
HETATM   19  C   UNL     1      -7.438  13.147  67.860  1.00  0.00    -0.136 A  
HETATM   20  C   UNL     1      -6.147  13.626  67.547  1.00  0.00    -0.024 A  
HETATM   21  C   UNL     1      -7.654  12.616  69.121  1.00  0.00     0.255 A  
HETATM   22  C   UNL     1      -5.129  13.550  68.499  1.00  0.00    -0.081 A  
HETATM   23  C   UNL     1      -5.387  13.016  69.755  1.00  0.00    -0.087 A  
HETATM   24  C   UNL     1      -6.646  12.545  70.099  1.00  0.00     0.335 A  
BRANCH  15  25
HETATM   25  C   UNL     1     -11.264  10.643  68.698  1.00  0.00    -0.337 A  
HETATM   26  O   UNL     1      -7.826   5.057  69.582  1.00  0.00    -0.066 OA 
HETATM   27  C   UNL     1     -12.126   9.120  70.445  1.00  0.00     0.095 A  
HETATM   28  C   UNL     1      -9.242   4.893  69.453  1.00  0.00    -0.109 C  
HETATM   29  C   UNL     1     -12.215  10.329  69.695  1.00  0.00     0.046 A  
HETATM   30  C   UNL     1      -9.621   4.508  67.983  1.00  0.00    -0.154 C  
HETATM   31  C   UNL     1      -8.988   7.132  67.449  1.00  0.00    -0.122 C  
HETATM   32  C   UNL     1     -11.109   8.215  70.183  1.00  0.00    -0.187 A  
HETATM   33  N   UNL     1     -10.870   6.876  70.650  1.00  0.00    -0.236 N  
HETATM   34  H   UNL     1      -7.361   4.233  69.503  1.00  0.00     0.000 HD 
HETATM   35  C   UNL     1      -9.256   5.648  66.881  1.00  0.00    -0.120 C  
HETATM   36  C   UNL     1     -11.883   6.171  71.283  1.00  0.00    -0.072 C  
HETATM   37  C   UNL     1     -10.020   6.269  69.583  1.00  0.00    -0.165 C  
HETATM   38  O   UNL     1     -12.975   6.583  71.654  1.00  0.00    -0.226 OA 
HETATM   39  C   UNL     1      -9.226   7.403  68.942  1.00  0.00    -0.142 C  
HETATM   40  C   UNL     1      -7.890   7.848  69.564  1.00  0.00    -0.110 C  
HETATM   41  C   UNL     1     -10.204   8.518  69.182  1.00  0.00    -0.218 A  
HETATM   42  C   UNL     1     -10.254   9.697  68.470  1.00  0.00    -0.216 A  
HETATM   43  C   UNL     1      -6.896   7.853  68.415  1.00  0.00    -0.071 C  
HETATM   44  N   UNL     1      -7.711   7.821  67.214  1.00  0.00    -0.110 NA 
HETATM   45  C   UNL     1      -7.012   7.493  65.996  1.00  0.00    -0.061 C  
HETATM   46  C   UNL     1      -7.030   6.031  65.714  1.00  0.00    -0.061 C  
HETATM   47  C   UNL     1      -8.041   5.221  66.060  1.00  0.00    -0.110 C  
BRANCH  29  48
HETATM   48  O   UNL     1     -13.272  11.185  69.853  1.00  0.00     0.181 OA 
HETATM   49  C   UNL     1     -13.057  12.270  70.751  1.00  0.00     0.265 C  
ENDBRANCH  29  48
BRANCH  35  50
HETATM   50  C   UNL     1     -10.600   5.683  66.039  1.00  0.00     0.044 C  
HETATM   51  C   UNL     1     -11.254   4.420  65.504  1.00  0.00     0.597 C  
ENDBRANCH  35  50
BRANCH  30  52
HETATM   52  O   UNL     1      -9.659   3.162  67.427  1.00  0.00    -0.185 OA 
BRANCH  52  53
HETATM   53  C   UNL     1      -8.621   2.369  67.121  1.00  0.00    -0.109 C  
HETATM   54  C   UNL     1      -8.914   1.677  65.806  1.00  0.00    -0.104 C  
HETATM   55  O   UNL     1      -7.559   2.358  67.723  1.00  0.00    -0.055 OA 
ENDBRANCH  52  53
ENDBRANCH  30  52
BRANCH  28  56
HETATM   56  C   UNL     1      -9.707   3.886  70.501  1.00  0.00    -0.177 C  
HETATM   57  O   UNL     1     -10.464   4.123  71.431  1.00  0.00    -0.004 OA 
BRANCH  56  58
HETATM   58  O   UNL     1      -9.061   2.694  70.305  1.00  0.00    -0.088 OA 
HETATM   59  C   UNL     1      -9.736   1.527  70.783  1.00  0.00    -0.060 C  
ENDBRANCH  56  58
ENDBRANCH  28  56
ENDBRANCH  15  25
BRANCH  15  60
HETATM   60  C   UNL     1     -11.384  11.494  66.348  1.00  0.00    -0.176 C  
HETATM   61  O   UNL     1     -10.796  10.571  65.781  1.00  0.00    -0.050 OA 
BRANCH  60  62
HETATM   62  O   UNL     1     -12.410  12.184  65.763  1.00  0.00    -0.564 OA 
HETATM   63  C   UNL     1     -12.346  12.308  64.327  1.00  0.00    -0.427 C  
ENDBRANCH  60  62
ENDBRANCH  15  60
ENDBRANCH   2   3
TORSDOF 10
ENDMDL
MODEL       20
REMARK 921   NORMALIZED FREE ENERGY PREDICTED BY IDOCK:    1.97 KCAL/MOL
REMARK 922        TOTAL FREE ENERGY PREDICTED BY IDOCK:    1.45 KCAL/MOL
REMARK 923 INTER-LIGAND FREE ENERGY PREDICTED BY IDOCK:    0.24 KCAL/MOL
REMARK 924 INTRA-LIGAND FREE ENERGY PREDICTED BY IDOCK:    1.21 KCAL/MOL
REMARK 927      BINDING AFFINITY PREDICTED BY RF-SCORE:    0.00 PKD
ROOT
HETATM    1  C   UNL     1      -8.027  18.960  65.331  1.00  0.00     0.799 C  
HETATM    2  C   UNL     1      -7.159  17.847  65.917  1.00  0.00    -0.298 C  
ENDROOT
BRANCH   2   3
HETATM    3  C   UNL     1      -6.100  18.303  66.961  1.00  0.00    -0.160 C  
HETATM    4  C   UNL     1      -5.159  17.149  67.422  1.00  0.00    -0.143 C  
HETATM    5  O   UNL     1      -5.285  19.312  66.342  1.00  0.00    -0.157 OA 
HETATM    6  C   UNL     1      -5.928  16.280  68.417  1.00  0.00    -0.106 C  
HETATM    7  H   UNL     1      -4.638  19.590  66.980  1.00  0.00     0.000 HD 
HETATM    8  C   UNL     1      -6.195  17.139  69.647  1.00  0.00    -0.235 C  
HETATM    9  N   UNL     1      -7.202  18.140  69.353  1.00  0.00    -0.063 NA 
HETATM   10  C   UNL     1      -8.599  17.665  69.334  1.00  0.00     0.469 C  
HETATM   11  C   UNL     1      -6.801  18.980  68.206  1.00  0.00    -0.246 C  
HETATM   12  C   UNL     1      -8.962  16.327  70.054  1.00  0.00     0.975 C  
HETATM   13  C   UNL     1      -8.861  15.126  69.143  1.00  0.00    -0.221 A  
HETATM   14  C   UNL     1      -7.817  14.212  68.926  1.00  0.00    -0.076 A  
HETATM   15  C   UNL     1      -6.375  13.964  69.547  1.00  0.00    -0.118 C  
HETATM   16  N   UNL     1      -8.202  13.444  67.840  1.00  0.00    -0.148 NA 
HETATM   17  H   UNL     1      -7.600  12.763  67.375  1.00  0.00     0.000 HD 
HETATM   18  C   UNL     1      -5.358  14.893  68.761  1.00  0.00    -0.088 C  
HETATM   19  C   UNL     1      -9.936  14.752  68.262  1.00  0.00    -0.222 A  
HETATM   20  C   UNL     1     -11.249  15.231  68.059  1.00  0.00    -0.330 A  
HETATM   21  C   UNL     1      -9.487  13.710  67.469  1.00  0.00    -0.222 A  
HETATM   22  C   UNL     1     -12.057  14.648  67.081  1.00  0.00    -0.218 A  
HETATM   23  C   UNL     1     -11.567  13.607  66.302  1.00  0.00    -0.372 A  
HETATM   24  C   UNL     1     -10.279  13.119  66.469  1.00  0.00    -0.277 A  
BRANCH  15  25
HETATM   25  C   UNL     1      -6.095  12.421  69.454  1.00  0.00    -0.108 A  
HETATM   26  O   UNL     1      -6.772   7.683  64.883  1.00  0.00    -0.049 OA 
HETATM   27  C   UNL     1      -5.201  10.201  70.073  1.00  0.00    -0.038 A  
HETATM   28  C   UNL     1      -7.186   7.324  66.205  1.00  0.00    -0.078 C  
HETATM   29  C   UNL     1      -5.457  11.568  70.382  1.00  0.00    -0.131 A  
HETATM   30  C   UNL     1      -8.735   7.490  66.362  1.00  0.00    -0.145 C  
HETATM   31  C   UNL     1      -8.152  10.178  66.322  1.00  0.00    -0.124 C  
HETATM   32  C   UNL     1      -5.605   9.678  68.854  1.00  0.00    -0.036 A  
HETATM   33  N   UNL     1      -5.632   8.333  68.346  1.00  0.00    -0.033 N  
HETATM   34  H   UNL     1      -7.070   7.059  64.232  1.00  0.00     0.000 HD 
HETATM   35  C   UNL     1      -9.262   9.019  66.187  1.00  0.00    -0.272 C  
HETATM   36  C   UNL     1      -5.480   7.261  69.213  1.00  0.00    -0.015 C  
HETATM   37  C   UNL     1      -6.689   8.367  67.293  1.00  0.00    -0.063 C  
HETATM   38  O   UNL     1      -5.171   7.282  70.397  1.00  0.00    -0.022 OA 
HETATM   39  C   UNL     1      -6.727   9.787  66.738  1.00  0.00    -0.079 C  
HETATM   40  C   UNL     1      -5.771  10.189  65.599  1.00  0.00    -0.076 C  
HETATM   41  C   UNL     1      -6.258  10.514  67.967  1.00  0.00    -0.054 A  
HETATM   42  C   UNL     1      -6.484  11.848  68.235  1.00  0.00    -0.052 A  
HETATM   43  C   UNL     1      -6.655  10.832  64.544  1.00  0.00     0.308 C  
HETATM   44  N   UNL     1      -7.901  11.128  65.228  1.00  0.00     0.251 NA 
HETATM   45  C   UNL     1      -9.020  11.444  64.375  1.00  0.00     0.201 C  
HETATM   46  C   UNL     1      -9.819  10.238  64.025  1.00  0.00    -0.286 C  
HETATM   47  C   UNL     1      -9.969   9.185  64.843  1.00  0.00     0.845 C  
BRANCH  29  48
HETATM   48  O   UNL     1      -5.173  12.079  71.620  1.00  0.00    -0.325 OA 
HETATM   49  C   UNL     1      -5.405  11.199  72.717  1.00  0.00     0.725 C  
ENDBRANCH  29  48
BRANCH  35  50
HETATM   50  C   UNL     1     -10.244   9.135  67.428  1.00  0.00    -0.310 C  
HETATM   51  C   UNL     1     -10.343  10.397  68.268  1.00  0.00    -0.198 C  
ENDBRANCH  35  50
BRANCH  30  52
HETATM   52  O   UNL     1      -9.746   6.492  66.037  1.00  0.00    -0.005 OA 
BRANCH  52  53
HETATM   53  C   UNL     1     -10.319   5.603  66.861  1.00  0.00    -0.259 C  
HETATM   54  C   UNL     1     -10.301   6.169  68.266  1.00  0.00    -0.239 C  
HETATM   55  O   UNL     1     -10.905   4.597  66.495  1.00  0.00    -0.025 OA 
ENDBRANCH  52  53
ENDBRANCH  30  52
BRANCH  28  56
HETATM   56  C   UNL     1      -6.676   5.918  66.504  1.00  0.00    -0.057 C  
HETATM   57  O   UNL     1      -6.458   5.459  67.616  1.00  0.00    -0.044 OA 
BRANCH  56  58
HETATM   58  O   UNL     1      -6.395   5.275  65.328  1.00  0.00    -0.033 OA 
HETATM   59  C   UNL     1      -5.906   3.937  65.443  1.00  0.00    -0.022 C  
ENDBRANCH  56  58
ENDBRANCH  28  56
ENDBRANCH  15  25
BRANCH  15  60
HETATM   60  C   UNL     1      -6.425  14.280  71.097  1.00  0.00     0.342 C  
HETATM   61  O   UNL     1      -7.411  14.106  71.815  1.00  0.00     2.213 OA 
BRANCH  60  62
HETATM   62  O   UNL     1      -5.218  14.694  71.589  1.00  0.00    -0.147 OA 
HETATM   63  C   UNL     1      -5.199  15.052  72.988  1.00  0.00     0.137 C  
ENDBRANCH  60  62
ENDBRANCH  15  60
ENDBRANCH   2   3
TORSDOF 10
ENDMDL
MODEL       21
REMARK 921   NORMALIZED FREE ENERGY PREDICTED BY IDOCK:    1.99 KCAL/MOL
REMARK 922        TOTAL FREE ENERGY PREDICTED BY IDOCK:    1.49 KCAL/MOL
REMARK 923 INTER-LIGAND FREE ENERGY PREDICTED BY IDOCK:    1.50 KCAL/MOL
REMARK 924 INTRA-LIGAND FREE ENERGY PREDICTED BY IDOCK:   -0.01 KCAL/MOL
REMARK 927      BINDING AFFINITY PREDICTED BY RF-SCORE:    0.00 PKD
ROOT
HETATM    1  C   UNL     1     -10.593   5.959  72.757  1.00  0.00    -0.257 C  
HETATM    2  C   UNL     1      -9.243   6.587  72.409  1.00  0.00    -0.137 C  
ENDROOT
BRANCH   2   3
HETATM    3  C   UNL     1      -8.400   5.820  71.352  1.00  0.00    -0.127 C  
HETATM    4  C   UNL     1      -7.344   6.719  70.641  1.00  0.00    -0.075 C  
HETATM    5  O   UNL     1      -7.692   4.772  72.037  1.00  0.00    -0.090 OA 
HETATM    6  C   UNL     1      -8.072   7.573  69.603  1.00  0.00    -0.127 C  
HETATM    7  H   UNL     1      -7.177   4.303  71.391  1.00  0.00     0.000 HD 
HETATM    8  C   UNL     1      -8.614   6.622  68.544  1.00  0.00    -0.124 C  
HETATM    9  N   UNL     1      -9.729   5.861  69.073  1.00  0.00    -0.131 NA 
HETATM   10  C   UNL     1     -11.019   6.573  69.149  1.00  0.00    -0.323 C  
HETATM   11  C   UNL     1      -9.340   5.120  70.290  1.00  0.00    -0.156 C  
HETATM   12  C   UNL     1     -11.241   7.849  68.275  1.00  0.00     0.514 C  
HETATM   13  C   UNL     1     -10.843   9.122  68.985  1.00  0.00    -0.115 A  
HETATM   14  C   UNL     1      -9.646   9.858  68.968  1.00  0.00    -0.186 A  
HETATM   15  C   UNL     1      -8.265   9.764  68.188  1.00  0.00    -0.109 C  
HETATM   16  N   UNL     1      -9.775  10.817  69.959  1.00  0.00    -0.155 NA 
HETATM   17  H   UNL     1      -9.021  11.435  70.260  1.00  0.00     0.000 HD 
HETATM   18  C   UNL     1      -7.328   8.780  69.006  1.00  0.00    -0.073 C  
HETATM   19  C   UNL     1     -11.735   9.791  69.895  1.00  0.00    -0.073 A  
HETATM   20  C   UNL     1     -13.076   9.582  70.286  1.00  0.00     0.563 A  
HETATM   21  C   UNL     1     -11.034  10.832  70.481  1.00  0.00     0.153 A  
HETATM   22  C   UNL     1     -13.660  10.421  71.236  1.00  0.00    -0.052 A  
HETATM   23  C   UNL     1     -12.922  11.452  71.804  1.00  0.00    -0.519 A  
HETATM   24  C   UNL     1     -11.600  11.678  71.450  1.00  0.00     1.547 A  
BRANCH  15  25
HETATM   25  C   UNL     1      -7.730  11.232  68.026  1.00  0.00    -0.108 A  
HETATM   26  O   UNL     1      -9.793  17.305  69.658  1.00  0.00     0.059 OA 
HETATM   27  C   UNL     1      -6.138  13.065  67.558  1.00  0.00    -0.129 A  
HETATM   28  C   UNL     1      -9.248  17.175  68.341  1.00  0.00    -0.266 C  
HETATM   29  C   UNL     1      -6.485  11.683  67.532  1.00  0.00    -0.087 A  
HETATM   30  C   UNL     1     -10.392  16.996  67.287  1.00  0.00    -0.311 C  
HETATM   31  C   UNL     1     -10.616  14.488  68.397  1.00  0.00    -0.244 C  
HETATM   32  C   UNL     1      -7.041  13.997  68.048  1.00  0.00    -0.145 A  
HETATM   33  N   UNL     1      -7.034  15.436  68.044  1.00  0.00    -0.121 N  
HETATM   34  H   UNL     1     -10.255  18.127  69.776  1.00  0.00     0.000 HD 
HETATM   35  C   UNL     1     -11.272  15.641  67.483  1.00  0.00    -0.245 C  
HETATM   36  C   UNL     1      -6.148  16.123  67.228  1.00  0.00    -0.132 C  
HETATM   37  C   UNL     1      -8.478  15.802  68.144  1.00  0.00    -0.162 C  
HETATM   38  O   UNL     1      -5.218  15.673  66.571  1.00  0.00     0.571 OA 
HETATM   39  C   UNL     1      -9.177  14.676  68.898  1.00  0.00    -0.151 C  
HETATM   40  C   UNL     1      -9.206  14.689  70.437  1.00  0.00     1.471 C  
HETATM   41  C   UNL     1      -8.269  13.547  68.496  1.00  0.00    -0.104 A  
HETATM   42  C   UNL     1      -8.608  12.212  68.511  1.00  0.00    -0.079 A  
HETATM   43  C   UNL     1     -10.665  14.484  70.811  1.00  0.00     0.604 C  
HETATM   44  N   UNL     1     -11.296  13.988  69.601  1.00  0.00    -0.240 NA 
HETATM   45  C   UNL     1     -12.737  14.021  69.592  1.00  0.00     0.167 C  
HETATM   46  C   UNL     1     -13.267  15.288  69.019  1.00  0.00     1.749 C  
HETATM   47  C   UNL     1     -12.647  15.982  68.052  1.00  0.00     1.746 C  
BRANCH  29  48
HETATM   48  O   UNL     1      -5.662  10.757  66.950  1.00  0.00    -0.051 OA 
HETATM   49  C   UNL     1      -5.452  10.915  65.549  1.00  0.00    -0.114 C  
ENDBRANCH  29  48
BRANCH  35  50
HETATM   50  C   UNL     1     -11.327  15.109  65.989  1.00  0.00    -0.221 C  
HETATM   51  C   UNL     1     -12.133  13.883  65.595  1.00  0.00    -0.442 C  
ENDBRANCH  35  50
BRANCH  30  52
HETATM   52  O   UNL     1     -11.121  18.064  66.616  1.00  0.00     0.074 OA 
BRANCH  52  53
HETATM   53  C   UNL     1     -11.031  18.441  65.333  1.00  0.00     0.487 C  
HETATM   54  C   UNL     1     -10.670  19.912  65.287  1.00  0.00     0.010 C  
HETATM   55  O   UNL     1     -11.063  17.675  64.383  1.00  0.00    -0.575 OA 
ENDBRANCH  52  53
ENDBRANCH  30  52
BRANCH  28  56
HETATM   56  C   UNL     1      -8.338  18.371  68.078  1.00  0.00    -0.272 C  
HETATM   57  O   UNL     1      -7.885  18.696  66.990  1.00  0.00    -0.226 OA 
BRANCH  56  58
HETATM   58  O   UNL     1      -8.015  18.969  69.266  1.00  0.00    -0.179 OA 
HETATM   59  C   UNL     1      -6.639  18.909  69.648  1.00  0.00    -0.172 C  
ENDBRANCH  56  58
ENDBRANCH  28  56
ENDBRANCH  15  25
BRANCH  15  60
HETATM   60  C   UNL     1      -8.543   9.263  66.713  1.00  0.00    -0.127 C  
HETATM   61  O   UNL     1      -8.047   8.252  66.211  1.00  0.00    -0.103 OA 
BRANCH  60  62
HETATM   62  O   UNL     1      -9.471  10.029  66.063  1.00  0.00    -0.172 OA 
HETATM   63  C   UNL     1      -9.047  10.598  64.806  1.00  0.00    -0.209 C  
ENDBRANCH  60  62
ENDBRANCH  15  60
ENDBRANCH   2   3
TORSDOF 10
ENDMDL
MODEL       22
REMARK 921   NORMALIZED FREE ENERGY PREDICTED BY IDOCK:    2.01 KCAL/MOL
REMARK 922        TOTAL FREE ENERGY PREDICTED BY IDOCK:    1.52 KCAL/MOL
REMARK 923 INTER-LIGAND FREE ENERGY PREDICTED BY IDOCK:   -0.74 KCAL/MOL
REMARK 924 INTRA-LIGAND FREE ENERGY PREDICTED BY IDOCK:    2.26 KCAL/MOL
REMARK 927      BINDING AFFINITY PREDICTED BY RF-SCORE:    0.00 PKD
ROOT
HETATM    1  C   UNL     1      -6.697   1.864  66.895  1.00  0.00    -0.038 C  
HETATM    2  C   UNL     1      -5.947   2.992  66.186  1.00  0.00    -0.023 C  
ENDROOT
BRANCH   2   3
HETATM    3  C   UNL     1      -6.527   3.419  64.808  1.00  0.00    -0.031 C  
HETATM    4  C   UNL     1      -6.416   4.952  64.545  1.00  0.00    -0.038 C  
HETATM    5  O   UNL     1      -5.768   2.745  63.789  1.00  0.00    -0.009 OA 
HETATM    6  C   UNL     1      -7.514   5.649  65.347  1.00  0.00    -0.074 C  
HETATM    7  H   UNL     1      -6.122   3.005  62.947  1.00  0.00     0.000 HD 
HETATM    8  C   UNL     1      -8.847   5.204  64.759  1.00  0.00    -0.100 C  
HETATM    9  N   UNL     1      -9.116   3.823  65.110  1.00  0.00    -0.135 NA 
HETATM   10  C   UNL     1      -9.599   3.587  66.484  1.00  0.00    -0.099 C  
HETATM   11  C   UNL     1      -8.025   2.936  64.660  1.00  0.00    -0.078 C  
HETATM   12  C   UNL     1     -10.224   4.772  67.289  1.00  0.00    -0.157 C  
HETATM   13  C   UNL     1      -9.201   5.530  68.104  1.00  0.00    -0.116 A  
HETATM   14  C   UNL     1      -8.466   6.692  67.819  1.00  0.00    -0.122 A  
HETATM   15  C   UNL     1      -8.417   7.743  66.627  1.00  0.00    -0.129 C  
HETATM   16  N   UNL     1      -7.537   6.815  68.839  1.00  0.00    -0.102 NA 
HETATM   17  H   UNL     1      -6.786   7.505  68.851  1.00  0.00     0.000 HD 
HETATM   18  C   UNL     1      -7.417   7.173  65.538  1.00  0.00    -0.083 C  
HETATM   19  C   UNL     1      -8.787   5.079  69.406  1.00  0.00    -0.116 A  
HETATM   20  C   UNL     1      -9.193   4.026  70.255  1.00  0.00    -0.210 A  
HETATM   21  C   UNL     1      -7.752   5.898  69.825  1.00  0.00    -0.089 A  
HETATM   22  C   UNL     1      -8.556   3.839  71.483  1.00  0.00    -0.112 A  
HETATM   23  C   UNL     1      -7.518   4.680  71.865  1.00  0.00    -0.083 A  
HETATM   24  C   UNL     1      -7.088   5.718  71.051  1.00  0.00    -0.068 A  
BRANCH  15  25
HETATM   25  C   UNL     1      -8.020   9.127  67.255  1.00  0.00    -0.102 A  
HETATM   26  O   UNL     1     -11.046  14.876  68.522  1.00  0.00    -0.246 OA 
HETATM   27  C   UNL     1      -6.674  10.798  68.486  1.00  0.00    -0.057 A  
HETATM   28  C   UNL     1      -9.736  14.983  67.956  1.00  0.00    -0.213 C  
HETATM   29  C   UNL     1      -6.812   9.515  67.879  1.00  0.00    -0.074 A  
HETATM   30  C   UNL     1      -9.821  15.202  66.408  1.00  0.00    -0.280 C  
HETATM   31  C   UNL     1     -10.578  12.556  66.377  1.00  0.00    -0.247 C  
HETATM   32  C   UNL     1      -7.725  11.700  68.446  1.00  0.00    -0.130 A  
HETATM   33  N   UNL     1      -7.816  13.088  68.814  1.00  0.00    -0.032 N  
HETATM   34  H   UNL     1     -11.515  15.701  68.499  1.00  0.00     0.000 HD 
HETATM   35  C   UNL     1     -10.499  13.964  65.597  1.00  0.00    -0.320 C  
HETATM   36  C   UNL     1      -6.661  13.824  69.033  1.00  0.00    -0.108 C  
HETATM   37  C   UNL     1      -8.951  13.605  67.994  1.00  0.00    -0.188 C  
HETATM   38  O   UNL     1      -5.506  13.421  69.100  1.00  0.00    -0.073 OA 
HETATM   39  C   UNL     1      -9.898  12.435  67.749  1.00  0.00    -0.203 C  
HETATM   40  C   UNL     1     -10.982  12.097  68.789  1.00  0.00    -0.274 C  
HETATM   41  C   UNL     1      -8.890  11.322  67.803  1.00  0.00    -0.141 A  
HETATM   42  C   UNL     1      -9.054  10.074  67.241  1.00  0.00    -0.152 A  
HETATM   43  C   UNL     1     -12.277  12.002  68.000  1.00  0.00     0.312 C  
HETATM   44  N   UNL     1     -11.864  11.885  66.613  1.00  0.00    -0.590 NA 
HETATM   45  C   UNL     1     -12.899  12.105  65.634  1.00  0.00     1.577 C  
HETATM   46  C   UNL     1     -12.972  13.528  65.203  1.00  0.00    -0.263 C  
HETATM   47  C   UNL     1     -11.906  14.339  65.139  1.00  0.00    -0.384 C  
BRANCH  29  48
HETATM   48  O   UNL     1      -5.754   8.650  67.803  1.00  0.00    -0.038 OA 
HETATM   49  C   UNL     1      -5.129   8.554  66.526  1.00  0.00    -0.027 C  
ENDBRANCH  29  48
BRANCH  35  50
HETATM   50  C   UNL     1      -9.472  13.801  64.398  1.00  0.00     1.720 C  
HETATM   51  C   UNL     1      -9.396  12.535  63.562  1.00  0.00     1.024 C  
ENDBRANCH  35  50
BRANCH  30  52
HETATM   52  O   UNL     1      -9.957  16.481  65.723  1.00  0.00    -0.436 OA 
BRANCH  52  53
HETATM   53  C   UNL     1      -9.509  17.679  66.124  1.00  0.00    -0.158 C  
HETATM   54  C   UNL     1      -8.003  17.708  65.966  1.00  0.00    -0.175 C  
HETATM   55  O   UNL     1     -10.225  18.629  66.399  1.00  0.00    -0.379 OA 
ENDBRANCH  52  53
ENDBRANCH  30  52
BRANCH  28  56
HETATM   56  C   UNL     1      -8.979  16.079  68.699  1.00  0.00    -0.210 C  
HETATM   57  O   UNL     1      -7.763  16.179  68.779  1.00  0.00    -0.174 OA 
BRANCH  56  58
HETATM   58  O   UNL     1      -9.871  16.883  69.358  1.00  0.00    -0.185 OA 
HETATM   59  C   UNL     1      -9.378  18.157  69.780  1.00  0.00     1.009 C  
ENDBRANCH  56  58
ENDBRANCH  28  56
ENDBRANCH  15  25
BRANCH  15  60
HETATM   60  C   UNL     1      -9.883   7.951  66.069  1.00  0.00     0.196 C  
HETATM   61  O   UNL     1     -10.881   7.359  66.484  1.00  0.00    -0.033 OA 
BRANCH  60  62
HETATM   62  O   UNL     1      -9.950   8.932  65.118  1.00  0.00     0.383 OA 
HETATM   63  C   UNL     1      -9.227   8.673  63.896  1.00  0.00     0.946 C  
ENDBRANCH  60  62
ENDBRANCH  15  60
ENDBRANCH   2   3
TORSDOF 10
ENDMDL
MODEL       23
REMARK 921   NORMALIZED FREE ENERGY PREDICTED BY IDOCK:    2.64 KCAL/MOL
REMARK 922        TOTAL FREE ENERGY PREDICTED BY IDOCK:    2.50 KCAL/MOL
REMARK 923 INTER-LIGAND FREE ENERGY PREDICTED BY IDOCK:    3.07 KCAL/MOL
REMARK 924 INTRA-LIGAND FREE ENERGY PREDICTED BY IDOCK:   -0.57 KCAL/MOL
REMARK 927      BINDING AFFINITY PREDICTED BY RF-SCORE:    0.00 PKD
ROOT
HETATM    1  C   UNL     1     -11.454   3.423  72.754  1.00  0.00     0.428 C  
HETATM    2  C   UNL     1     -10.385   4.345  72.166  1.00  0.00    -0.213 C  
ENDROOT
BRANCH   2   3
HETATM    3  C   UNL     1      -9.356   4.913  73.184  1.00  0.00    -0.121 C  
HETATM    4  C   UNL     1      -9.577   6.423  73.500  1.00  0.00    -0.166 C  
HETATM    5  O   UNL     1      -9.510   4.182  74.413  1.00  0.00    -0.105 OA 
HETATM    6  C   UNL     1      -9.032   7.237  72.326  1.00  0.00    -0.150 C  
HETATM    7  H   UNL     1      -8.881   4.529  75.034  1.00  0.00     0.000 HD 
HETATM    8  C   UNL     1      -7.524   7.017  72.294  1.00  0.00    -0.086 C  
HETATM    9  N   UNL     1      -7.221   5.676  71.835  1.00  0.00    -0.088 NA 
HETATM   10  C   UNL     1      -7.325   5.451  70.380  1.00  0.00    -0.070 C  
HETATM   11  C   UNL     1      -7.878   4.660  72.682  1.00  0.00    -0.088 C  
HETATM   12  C   UNL     1      -7.278   6.677  69.412  1.00  0.00    -0.090 C  
HETATM   13  C   UNL     1      -8.649   7.240  69.115  1.00  0.00    -0.133 A  
HETATM   14  C   UNL     1      -9.365   8.295  69.705  1.00  0.00    -0.158 A  
HETATM   15  C   UNL     1      -9.071   9.380  70.829  1.00  0.00    -0.268 C  
HETATM   16  N   UNL     1     -10.641   8.235  69.170  1.00  0.00    -0.325 NA 
HETATM   17  H   UNL     1     -11.424   8.807  69.488  1.00  0.00     0.000 HD 
HETATM   18  C   UNL     1      -9.428   8.720  72.226  1.00  0.00    -0.246 C  
HETATM   19  C   UNL     1      -9.494   6.676  68.097  1.00  0.00    -0.115 A  
HETATM   20  C   UNL     1      -9.325   5.656  67.135  1.00  0.00    -0.115 A  
HETATM   21  C   UNL     1     -10.721   7.317  68.166  1.00  0.00    -0.134 A  
HETATM   22  C   UNL     1     -10.379   5.324  66.282  1.00  0.00    -0.287 A  
HETATM   23  C   UNL     1     -11.596   5.987  66.387  1.00  0.00     1.147 A  
HETATM   24  C   UNL     1     -11.799   6.986  67.327  1.00  0.00     1.842 A  
BRANCH  15  25
HETATM   25  C   UNL     1      -9.898  10.662  70.454  1.00  0.00     0.920 A  
HETATM   26  O   UNL     1      -9.071  15.940  66.545  1.00  0.00    -0.232 OA 
HETATM   27  C   UNL     1     -11.841  12.181  70.279  1.00  0.00    -0.339 A  
HETATM   28  C   UNL     1      -9.614  16.214  67.841  1.00  0.00    -0.223 C  
HETATM   29  C   UNL     1     -11.222  11.010  70.805  1.00  0.00     0.474 A  
HETATM   30  C   UNL     1      -8.487  16.680  68.823  1.00  0.00    -0.255 C  
HETATM   31  C   UNL     1      -7.727  14.037  68.730  1.00  0.00    -0.112 C  
HETATM   32  C   UNL     1     -11.135  13.016  69.427  1.00  0.00    -0.076 A  
HETATM   33  N   UNL     1     -11.435  14.316  68.889  1.00  0.00    -0.267 N  
HETATM   34  H   UNL     1      -8.783  16.729  66.102  1.00  0.00     0.000 HD 
HETATM   35  C   UNL     1      -7.344  15.556  69.106  1.00  0.00    -0.177 C  
HETATM   36  C   UNL     1     -12.464  15.071  69.431  1.00  0.00    -0.041 C  
HETATM   37  C   UNL     1     -10.094  14.896  68.582  1.00  0.00    -0.237 C  
HETATM   38  O   UNL     1     -13.300  14.729  70.258  1.00  0.00    -0.083 OA 
HETATM   39  C   UNL     1      -9.159  13.730  68.272  1.00  0.00    -0.195 C  
HETATM   40  C   UNL     1      -9.092  13.163  66.842  1.00  0.00    -0.231 C  
HETATM   41  C   UNL     1      -9.829  12.683  69.117  1.00  0.00     0.437 A  
HETATM   42  C   UNL     1      -9.225  11.538  69.589  1.00  0.00     1.132 A  
HETATM   43  C   UNL     1      -7.612  13.126  66.497  1.00  0.00     1.120 C  
HETATM   44  N   UNL     1      -6.927  13.263  67.770  1.00  0.00    -0.137 NA 
HETATM   45  C   UNL     1      -5.523  13.582  67.689  1.00  0.00    -0.007 C  
HETATM   46  C   UNL     1      -5.278  15.050  67.714  1.00  0.00    -0.046 C  
HETATM   47  C   UNL     1      -6.052  15.920  68.379  1.00  0.00    -0.105 C  
BRANCH  29  48
HETATM   48  O   UNL     1     -11.855  10.231  71.736  1.00  0.00    -0.215 OA 
HETATM   49  C   UNL     1     -13.118  10.714  72.186  1.00  0.00    -0.276 C  
ENDBRANCH  29  48
BRANCH  35  50
HETATM   50  C   UNL     1      -7.222  15.653  70.686  1.00  0.00     1.213 C  
HETATM   51  C   UNL     1      -6.164  14.891  71.465  1.00  0.00     0.507 C  
ENDBRANCH  35  50
BRANCH  30  52
HETATM   52  O   UNL     1      -8.008  18.044  69.002  1.00  0.00    -0.199 OA 
BRANCH  52  53
HETATM   53  C   UNL     1      -8.041  19.049  68.115  1.00  0.00    -0.312 C  
HETATM   54  C   UNL     1      -7.010  18.776  67.040  1.00  0.00    -0.212 C  
HETATM   55  O   UNL     1      -8.885  19.932  68.101  1.00  0.00    -0.315 OA 
ENDBRANCH  52  53
ENDBRANCH  30  52
BRANCH  28  56
HETATM   56  C   UNL     1     -10.755  17.214  67.682  1.00  0.00    -0.302 C  
HETATM   57  O   UNL     1     -11.122  18.017  68.528  1.00  0.00     0.138 OA 
BRANCH  56  58
HETATM   58  O   UNL     1     -11.381  17.005  66.483  1.00  0.00     0.439 OA 
HETATM   59  C   UNL     1     -11.049  17.915  65.432  1.00  0.00     0.568 C  
ENDBRANCH  56  58
ENDBRANCH  28  56
ENDBRANCH  15  25
BRANCH  15  60
HETATM   60  C   UNL     1      -7.556   9.824  70.727  1.00  0.00     0.118 C  
HETATM   61  O   UNL     1      -6.975  10.095  69.675  1.00  0.00    -0.074 OA 
BRANCH  60  62
HETATM   62  O   UNL     1      -6.964   9.962  71.953  1.00  0.00     0.202 OA 
HETATM   63  C   UNL     1      -5.552   9.670  72.005  1.00  0.00     0.012 C  
ENDBRANCH  60  62
ENDBRANCH  15  60
ENDBRANCH   2   3
TORSDOF 10
ENDMDL
MODEL       24
REMARK 921   NORMALIZED FREE ENERGY PREDICTED BY IDOCK:    2.80 KCAL/MOL
REMARK 922        TOTAL FREE ENERGY PREDICTED BY IDOCK:    2.77 KCAL/MOL
REMARK 923 INTER-LIGAND FREE ENERGY PREDICTED BY IDOCK:   -0.61 KCAL/MOL
REMARK 924 INTRA-LIGAND FREE ENERGY PREDICTED BY IDOCK:    3.38 KCAL/MOL
REMARK 927      BINDING AFFINITY PREDICTED BY RF-SCORE:    0.00 PKD
ROOT
HETATM    1  C   UNL     1      -9.453   4.496  71.087  1.00  0.00    -0.226 C  
HETATM    2  C   UNL     1      -8.146   4.231  70.340  1.00  0.00    -0.059 C  
ENDROOT
BRANCH   2   3
HETATM    3  C   UNL     1      -6.936   5.104  70.776  1.00  0.00    -0.055 C  
HETATM    4  C   UNL     1      -7.102   6.610  70.409  1.00  0.00    -0.068 C  
HETATM    5  O   UNL     1      -6.827   5.012  72.207  1.00  0.00    -0.057 OA 
HETATM    6  C   UNL     1      -6.817   6.766  68.916  1.00  0.00    -0.065 C  
HETATM    7  H   UNL     1      -6.087   5.545  72.474  1.00  0.00     0.000 HD 
HETATM    8  C   UNL     1      -5.347   6.429  68.704  1.00  0.00    -0.011 C  
HETATM    9  N   UNL     1      -5.131   5.003  68.855  1.00  0.00     0.000 NA 
HETATM   10  C   UNL     1      -5.529   4.164  67.708  1.00  0.00    -0.016 C  
HETATM   11  C   UNL     1      -5.590   4.530  70.177  1.00  0.00    -0.012 C  
HETATM   12  C   UNL     1      -5.694   4.821  66.300  1.00  0.00    -0.018 C  
HETATM   13  C   UNL     1      -7.102   5.308  66.043  1.00  0.00    -0.068 A  
HETATM   14  C   UNL     1      -7.692   6.571  66.214  1.00  0.00    -0.095 A  
HETATM   15  C   UNL     1      -7.184   8.014  66.647  1.00  0.00    -0.081 C  
HETATM   16  N   UNL     1      -9.050   6.387  66.014  1.00  0.00    -0.269 NA 
HETATM   17  H   UNL     1      -9.757   7.105  66.178  1.00  0.00     0.000 HD 
HETATM   18  C   UNL     1      -7.240   8.077  68.230  1.00  0.00    -0.093 C  
HETATM   19  C   UNL     1      -8.133   4.423  65.570  1.00  0.00    -0.105 A  
HETATM   20  C   UNL     1      -8.155   3.071  65.161  1.00  0.00    -0.086 A  
HETATM   21  C   UNL     1      -9.325   5.128  65.570  1.00  0.00    -0.113 A  
HETATM   22  C   UNL     1      -9.359   2.484  64.767  1.00  0.00    -0.127 A  
HETATM   23  C   UNL     1     -10.535   3.225  64.786  1.00  0.00     0.237 A  
HETATM   24  C   UNL     1     -10.550   4.551  65.191  1.00  0.00    -0.132 A  
BRANCH  15  25
HETATM   25  C   UNL     1      -8.083   9.059  65.894  1.00  0.00    -0.108 A  
HETATM   26  O   UNL     1      -9.462  15.508  66.469  1.00  0.00    -0.235 OA 
HETATM   27  C   UNL     1      -9.507  10.013  64.112  1.00  0.00    -0.314 A  
HETATM   28  C   UNL     1     -10.586  14.659  66.215  1.00  0.00    -0.306 C  
HETATM   29  C   UNL     1      -8.829   8.908  64.703  1.00  0.00    -0.055 A  
HETATM   30  C   UNL     1     -11.327  14.312  67.551  1.00  0.00    -0.326 C  
HETATM   31  C   UNL     1      -9.121  12.733  68.014  1.00  0.00    -0.207 C  
HETATM   32  C   UNL     1      -9.466  11.258  64.720  1.00  0.00    -0.194 A  
HETATM   33  N   UNL     1     -10.171  12.483  64.452  1.00  0.00    -0.332 N  
HETATM   34  H   UNL     1      -9.723  16.378  66.742  1.00  0.00     0.000 HD 
HETATM   35  C   UNL     1     -10.427  13.465  68.610  1.00  0.00    -0.237 C  
HETATM   36  C   UNL     1     -11.285  12.475  63.626  1.00  0.00    -0.483 C  
HETATM   37  C   UNL     1     -10.149  13.204  65.759  1.00  0.00    -0.285 C  
HETATM   38  O   UNL     1     -11.710  11.559  62.935  1.00  0.00     0.069 OA 
HETATM   39  C   UNL     1      -8.889  12.761  66.497  1.00  0.00    -0.046 C  
HETATM   40  C   UNL     1      -7.555  13.481  66.232  1.00  0.00     2.182 C  
HETATM   41  C   UNL     1      -8.760  11.387  65.902  1.00  0.00    -0.101 A  
HETATM   42  C   UNL     1      -8.070  10.338  66.471  1.00  0.00    -0.121 A  
HETATM   43  C   UNL     1      -7.016  13.842  67.606  1.00  0.00    -0.175 C  
HETATM   44  N   UNL     1      -7.777  13.025  68.534  1.00  0.00    -0.128 NA 
HETATM   45  C   UNL     1      -7.689  13.411  69.921  1.00  0.00     1.409 C  
HETATM   46  C   UNL     1      -8.763  14.365  70.309  1.00  0.00     1.716 C  
HETATM   47  C   UNL     1      -9.990  14.360  69.767  1.00  0.00     0.420 C  
BRANCH  29  48
HETATM   48  O   UNL     1      -8.949   7.645  64.188  1.00  0.00     0.635 OA 
HETATM   49  C   UNL     1      -8.497   7.483  62.846  1.00  0.00     0.199 C  
ENDBRANCH  29  48
BRANCH  35  50
HETATM   50  C   UNL     1     -11.462  12.343  69.042  1.00  0.00    -0.352 C  
HETATM   51  C   UNL     1     -12.210  12.396  70.364  1.00  0.00    -0.370 C  
ENDBRANCH  35  50
BRANCH  30  52
HETATM   52  O   UNL     1     -12.373  15.101  68.187  1.00  0.00     0.029 OA 
BRANCH  52  53
HETATM   53  C   UNL     1     -12.236  16.026  69.148  1.00  0.00     0.099 C  
HETATM   54  C   UNL     1     -11.230  17.059  68.682  1.00  0.00    -0.003 C  
HETATM   55  O   UNL     1     -12.940  16.099  70.143  1.00  0.00     0.011 OA 
ENDBRANCH  52  53
ENDBRANCH  30  52
BRANCH  28  56
HETATM   56  C   UNL     1     -11.469  15.332  65.169  1.00  0.00    -0.260 C  
HETATM   57  O   UNL     1     -12.541  14.908  64.761  1.00  0.00    -0.364 OA 
BRANCH  56  58
HETATM   58  O   UNL     1     -10.829  16.435  64.673  1.00  0.00    -0.717 OA 
HETATM   59  C   UNL     1     -10.857  17.604  65.496  1.00  0.00     0.056 C  
ENDBRANCH  56  58
ENDBRANCH  28  56
ENDBRANCH  15  25
BRANCH  15  60
HETATM   60  C   UNL     1      -5.727   8.236  66.073  1.00  0.00    -0.043 C  
HETATM   61  O   UNL     1      -5.201   7.535  65.207  1.00  0.00    -0.028 OA 
BRANCH  60  62
HETATM   62  O   UNL     1      -5.125   9.354  66.582  1.00  0.00    -0.035 OA 
HETATM   63  C   UNL     1      -5.211  10.541  65.766  1.00  0.00    -0.091 C  
ENDBRANCH  60  62
ENDBRANCH  15  60
ENDBRANCH   2   3
TORSDOF 10
ENDMDL
MODEL       25
REMARK 921   NORMALIZED FREE ENERGY PREDICTED BY IDOCK:    3.00 KCAL/MOL
REMARK 922        TOTAL FREE ENERGY PREDICTED BY IDOCK:    3.08 KCAL/MOL
REMARK 923 INTER-LIGAND FREE ENERGY PREDICTED BY IDOCK:    0.11 KCAL/MOL
REMARK 924 INTRA-LIGAND FREE ENERGY PREDICTED BY IDOCK:    2.97 KCAL/MOL
REMARK 927      BINDING AFFINITY PREDICTED BY RF-SCORE:    0.00 PKD
ROOT
HETATM    1  C   UNL     1     -12.146   6.320  66.534  1.00  0.00     3.162 C  
HETATM    2  C   UNL     1     -11.166   7.136  67.377  1.00  0.00    -0.057 C  
ENDROOT
BRANCH   2   3
HETATM    3  C   UNL     1      -9.789   6.466  67.641  1.00  0.00    -0.121 C  
HETATM    4  C   UNL     1      -8.866   7.308  68.573  1.00  0.00    -0.129 C  
HETATM    5  O   UNL     1     -10.034   5.207  68.291  1.00  0.00    -0.152 OA 
HETATM    6  C   UNL     1      -8.276   8.451  67.746  1.00  0.00    -0.126 C  
HETATM    7  H   UNL     1      -9.193   4.797  68.451  1.00  0.00     0.000 HD 
HETATM    8  C   UNL     1      -7.371   7.821  66.695  1.00  0.00    -0.088 C  
HETATM    9  N   UNL     1      -8.165   7.157  65.680  1.00  0.00    -0.132 NA 
HETATM   10  C   UNL     1      -8.790   8.035  64.671  1.00  0.00     0.372 C  
HETATM   11  C   UNL     1      -9.057   6.142  66.277  1.00  0.00    -0.154 C  
HETATM   12  C   UNL     1      -8.223   9.475  64.455  1.00  0.00    -0.148 C  
HETATM   13  C   UNL     1      -8.898  10.507  65.328  1.00  0.00    -0.205 A  
HETATM   14  C   UNL     1      -8.546  11.034  66.581  1.00  0.00    -0.157 A  
HETATM   15  C   UNL     1      -7.315  10.877  67.576  1.00  0.00    -0.096 C  
HETATM   16  N   UNL     1      -9.629  11.791  66.995  1.00  0.00    -0.184 NA 
HETATM   17  H   UNL     1      -9.715  12.212  67.921  1.00  0.00     0.000 HD 
HETATM   18  C   UNL     1      -7.610   9.619  68.494  1.00  0.00    -0.080 C  
HETATM   19  C   UNL     1     -10.145  11.118  64.951  1.00  0.00    -0.345 A  
HETATM   20  C   UNL     1     -10.963  11.051  63.801  1.00  0.00    -0.090 A  
HETATM   21  C   UNL     1     -10.567  11.902  66.012  1.00  0.00    -0.265 A  
HETATM   22  C   UNL     1     -12.158  11.771  63.756  1.00  0.00    -0.463 A  
HETATM   23  C   UNL     1     -12.548  12.543  64.844  1.00  0.00    -0.469 A  
HETATM   24  C   UNL     1     -11.774  12.623  65.992  1.00  0.00    -0.470 A  
BRANCH  15  25
HETATM   25  C   UNL     1      -7.159  12.246  68.330  1.00  0.00    -0.094 A  
HETATM   26  O   UNL     1     -10.418  18.002  68.567  1.00  0.00    -0.357 OA 
HETATM   27  C   UNL     1      -6.327  13.880  69.989  1.00  0.00    -0.099 A  
HETATM   28  C   UNL     1      -8.992  18.105  68.499  1.00  0.00    -0.296 C  
HETATM   29  C   UNL     1      -6.248  12.610  69.347  1.00  0.00    -0.113 A  
HETATM   30  C   UNL     1      -8.527  18.352  67.025  1.00  0.00    -0.253 C  
HETATM   31  C   UNL     1      -9.233  15.715  66.677  1.00  0.00    -0.266 C  
HETATM   32  C   UNL     1      -7.294  14.794  69.599  1.00  0.00    -0.114 A  
HETATM   33  N   UNL     1      -7.504  16.176  69.941  1.00  0.00     0.227 N  
HETATM   34  H   UNL     1     -10.847  18.832  68.396  1.00  0.00     0.000 HD 
HETATM   35  C   UNL     1      -8.880  17.135  66.003  1.00  0.00    -0.142 C  
HETATM   36  C   UNL     1      -6.497  16.896  70.566  1.00  0.00     0.974 C  
HETATM   37  C   UNL     1      -8.276  16.719  68.784  1.00  0.00    -0.250 C  
HETATM   38  O   UNL     1      -5.442  16.481  71.027  1.00  0.00    -0.086 OA 
HETATM   39  C   UNL     1      -9.080  15.563  68.197  1.00  0.00    -0.184 C  
HETATM   40  C   UNL     1     -10.462  15.218  68.783  1.00  0.00    -0.237 C  
HETATM   41  C   UNL     1      -8.159  14.439  68.581  1.00  0.00    -0.146 A  
HETATM   42  C   UNL     1      -8.119  13.203  67.972  1.00  0.00    -0.157 A  
HETATM   43  C   UNL     1     -11.397  15.150  67.587  1.00  0.00    -0.321 C  
HETATM   44  N   UNL     1     -10.523  15.053  66.432  1.00  0.00    -0.285 NA 
HETATM   45  C   UNL     1     -11.146  15.301  65.156  1.00  0.00    -0.404 C  
HETATM   46  C   UNL     1     -11.058  16.732  64.756  1.00  0.00    -0.025 C  
HETATM   47  C   UNL     1     -10.035  17.533  65.087  1.00  0.00     1.112 C  
BRANCH  29  48
HETATM   48  O   UNL     1      -5.233  11.735  69.631  1.00  0.00    -0.063 OA 
HETATM   49  C   UNL     1      -5.482  10.834  70.706  1.00  0.00    -0.112 C  
ENDBRANCH  29  48
BRANCH  35  50
HETATM   50  C   UNL     1      -7.497  16.983  65.239  1.00  0.00     2.379 C  
HETATM   51  C   UNL     1      -6.164  17.257  65.914  1.00  0.00     0.140 C  
ENDBRANCH  35  50
BRANCH  30  52
HETATM   52  O   UNL     1      -8.409  19.644  66.362  1.00  0.00    -0.323 OA 
BRANCH  52  53
HETATM   53  C   UNL     1      -7.322  20.175  65.783  1.00  0.00    -0.267 C  
HETATM   54  C   UNL     1      -6.344  20.574  66.868  1.00  0.00    -0.276 C  
HETATM   55  O   UNL     1      -7.105  20.165  64.581  1.00  0.00    -0.237 OA 
ENDBRANCH  52  53
ENDBRANCH  30  52
BRANCH  28  56
HETATM   56  C   UNL     1      -8.542  19.181  69.483  1.00  0.00     0.340 C  
HETATM   57  O   UNL     1      -9.278  19.850  70.194  1.00  0.00     0.526 OA 
BRANCH  56  58
HETATM   58  O   UNL     1      -7.189  19.361  69.375  1.00  0.00    -0.327 OA 
HETATM   59  C   UNL     1      -6.606  20.306  70.275  1.00  0.00    -0.076 C  
ENDBRANCH  56  58
ENDBRANCH  28  56
ENDBRANCH  15  25
BRANCH  15  60
HETATM   60  C   UNL     1      -5.989  10.722  66.727  1.00  0.00    -0.077 C  
HETATM   61  O   UNL     1      -5.147   9.839  66.899  1.00  0.00    -0.039 OA 
BRANCH  60  62
HETATM   62  O   UNL     1      -5.905  11.633  65.710  1.00  0.00     0.020 OA 
HETATM   63  C   UNL     1      -5.184  11.200  64.537  1.00  0.00     0.412 C  
ENDBRANCH  60  62
ENDBRANCH  15  60
ENDBRANCH   2   3
TORSDOF 10
ENDMDL
MODEL       26
REMARK 921   NORMALIZED FREE ENERGY PREDICTED BY IDOCK:    3.67 KCAL/MOL
REMARK 922        TOTAL FREE ENERGY PREDICTED BY IDOCK:    4.14 KCAL/MOL
REMARK 923 INTER-LIGAND FREE ENERGY PREDICTED BY IDOCK:    4.42 KCAL/MOL
REMARK 924 INTRA-LIGAND FREE ENERGY PREDICTED BY IDOCK:   -0.28 KCAL/MOL
REMARK 927      BINDING AFFINITY PREDICTED BY RF-SCORE:    0.00 PKD
ROOT
HETATM    1  C   UNL     1      -6.662  18.647  64.767  1.00  0.00     0.600 C  
HETATM    2  C   UNL     1      -8.031  19.138  65.237  1.00  0.00     0.980 C  
ENDROOT
BRANCH   2   3
HETATM    3  C   UNL     1      -8.042  19.895  66.595  1.00  0.00    -0.319 C  
HETATM    4  C   UNL     1      -7.283  19.136  67.726  1.00  0.00    -0.266 C  
HETATM    5  O   UNL     1      -7.382  21.157  66.396  1.00  0.00    -0.511 OA 
HETATM    6  C   UNL     1      -8.184  18.005  68.222  1.00  0.00    -0.298 C  
HETATM    7  H   UNL     1      -7.389  21.619  67.225  1.00  0.00     0.000 HD 
HETATM    8  C   UNL     1      -9.397  18.655  68.876  1.00  0.00    -0.239 C  
HETATM    9  N   UNL     1     -10.258  19.240  67.867  1.00  0.00    -0.388 NA 
HETATM   10  C   UNL     1     -11.116  18.297  67.123  1.00  0.00     0.169 C  
HETATM   11  C   UNL     1      -9.524  20.219  67.040  1.00  0.00    -0.412 C  
HETATM   12  C   UNL     1     -11.407  16.887  67.729  1.00  0.00     0.153 C  
HETATM   13  C   UNL     1     -10.403  15.844  67.294  1.00  0.00    -0.293 A  
HETATM   14  C   UNL     1      -9.228  15.376  67.905  1.00  0.00    -0.180 A  
HETATM   15  C   UNL     1      -8.484  15.635  69.286  1.00  0.00    -0.265 C  
HETATM   16  N   UNL     1      -8.605  14.571  66.966  1.00  0.00    -0.263 NA 
HETATM   17  H   UNL     1      -7.672  14.174  67.079  1.00  0.00     0.000 HD 
HETATM   18  C   UNL     1      -7.551  16.901  69.087  1.00  0.00    -0.157 C  
HETATM   19  C   UNL     1     -10.529  15.150  66.039  1.00  0.00    -0.330 A  
HETATM   20  C   UNL     1     -11.507  15.135  65.020  1.00  0.00    -0.339 A  
HETATM   21  C   UNL     1      -9.393  14.375  65.871  1.00  0.00    -0.065 A  
HETATM   22  C   UNL     1     -11.315  14.345  63.885  1.00  0.00     0.358 A  
HETATM   23  C   UNL     1     -10.159  13.586  63.752  1.00  0.00     1.359 A  
HETATM   24  C   UNL     1      -9.174  13.586  64.729  1.00  0.00     1.488 A  
BRANCH  15  25
HETATM   25  C   UNL     1      -7.746  14.301  69.664  1.00  0.00     0.303 A  
HETATM   26  O   UNL     1      -7.486   8.119  67.314  1.00  0.00    -0.087 OA 
HETATM   27  C   UNL     1      -6.123  12.801  70.773  1.00  0.00     0.256 A  
HETATM   28  C   UNL     1      -7.588   8.231  68.737  1.00  0.00    -0.101 C  
HETATM   29  C   UNL     1      -6.755  14.072  70.645  1.00  0.00     0.378 A  
HETATM   30  C   UNL     1      -9.075   8.066  69.198  1.00  0.00    -0.145 C  
HETATM   31  C   UNL     1      -9.382  10.568  68.095  1.00  0.00    -0.148 C  
HETATM   32  C   UNL     1      -6.498  11.754  69.945  1.00  0.00    -0.063 A  
HETATM   33  N   UNL     1      -6.165  10.354  69.954  1.00  0.00    -0.068 N  
HETATM   34  H   UNL     1      -7.655   7.235  67.011  1.00  0.00     0.000 HD 
HETATM   35  C   UNL     1     -10.077   9.221  68.641  1.00  0.00    -0.207 C  
HETATM   36  C   UNL     1      -5.570   9.791  71.073  1.00  0.00    -0.071 C  
HETATM   37  C   UNL     1      -7.307   9.708  69.244  1.00  0.00    -0.079 C  
HETATM   38  O   UNL     1      -5.130  10.358  72.065  1.00  0.00    -0.186 OA 
HETATM   39  C   UNL     1      -7.864  10.733  68.261  1.00  0.00    -0.115 C  
HETATM   40  C   UNL     1      -7.243  10.863  66.858  1.00  0.00    -0.124 C  
HETATM   41  C   UNL     1      -7.493  11.980  69.012  1.00  0.00     0.017 A  
HETATM   42  C   UNL     1      -8.091  13.212  68.850  1.00  0.00     0.194 A  
HETATM   43  C   UNL     1      -8.416  10.796  65.894  1.00  0.00    -0.166 C  
HETATM   44  N   UNL     1      -9.590  11.031  66.715  1.00  0.00    -0.187 NA 
HETATM   45  C   UNL     1     -10.853  10.698  66.104  1.00  0.00     0.001 C  
HETATM   46  C   UNL     1     -11.269   9.299  66.396  1.00  0.00     1.390 C  
HETATM   47  C   UNL     1     -10.970   8.660  67.536  1.00  0.00     0.090 C  
BRANCH  29  48
HETATM   48  O   UNL     1      -6.487  15.088  71.523  1.00  0.00     0.559 OA 
HETATM   49  C   UNL     1      -5.135  15.177  71.967  1.00  0.00    -0.100 C  
ENDBRANCH  29  48
BRANCH  35  50
HETATM   50  C   UNL     1     -10.872   9.584  69.965  1.00  0.00    -0.286 C  
HETATM   51  C   UNL     1     -11.882  10.718  70.020  1.00  0.00    -0.424 C  
ENDBRANCH  35  50
BRANCH  30  52
HETATM   52  O   UNL     1      -9.753   6.810  69.492  1.00  0.00    -0.150 OA 
BRANCH  52  53
HETATM   53  C   UNL     1     -10.077   6.313  70.695  1.00  0.00    -0.189 C  
HETATM   54  C   UNL     1      -9.325   5.014  70.897  1.00  0.00    -0.204 C  
HETATM   55  O   UNL     1     -10.730   6.909  71.536  1.00  0.00    -0.221 OA 
ENDBRANCH  52  53
ENDBRANCH  30  52
BRANCH  28  56
HETATM   56  C   UNL     1      -6.625   7.230  69.368  1.00  0.00    -0.041 C  
HETATM   57  O   UNL     1      -6.484   7.034  70.567  1.00  0.00    -0.045 OA 
BRANCH  56  58
HETATM   58  O   UNL     1      -5.859   6.655  68.390  1.00  0.00    -0.019 OA 
HETATM   59  C   UNL     1      -5.518   5.280  68.584  1.00  0.00    -0.007 C  
ENDBRANCH  56  58
ENDBRANCH  28  56
ENDBRANCH  15  25
BRANCH  15  60
HETATM   60  C   UNL     1      -9.568  15.841  70.420  1.00  0.00     0.750 C  
HETATM   61  O   UNL     1      -9.686  16.862  71.098  1.00  0.00     3.358 OA 
BRANCH  60  62
HETATM   62  O   UNL     1     -10.432  14.785  70.520  1.00  0.00     0.081 OA 
HETATM   63  C   UNL     1     -11.835  15.108  70.410  1.00  0.00    -0.307 C  
ENDBRANCH  60  62
ENDBRANCH  15  60
ENDBRANCH   2   3
TORSDOF 10
ENDMDL
MODEL       27
REMARK 921   NORMALIZED FREE ENERGY PREDICTED BY IDOCK:    3.94 KCAL/MOL
REMARK 922        TOTAL FREE ENERGY PREDICTED BY IDOCK:    4.58 KCAL/MOL
REMARK 923 INTER-LIGAND FREE ENERGY PREDICTED BY IDOCK:   -3.27 KCAL/MOL
REMARK 924 INTRA-LIGAND FREE ENERGY PREDICTED BY IDOCK:    7.85 KCAL/MOL
REMARK 927      BINDING AFFINITY PREDICTED BY RF-SCORE:    0.00 PKD
ROOT
HETATM    1  C   UNL     1     -10.158   4.909  72.281  1.00  0.00    -0.247 C  
HETATM    2  C   UNL     1      -8.753   4.360  72.528  1.00  0.00    -0.116 C  
ENDROOT
BRANCH   2   3
HETATM    3  C   UNL     1      -7.720   5.383  73.079  1.00  0.00    -0.098 C  
HETATM    4  C   UNL     1      -7.897   6.813  72.484  1.00  0.00    -0.100 C  
HETATM    5  O   UNL     1      -7.913   5.474  74.501  1.00  0.00    -0.104 OA 
HETATM    6  C   UNL     1      -7.311   6.813  71.072  1.00  0.00    -0.078 C  
HETATM    7  H   UNL     1      -7.282   6.099  74.837  1.00  0.00     0.000 HD 
HETATM    8  C   UNL     1      -5.811   6.585  71.212  1.00  0.00    -0.028 C  
HETATM    9  N   UNL     1      -5.544   5.213  71.597  1.00  0.00    -0.008 NA 
HETATM   10  C   UNL     1      -5.636   4.210  70.518  1.00  0.00    -0.012 C  
HETATM   11  C   UNL     1      -6.244   4.864  72.849  1.00  0.00    -0.037 C  
HETATM   12  C   UNL     1      -5.538   4.676  69.030  1.00  0.00    -0.012 C  
HETATM   13  C   UNL     1      -6.886   5.000  68.428  1.00  0.00    -0.056 A  
HETATM   14  C   UNL     1      -7.576   6.217  68.301  1.00  0.00    -0.098 A  
HETATM   15  C   UNL     1      -7.262   7.741  68.628  1.00  0.00    -0.085 C  
HETATM   16  N   UNL     1      -8.846   5.890  67.856  1.00  0.00    -0.107 NA 
HETATM   17  H   UNL     1      -9.614   6.556  67.774  1.00  0.00     0.000 HD 
HETATM   18  C   UNL     1      -7.659   7.989  70.143  1.00  0.00    -0.081 C  
HETATM   19  C   UNL     1      -7.735   3.976  67.880  1.00  0.00    -0.067 A  
HETATM   20  C   UNL     1      -7.586   2.588  67.664  1.00  0.00    -0.060 A  
HETATM   21  C   UNL     1      -8.941   4.567  67.542  1.00  0.00    -0.115 A  
HETATM   22  C   UNL     1      -8.639   1.854  67.116  1.00  0.00    -0.114 A  
HETATM   23  C   UNL     1      -9.835   2.483  66.795  1.00  0.00     0.702 A  
HETATM   24  C   UNL     1     -10.019   3.842  67.003  1.00  0.00     0.035 A  
BRANCH  15  25
HETATM   25  C   UNL     1      -8.043   8.604  67.572  1.00  0.00    -0.106 A  
HETATM   26  O   UNL     1      -8.658  15.035  66.134  1.00  0.00    -0.429 OA 
HETATM   27  C   UNL     1      -9.369   9.128  65.552  1.00  0.00    -0.287 A  
HETATM   28  C   UNL     1      -9.877  14.284  66.123  1.00  0.00    -0.316 C  
HETATM   29  C   UNL     1      -8.816   8.184  66.466  1.00  0.00    -0.149 A  
HETATM   30  C   UNL     1     -10.636  14.446  67.483  1.00  0.00    -0.265 C  
HETATM   31  C   UNL     1      -8.623  12.841  68.455  1.00  0.00    -0.048 C  
HETATM   32  C   UNL     1      -9.176  10.485  65.755  1.00  0.00    -0.182 A  
HETATM   33  N   UNL     1      -9.738  11.644  65.113  1.00  0.00    -0.235 N  
HETATM   34  H   UNL     1      -8.814  15.972  66.125  1.00  0.00     0.000 HD 
HETATM   35  C   UNL     1      -9.827  13.864  68.770  1.00  0.00    -0.117 C  
HETATM   36  C   UNL     1     -10.855  11.512  64.301  1.00  0.00    -0.359 C  
HETATM   37  C   UNL     1      -9.616  12.719  66.140  1.00  0.00    -0.212 C  
HETATM   38  O   UNL     1     -11.391  10.484  63.911  1.00  0.00     1.021 OA 
HETATM   39  C   UNL     1      -8.408  12.381  67.007  1.00  0.00    -0.157 C  
HETATM   40  C   UNL     1      -7.002  12.829  66.568  1.00  0.00     1.264 C  
HETATM   41  C   UNL     1      -8.446  10.885  66.860  1.00  0.00    -0.135 A  
HETATM   42  C   UNL     1      -7.875   9.987  67.735  1.00  0.00    -0.094 A  
HETATM   43  C   UNL     1      -6.409  13.527  67.780  1.00  0.00    -0.161 C  
HETATM   44  N   UNL     1      -7.248  13.122  68.894  1.00  0.00    -0.083 NA 
HETATM   45  C   UNL     1      -7.098  13.898  70.100  1.00  0.00     0.501 C  
HETATM   46  C   UNL     1      -8.050  15.041  70.156  1.00  0.00     0.530 C  
HETATM   47  C   UNL     1      -9.276  15.012  69.612  1.00  0.00    -0.004 C  
BRANCH  29  48
HETATM   48  O   UNL     1      -9.087   6.847  66.355  1.00  0.00    -0.155 OA 
HETATM   49  C   UNL     1      -8.481   6.187  65.247  1.00  0.00    -0.120 C  
ENDBRANCH  29  48
BRANCH  35  50
HETATM   50  C   UNL     1     -10.980  13.051  69.498  1.00  0.00     0.035 C  
HETATM   51  C   UNL     1     -11.182  11.561  69.282  1.00  0.00    -0.336 C  
ENDBRANCH  35  50
BRANCH  30  52
HETATM   52  O   UNL     1     -11.576  15.505  67.825  1.00  0.00    -0.302 OA 
BRANCH  52  53
HETATM   53  C   UNL     1     -11.392  16.524  68.677  1.00  0.00    -0.237 C  
HETATM   54  C   UNL     1     -12.271  16.303  69.890  1.00  0.00     0.367 C  
HETATM   55  O   UNL     1     -10.529  17.380  68.555  1.00  0.00    -0.353 OA 
ENDBRANCH  52  53
ENDBRANCH  30  52
BRANCH  28  56
HETATM   56  C   UNL     1     -10.689  14.704  64.902  1.00  0.00    -0.427 C  
HETATM   57  O   UNL     1     -10.589  15.769  64.311  1.00  0.00    -0.119 OA 
BRANCH  56  58
HETATM   58  O   UNL     1     -11.628  13.746  64.628  1.00  0.00    -0.349 OA 
HETATM   59  C   UNL     1     -12.930  13.966  65.175  1.00  0.00    -0.238 C  
ENDBRANCH  56  58
ENDBRANCH  28  56
ENDBRANCH  15  25
BRANCH  15  60
HETATM   60  C   UNL     1      -5.733   8.022  68.338  1.00  0.00    -0.033 C  
HETATM   61  O   UNL     1      -5.151   7.720  67.294  1.00  0.00    -0.025 OA 
BRANCH  60  62
HETATM   62  O   UNL     1      -5.125   8.720  69.344  1.00  0.00    -0.034 OA 
HETATM   63  C   UNL     1      -5.130  10.157  69.204  1.00  0.00    -0.035 C  
ENDBRANCH  60  62
ENDBRANCH  15  60
ENDBRANCH   2   3
TORSDOF 10
ENDMDL
MODEL       28
REMARK 921   NORMALIZED FREE ENERGY PREDICTED BY IDOCK:    4.68 KCAL/MOL
REMARK 922        TOTAL FREE ENERGY PREDICTED BY IDOCK:    5.75 KCAL/MOL
REMARK 923 INTER-LIGAND FREE ENERGY PREDICTED BY IDOCK:    4.06 KCAL/MOL
REMARK 924 INTRA-LIGAND FREE ENERGY PREDICTED BY IDOCK:    1.69 KCAL/MOL
REMARK 927      BINDING AFFINITY PREDICTED BY RF-SCORE:    0.00 PKD
ROOT
HETATM    1  C   UNL     1     -11.722  19.163  67.168  1.00  0.00     1.382 C  
HETATM    2  C   UNL     1     -10.734  18.555  66.172  1.00  0.00    -0.243 C  
ENDROOT
BRANCH   2   3
HETATM    3  C   UNL     1      -9.332  19.226  66.125  1.00  0.00    -0.269 C  
HETATM    4  C   UNL     1      -8.170  18.205  65.935  1.00  0.00     0.044 C  
HETATM    5  O   UNL     1      -9.316  20.122  65.000  1.00  0.00     0.066 OA 
HETATM    6  C   UNL     1      -7.919  17.519  67.278  1.00  0.00    -0.222 C  
HETATM    7  H   UNL     1      -8.460  20.532  64.972  1.00  0.00     0.000 HD 
HETATM    8  C   UNL     1      -7.404  18.587  68.235  1.00  0.00    -0.277 C  
HETATM    9  N   UNL     1      -8.478  19.488  68.607  1.00  0.00    -0.354 NA 
HETATM   10  C   UNL     1      -9.425  18.982  69.620  1.00  0.00     0.385 C  
HETATM   11  C   UNL     1      -9.093  20.108  67.416  1.00  0.00    -0.364 C  
HETATM   12  C   UNL     1      -8.997  17.795  70.541  1.00  0.00     4.098 C  
HETATM   13  C   UNL     1      -9.364  16.446  69.965  1.00  0.00     0.874 A  
HETATM   14  C   UNL     1      -8.624  15.535  69.193  1.00  0.00    -0.246 A  
HETATM   15  C   UNL     1      -7.128  15.447  68.663  1.00  0.00    -0.116 C  
HETATM   16  N   UNL     1      -9.523  14.567  68.780  1.00  0.00    -0.255 NA 
HETATM   17  H   UNL     1      -9.304  13.827  68.113  1.00  0.00     0.000 HD 
HETATM   18  C   UNL     1      -7.068  16.237  67.290  1.00  0.00    -0.226 C  
HETATM   19  C   UNL     1     -10.679  15.886  70.130  1.00  0.00    -0.338 A  
HETATM   20  C   UNL     1     -11.833  16.283  70.840  1.00  0.00    -0.191 A  
HETATM   21  C   UNL     1     -10.739  14.725  69.377  1.00  0.00    -0.239 A  
HETATM   22  C   UNL     1     -12.991  15.505  70.775  1.00  0.00    -0.490 A  
HETATM   23  C   UNL     1     -13.012  14.349  70.005  1.00  0.00     0.084 A  
HETATM   24  C   UNL     1     -11.899  13.936  69.287  1.00  0.00    -0.394 A  
BRANCH  15  25
HETATM   25  C   UNL     1      -6.760  13.922  68.584  1.00  0.00    -0.098 A  
HETATM   26  O   UNL     1      -8.470   8.754  64.820  1.00  0.00    -0.166 OA 
HETATM   27  C   UNL     1      -5.522  11.825  69.017  1.00  0.00    -0.050 A  
HETATM   28  C   UNL     1      -8.398   8.493  66.225  1.00  0.00    -0.116 C  
HETATM   29  C   UNL     1      -5.782  13.197  69.303  1.00  0.00    -0.084 A  
HETATM   30  C   UNL     1      -9.820   8.577  66.875  1.00  0.00    -0.242 C  
HETATM   31  C   UNL     1      -9.519  11.281  66.467  1.00  0.00    -0.193 C  
HETATM   32  C   UNL     1      -6.254  11.170  68.038  1.00  0.00    -0.049 A  
HETATM   33  N   UNL     1      -6.326   9.785  67.657  1.00  0.00    -0.060 N  
HETATM   34  H   UNL     1      -8.908   8.056  64.347  1.00  0.00     0.000 HD 
HETATM   35  C   UNL     1     -10.508  10.049  66.784  1.00  0.00    -0.267 C  
HETATM   36  C   UNL     1      -5.808   8.808  68.494  1.00  0.00    -0.045 C  
HETATM   37  C   UNL     1      -7.668   9.658  67.015  1.00  0.00    -0.095 C  
HETATM   38  O   UNL     1      -5.133   8.956  69.505  1.00  0.00    -0.034 OA 
HETATM   39  C   UNL     1      -8.008  11.017  66.411  1.00  0.00    -0.161 C  
HETATM   40  C   UNL     1      -7.514  11.371  64.997  1.00  0.00     1.136 C  
HETATM   41  C   UNL     1      -7.231  11.881  67.365  1.00  0.00    -0.142 A  
HETATM   42  C   UNL     1      -7.473  13.217  67.604  1.00  0.00    -0.164 A  
HETATM   43  C   UNL     1      -8.746  11.860  64.254  1.00  0.00     1.048 C  
HETATM   44  N   UNL     1      -9.722  12.141  65.291  1.00  0.00    -0.194 NA 
HETATM   45  C   UNL     1     -11.081  12.309  64.839  1.00  0.00    -0.311 C  
HETATM   46  C   UNL     1     -11.842  11.029  64.854  1.00  0.00     1.023 C  
HETATM   47  C   UNL     1     -11.624  10.048  65.743  1.00  0.00     2.822 C  
BRANCH  29  48
HETATM   48  O   UNL     1      -5.157  13.836  70.340  1.00  0.00    -0.090 OA 
HETATM   49  C   UNL     1      -5.217  13.169  71.598  1.00  0.00    -0.148 C  
ENDBRANCH  29  48
BRANCH  35  50
HETATM   50  C   UNL     1     -11.037  10.218  68.270  1.00  0.00    -0.311 C  
HETATM   51  C   UNL     1     -10.099  10.425  69.447  1.00  0.00    -0.251 C  
ENDBRANCH  35  50
BRANCH  30  52
HETATM   52  O   UNL     1     -10.791   7.494  66.970  1.00  0.00    -0.348 OA 
BRANCH  52  53
HETATM   53  C   UNL     1     -10.865   6.537  67.906  1.00  0.00    -0.304 C  
HETATM   54  C   UNL     1     -10.589   5.199  67.250  1.00  0.00    -0.139 C  
HETATM   55  O   UNL     1     -10.963   6.747  69.105  1.00  0.00    -0.249 OA 
ENDBRANCH  52  53
ENDBRANCH  30  52
BRANCH  28  56
HETATM   56  C   UNL     1      -7.698   7.153  66.430  1.00  0.00    -0.100 C  
HETATM   57  O   UNL     1      -7.886   6.384  67.361  1.00  0.00    -0.102 OA 
BRANCH  56  58
HETATM   58  O   UNL     1      -6.741   6.986  65.464  1.00  0.00    -0.049 OA 
HETATM   59  C   UNL     1      -5.609   6.193  65.829  1.00  0.00    -0.017 C  
ENDBRANCH  56  58
ENDBRANCH  28  56
ENDBRANCH  15  25
BRANCH  15  60
HETATM   60  C   UNL     1      -6.160  16.047  69.761  1.00  0.00    -0.173 C  
HETATM   61  O   UNL     1      -6.237  15.810  70.968  1.00  0.00     0.381 OA 
BRANCH  60  62
HETATM   62  O   UNL     1      -5.156  16.804  69.222  1.00  0.00    -0.126 OA 
HETATM   63  C   UNL     1      -5.142  18.195  69.606  1.00  0.00    -0.185 C  
ENDBRANCH  60  62
ENDBRANCH  15  60
ENDBRANCH   2   3
TORSDOF 10
ENDMDL
MODEL       29
REMARK 921   NORMALIZED FREE ENERGY PREDICTED BY IDOCK:    5.41 KCAL/MOL
REMARK 922        TOTAL FREE ENERGY PREDICTED BY IDOCK:    6.91 KCAL/MOL
REMARK 923 INTER-LIGAND FREE ENERGY PREDICTED BY IDOCK:    1.57 KCAL/MOL
REMARK 924 INTRA-LIGAND FREE ENERGY PREDICTED BY IDOCK:    5.34 KCAL/MOL
REMARK 927      BINDING AFFINITY PREDICTED BY RF-SCORE:    0.00 PKD
ROOT
HETATM    1  C   UNL     1     -10.416  18.112  67.632  1.00  0.00    -0.432 C  
HETATM    2  C   UNL     1     -10.100  17.502  66.266  1.00  0.00    -0.341 C  
ENDROOT
BRANCH   2   3
HETATM    3  C   UNL     1      -8.590  17.296  65.957  1.00  0.00    -0.092 C  
HETATM    4  C   UNL     1      -8.223  15.811  65.661  1.00  0.00     1.593 C  
HETATM    5  O   UNL     1      -8.277  18.067  64.784  1.00  0.00     2.612 OA 
HETATM    6  C   UNL     1      -8.165  15.063  66.993  1.00  0.00    -0.246 C  
HETATM    7  H   UNL     1      -7.355  17.941  64.595  1.00  0.00     0.000 HD 
HETATM    8  C   UNL     1      -7.001  15.648  67.783  1.00  0.00    -0.158 C  
HETATM    9  N   UNL     1      -7.331  16.979  68.253  1.00  0.00    -0.194 NA 
HETATM   10  C   UNL     1      -8.216  17.048  69.432  1.00  0.00     0.277 C  
HETATM   11  C   UNL     1      -7.698  17.867  67.132  1.00  0.00    -0.210 C  
HETATM   12  C   UNL     1      -8.357  15.795  70.356  1.00  0.00     1.477 C  
HETATM   13  C   UNL     1      -9.489  14.885  69.938  1.00  0.00     0.243 A  
HETATM   14  C   UNL     1      -9.505  13.739  69.127  1.00  0.00     0.355 A  
HETATM   15  C   UNL     1      -8.412  12.859  68.379  1.00  0.00    -0.115 C  
HETATM   16  N   UNL     1     -10.841  13.433  68.925  1.00  0.00    -0.314 NA 
HETATM   17  H   UNL     1     -11.174  12.713  68.284  1.00  0.00     0.000 HD 
HETATM   18  C   UNL     1      -8.162  13.525  66.962  1.00  0.00    -0.050 C  
HETATM   19  C   UNL     1     -10.848  15.132  70.342  1.00  0.00    -0.249 A  
HETATM   20  C   UNL     1     -11.462  16.078  71.193  1.00  0.00    -0.470 A  
HETATM   21  C   UNL     1     -11.654  14.215  69.690  1.00  0.00    -0.292 A  
HETATM   22  C   UNL     1     -12.847  16.064  71.362  1.00  0.00    -0.112 A  
HETATM   23  C   UNL     1     -13.622  15.130  70.685  1.00  0.00    -0.176 A  
HETATM   24  C   UNL     1     -13.053  14.194  69.834  1.00  0.00     0.496 A  
BRANCH  15  25
HETATM   25  C   UNL     1      -8.953  11.385  68.350  1.00  0.00    -0.172 A  
HETATM   26  O   UNL     1      -6.942   5.576  65.895  1.00  0.00    -0.063 OA 
HETATM   27  C   UNL     1     -10.352   9.432  68.936  1.00  0.00    -0.230 A  
HETATM   28  C   UNL     1      -8.329   5.876  65.706  1.00  0.00    -0.140 C  
HETATM   29  C   UNL     1     -10.077  10.829  69.002  1.00  0.00    -0.211 A  
HETATM   30  C   UNL     1      -8.575   6.471  64.279  1.00  0.00     0.343 C  
HETATM   31  C   UNL     1      -7.329   8.694  65.318  1.00  0.00    -0.085 C  
HETATM   32  C   UNL     1      -9.525   8.597  68.201  1.00  0.00    -0.141 A  
HETATM   33  N   UNL     1      -9.645   7.213  67.827  1.00  0.00    -0.128 N  
HETATM   34  H   UNL     1      -6.657   4.845  65.361  1.00  0.00     0.000 HD 
HETATM   35  C   UNL     1      -7.827   7.892  64.012  1.00  0.00    -0.138 C  
HETATM   36  C   UNL     1     -10.862   6.562  67.959  1.00  0.00    -0.295 C  
HETATM   37  C   UNL     1      -8.805   7.098  66.598  1.00  0.00    -0.132 C  
HETATM   38  O   UNL     1     -11.881   6.963  68.505  1.00  0.00     0.542 OA 
HETATM   39  C   UNL     1      -7.707   8.152  66.704  1.00  0.00    -0.094 C  
HETATM   40  C   UNL     1      -6.405   7.826  67.459  1.00  0.00    -0.055 C  
HETATM   41  C   UNL     1      -8.448   9.157  67.540  1.00  0.00    -0.116 A  
HETATM   42  C   UNL     1      -8.146  10.500  67.619  1.00  0.00    -0.107 A  
HETATM   43  C   UNL     1      -5.285   8.208  66.506  1.00  0.00    -0.028 C  
HETATM   44  N   UNL     1      -5.914   9.048  65.504  1.00  0.00    -0.054 NA 
HETATM   45  C   UNL     1      -5.141   9.277  64.308  1.00  0.00    -0.053 C  
HETATM   46  C   UNL     1      -5.431   8.272  63.250  1.00  0.00    -0.063 C  
HETATM   47  C   UNL     1      -6.630   7.693  63.085  1.00  0.00    -0.062 C  
BRANCH  29  48
HETATM   48  O   UNL     1     -10.939  11.693  69.624  1.00  0.00    -0.165 OA 
HETATM   49  C   UNL     1     -11.586  11.184  70.787  1.00  0.00     0.038 C  
ENDBRANCH  29  48
BRANCH  35  50
HETATM   50  C   UNL     1      -9.004   8.723  63.347  1.00  0.00     0.326 C  
HETATM   51  C   UNL     1      -9.577   9.974  63.991  1.00  0.00    -0.243 C  
ENDBRANCH  35  50
BRANCH  30  52
HETATM   52  O   UNL     1      -8.822   5.713  63.060  1.00  0.00     0.057 OA 
BRANCH  52  53
HETATM   53  C   UNL     1      -8.432   4.462  62.776  1.00  0.00    -0.096 C  
HETATM   54  C   UNL     1      -6.956   4.484  62.436  1.00  0.00    -0.031 C  
HETATM   55  O   UNL     1      -9.121   3.468  62.941  1.00  0.00    -0.093 OA 
ENDBRANCH  52  53
ENDBRANCH  30  52
BRANCH  28  56
HETATM   56  C   UNL     1      -9.137   4.617  66.005  1.00  0.00    -0.131 C  
HETATM   57  O   UNL     1     -10.357   4.532  65.991  1.00  0.00    -0.267 OA 
BRANCH  56  58
HETATM   58  O   UNL     1      -8.291   3.614  66.398  1.00  0.00    -0.102 OA 
HETATM   59  C   UNL     1      -8.421   2.372  65.702  1.00  0.00    -0.102 C  
ENDBRANCH  56  58
ENDBRANCH  28  56
ENDBRANCH  15  25
BRANCH  15  60
HETATM   60  C   UNL     1      -7.106  12.800  69.270  1.00  0.00     0.103 C  
HETATM   61  O   UNL     1      -6.937  12.027  70.214  1.00  0.00     0.323 OA 
BRANCH  60  62
HETATM   62  O   UNL     1      -6.130  13.651  68.831  1.00  0.00    -0.080 OA 
HETATM   63  C   UNL     1      -5.276  13.142  67.785  1.00  0.00    -0.089 C  
ENDBRANCH  60  62
ENDBRANCH  15  60
ENDBRANCH   2   3
TORSDOF 10
ENDMDL
MODEL       30
REMARK 921   NORMALIZED FREE ENERGY PREDICTED BY IDOCK:    5.73 KCAL/MOL
REMARK 922        TOTAL FREE ENERGY PREDICTED BY IDOCK:    7.41 KCAL/MOL
REMARK 923 INTER-LIGAND FREE ENERGY PREDICTED BY IDOCK:    3.17 KCAL/MOL
REMARK 924 INTRA-LIGAND FREE ENERGY PREDICTED BY IDOCK:    4.24 KCAL/MOL
REMARK 927      BINDING AFFINITY PREDICTED BY RF-SCORE:    0.00 PKD
ROOT
HETATM    1  C   UNL     1      -7.793  17.717  64.882  1.00  0.00     3.786 C  
HETATM    2  C   UNL     1      -8.215  18.958  65.668  1.00  0.00     0.431 C  
ENDROOT
BRANCH   2   3
HETATM    3  C   UNL     1      -7.497  19.165  67.031  1.00  0.00    -0.215 C  
HETATM    4  C   UNL     1      -6.620  17.947  67.453  1.00  0.00    -0.180 C  
HETATM    5  O   UNL     1      -6.629  20.304  66.897  1.00  0.00    -0.211 OA 
HETATM    6  C   UNL     1      -7.550  16.856  67.984  1.00  0.00    -0.182 C  
HETATM    7  H   UNL     1      -6.190  20.430  67.730  1.00  0.00     0.000 HD 
HETATM    8  C   UNL     1      -8.187  17.394  69.259  1.00  0.00     0.183 C  
HETATM    9  N   UNL     1      -9.158  18.423  68.942  1.00  0.00    -0.222 NA 
HETATM   10  C   UNL     1     -10.464  17.948  68.444  1.00  0.00    -0.330 C  
HETATM   11  C   UNL     1      -8.542  19.517  68.164  1.00  0.00    -0.328 C  
HETATM   12  C   UNL     1     -10.896  16.472  68.719  1.00  0.00    -0.342 C  
HETATM   13  C   UNL     1     -10.474  15.524  67.620  1.00  0.00    -0.279 A  
HETATM   14  C   UNL     1      -9.343  14.702  67.488  1.00  0.00    -0.195 A  
HETATM   15  C   UNL     1      -8.094  14.332  68.399  1.00  0.00    -0.142 C  
HETATM   16  N   UNL     1      -9.379  14.210  66.194  1.00  0.00    -0.494 NA 
HETATM   17  H   UNL     1      -8.628  13.667  65.766  1.00  0.00     0.000 HD 
HETATM   18  C   UNL     1      -6.983  15.435  68.144  1.00  0.00    -0.131 C  
HETATM   19  C   UNL     1     -11.257  15.357  66.424  1.00  0.00    -0.164 A  
HETATM   20  C   UNL     1     -12.507  15.853  65.991  1.00  0.00     2.043 A  
HETATM   21  C   UNL     1     -10.541  14.540  65.564  1.00  0.00    -0.351 A  
HETATM   22  C   UNL     1     -12.991  15.509  64.728  1.00  0.00     1.064 A  
HETATM   23  C   UNL     1     -12.240  14.690  63.893  1.00  0.00    -0.073 A  
HETATM   24  C   UNL     1     -11.005  14.194  64.283  1.00  0.00    -0.104 A  
BRANCH  15  25
HETATM   25  C   UNL     1      -7.683  12.860  68.037  1.00  0.00    -0.143 A  
HETATM   26  O   UNL     1     -10.403   6.848  68.552  1.00  0.00    -0.169 OA 
HETATM   27  C   UNL     1      -6.401  11.013  67.009  1.00  0.00    -0.088 A  
HETATM   28  C   UNL     1      -9.021   6.930  68.917  1.00  0.00    -0.131 C  
HETATM   29  C   UNL     1      -6.551  12.393  67.332  1.00  0.00    -0.157 A  
HETATM   30  C   UNL     1      -8.868   7.069  70.469  1.00  0.00    -0.154 C  
HETATM   31  C   UNL     1      -9.816   9.615  70.035  1.00  0.00    -0.246 C  
HETATM   32  C   UNL     1      -7.363  10.098  67.410  1.00  0.00    -0.089 A  
HETATM   33  N   UNL     1      -7.397   8.660  67.374  1.00  0.00    -0.088 N  
HETATM   34  H   UNL     1     -10.799   6.030  68.830  1.00  0.00     0.000 HD 
HETATM   35  C   UNL     1      -9.518   8.428  71.083  1.00  0.00    -0.227 C  
HETATM   36  C   UNL     1      -6.231   7.945  67.144  1.00  0.00    -0.054 C  
HETATM   37  C   UNL     1      -8.360   8.296  68.454  1.00  0.00    -0.132 C  
HETATM   38  O   UNL     1      -5.133   8.372  66.811  1.00  0.00    -0.030 OA 
HETATM   39  C   UNL     1      -9.351   9.448  68.582  1.00  0.00    -0.142 C  
HETATM   40  C   UNL     1     -10.594   9.492  67.675  1.00  0.00    -0.329 C  
HETATM   41  C   UNL     1      -8.450  10.562  68.128  1.00  0.00    -0.123 A  
HETATM   42  C   UNL     1      -8.629  11.897  68.420  1.00  0.00    -0.152 A  
HETATM   43  C   UNL     1     -11.767   9.708  68.616  1.00  0.00     0.698 C  
HETATM   44  N   UNL     1     -11.171  10.158  69.861  1.00  0.00    -0.270 NA 
HETATM   45  C   UNL     1     -12.036  10.123  71.014  1.00  0.00    -0.377 C  
HETATM   46  C   UNL     1     -11.937   8.834  71.753  1.00  0.00    -0.418 C  
HETATM   47  C   UNL     1     -10.812   8.107  71.827  1.00  0.00    -0.317 C  
BRANCH  29  48
HETATM   48  O   UNL     1      -5.563  13.298  67.050  1.00  0.00    -0.244 OA 
HETATM   49  C   UNL     1      -5.443  14.383  67.966  1.00  0.00    -0.117 C  
ENDBRANCH  29  48
BRANCH  35  50
HETATM   50  C   UNL     1      -8.347   8.906  72.042  1.00  0.00     0.035 C  
HETATM   51  C   UNL     1      -8.401   8.710  73.547  1.00  0.00     0.110 C  
ENDBRANCH  35  50
BRANCH  30  52
HETATM   52  O   UNL     1      -8.806   5.976  71.430  1.00  0.00    -0.135 OA 
BRANCH  52  53
HETATM   53  C   UNL     1      -9.673   4.963  71.581  1.00  0.00    -0.173 C  
HETATM   54  C   UNL     1      -9.712   4.578  73.045  1.00  0.00    -0.167 C  
HETATM   55  O   UNL     1     -10.420   4.557  70.706  1.00  0.00    -0.074 OA 
ENDBRANCH  52  53
ENDBRANCH  30  52
BRANCH  28  56
HETATM   56  C   UNL     1      -8.295   5.727  68.323  1.00  0.00    -0.107 C  
HETATM   57  O   UNL     1      -7.493   5.016  68.912  1.00  0.00    -0.067 OA 
BRANCH  56  58
HETATM   58  O   UNL     1      -8.598   5.623  66.992  1.00  0.00    -0.111 OA 
HETATM   59  C   UNL     1      -7.730   4.797  66.211  1.00  0.00    -0.091 C  
ENDBRANCH  56  58
ENDBRANCH  28  56
ENDBRANCH  15  25
BRANCH  15  60
HETATM   60  C   UNL     1      -8.563  14.268  69.909  1.00  0.00     1.102 C  
HETATM   61  O   UNL     1      -7.848  14.538  70.876  1.00  0.00     1.529 OA 
BRANCH  60  62
HETATM   62  O   UNL     1      -9.889  13.959  70.036  1.00  0.00     1.070 OA 
HETATM   63  C   UNL     1     -10.665  14.846  70.869  1.00  0.00     0.181 C  
ENDBRANCH  60  62
ENDBRANCH  15  60
ENDBRANCH   2   3
TORSDOF 10
ENDMDL
MODEL       31
REMARK 921   NORMALIZED FREE ENERGY PREDICTED BY IDOCK:    5.89 KCAL/MOL
REMARK 922        TOTAL FREE ENERGY PREDICTED BY IDOCK:    7.66 KCAL/MOL
REMARK 923 INTER-LIGAND FREE ENERGY PREDICTED BY IDOCK:    7.65 KCAL/MOL
REMARK 924 INTRA-LIGAND FREE ENERGY PREDICTED BY IDOCK:    0.00 KCAL/MOL
REMARK 927      BINDING AFFINITY PREDICTED BY RF-SCORE:    0.00 PKD
ROOT
HETATM    1  C   UNL     1     -10.788  16.748  64.777  1.00  0.00     0.002 C  
HETATM    2  C   UNL     1      -9.627  16.662  65.768  1.00  0.00    -0.151 C  
ENDROOT
BRANCH   2   3
HETATM    3  C   UNL     1      -9.965  17.060  67.232  1.00  0.00    -0.275 C  
HETATM    4  C   UNL     1      -9.180  16.228  68.291  1.00  0.00    -0.197 C  
HETATM    5  O   UNL     1      -9.601  18.441  67.403  1.00  0.00    -0.279 OA 
HETATM    6  C   UNL     1      -9.839  14.853  68.395  1.00  0.00    -0.216 C  
HETATM    7  H   UNL     1      -9.808  18.684  68.297  1.00  0.00     0.000 HD 
HETATM    8  C   UNL     1     -11.236  15.070  68.965  1.00  0.00    -0.268 C  
HETATM    9  N   UNL     1     -12.093  15.687  67.972  1.00  0.00     0.131 NA 
HETATM   10  C   UNL     1     -12.618  14.791  66.924  1.00  0.00     0.640 C  
HETATM   11  C   UNL     1     -11.522  16.961  67.491  1.00  0.00     0.452 C  
HETATM   12  C   UNL     1     -12.636  13.249  67.174  1.00  0.00     0.350 C  
HETATM   13  C   UNL     1     -11.374  12.565  66.702  1.00  0.00    -0.389 A  
HETATM   14  C   UNL     1     -10.197  12.216  67.384  1.00  0.00    -0.198 A  
HETATM   15  C   UNL     1      -9.692  12.289  68.890  1.00  0.00     0.126 C  
HETATM   16  N   UNL     1      -9.302  11.798  66.413  1.00  0.00    -0.215 NA 
HETATM   17  H   UNL     1      -8.321  11.584  66.591  1.00  0.00     0.000 HD 
HETATM   18  C   UNL     1      -9.065  13.730  69.106  1.00  0.00     0.417 C  
HETATM   19  C   UNL     1     -11.194  12.174  65.328  1.00  0.00    -0.381 A  
HETATM   20  C   UNL     1     -12.022  12.199  64.185  1.00  0.00    -0.497 A  
HETATM   21  C   UNL     1      -9.897  11.708  65.190  1.00  0.00    -0.249 A  
HETATM   22  C   UNL     1     -11.526  11.755  62.958  1.00  0.00     0.010 A  
HETATM   23  C   UNL     1     -10.217  11.299  62.859  1.00  0.00    -0.201 A  
HETATM   24  C   UNL     1      -9.374  11.271  63.961  1.00  0.00    -0.134 A  
BRANCH  15  25
HETATM   25  C   UNL     1      -8.708  11.083  69.101  1.00  0.00    -0.002 A  
HETATM   26  O   UNL     1      -7.975   4.989  66.625  1.00  0.00    -0.106 OA 
HETATM   27  C   UNL     1      -6.705   9.850  69.865  1.00  0.00    -0.088 A  
HETATM   28  C   UNL     1      -7.829   5.097  68.045  1.00  0.00    -0.087 C  
HETATM   29  C   UNL     1      -7.530  11.012  69.880  1.00  0.00     0.281 A  
HETATM   30  C   UNL     1      -9.166   4.716  68.767  1.00  0.00    -0.129 C  
HETATM   31  C   UNL     1     -10.035   7.136  67.787  1.00  0.00    -0.155 C  
HETATM   32  C   UNL     1      -7.067   8.752  69.100  1.00  0.00    -0.063 A  
HETATM   33  N   UNL     1      -6.535   7.417  69.021  1.00  0.00    -0.039 N  
HETATM   34  H   UNL     1      -8.064   4.087  66.341  1.00  0.00     0.000 HD 
HETATM   35  C   UNL     1     -10.412   5.705  68.424  1.00  0.00    -0.263 C  
HETATM   36  C   UNL     1      -5.669   6.958  70.001  1.00  0.00    -0.023 C  
HETATM   37  C   UNL     1      -7.681   6.603  68.520  1.00  0.00    -0.105 C  
HETATM   38  O   UNL     1      -5.143   7.592  70.906  1.00  0.00    -0.023 OA 
HETATM   39  C   UNL     1      -8.555   7.525  67.675  1.00  0.00    -0.119 C  
HETATM   40  C   UNL     1      -8.228   7.735  66.185  1.00  0.00    -0.123 C  
HETATM   41  C   UNL     1      -8.239   8.820  68.369  1.00  0.00    -0.118 A  
HETATM   42  C   UNL     1      -9.032   9.948  68.343  1.00  0.00    -0.120 A  
HETATM   43  C   UNL     1      -9.535   7.486  65.451  1.00  0.00     0.781 C  
HETATM   44  N   UNL     1     -10.560   7.551  66.477  1.00  0.00    -0.028 NA 
HETATM   45  C   UNL     1     -11.850   7.029  66.102  1.00  0.00     4.532 C  
HETATM   46  C   UNL     1     -11.994   5.587  66.438  1.00  0.00     2.799 C  
HETATM   47  C   UNL     1     -11.400   5.008  67.491  1.00  0.00     2.218 C  
BRANCH  29  48
HETATM   48  O   UNL     1      -7.258  12.064  70.713  1.00  0.00     1.817 OA 
HETATM   49  C   UNL     1      -5.890  12.454  70.785  1.00  0.00    -0.002 C  
ENDBRANCH  29  48
BRANCH  35  50
HETATM   50  C   UNL     1     -10.995   5.956  69.879  1.00  0.00    -0.444 C  
HETATM   51  C   UNL     1     -10.177   6.614  70.977  1.00  0.00    -0.214 C  
ENDBRANCH  35  50
BRANCH  30  52
HETATM   52  O   UNL     1      -9.585   3.376  69.155  1.00  0.00    -0.167 OA 
BRANCH  52  53
HETATM   53  C   UNL     1      -9.233   2.210  68.594  1.00  0.00    -0.169 C  
HETATM   54  C   UNL     1      -8.256   1.508  69.515  1.00  0.00    -0.063 C  
HETATM   55  O   UNL     1      -9.757   1.735  67.599  1.00  0.00    -0.027 OA 
ENDBRANCH  52  53
ENDBRANCH  30  52
BRANCH  28  56
HETATM   56  C   UNL     1      -6.630   4.255  68.469  1.00  0.00    -0.046 C  
HETATM   57  O   UNL     1      -6.389   3.880  69.608  1.00  0.00    -0.027 OA 
BRANCH  56  58
HETATM   58  O   UNL     1      -5.799   4.070  67.396  1.00  0.00    -0.022 OA 
HETATM   59  C   UNL     1      -5.931   2.825  66.705  1.00  0.00    -0.024 C  
ENDBRANCH  56  58
ENDBRANCH  28  56
ENDBRANCH  15  25
BRANCH  15  60
HETATM   60  C   UNL     1     -10.912  11.998  69.854  1.00  0.00     0.357 C  
HETATM   61  O   UNL     1     -11.727  12.843  70.227  1.00  0.00    -0.243 OA 
BRANCH  60  62
HETATM   62  O   UNL     1     -11.026  10.673  70.173  1.00  0.00    -0.282 OA 
HETATM   63  C   UNL     1     -11.906  10.365  71.275  1.00  0.00    -0.289 C  
ENDBRANCH  60  62
ENDBRANCH  15  60
ENDBRANCH   2   3
TORSDOF 10
ENDMDL
MODEL       32
REMARK 921   NORMALIZED FREE ENERGY PREDICTED BY IDOCK:    9.17 KCAL/MOL
REMARK 922        TOTAL FREE ENERGY PREDICTED BY IDOCK:   12.86 KCAL/MOL
REMARK 923 INTER-LIGAND FREE ENERGY PREDICTED BY IDOCK:   11.35 KCAL/MOL
REMARK 924 INTRA-LIGAND FREE ENERGY PREDICTED BY IDOCK:    1.52 KCAL/MOL
REMARK 927      BINDING AFFINITY PREDICTED BY RF-SCORE:    0.00 PKD
ROOT
HETATM    1  C   UNL     1      -6.967  14.460  65.898  1.00  0.00     6.170 C  
HETATM    2  C   UNL     1      -7.104  15.843  66.535  1.00  0.00     0.419 C  
ENDROOT
BRANCH   2   3
HETATM    3  C   UNL     1      -6.562  15.968  67.987  1.00  0.00    -0.133 C  
HETATM    4  C   UNL     1      -5.860  14.671  68.493  1.00  0.00    -0.098 C  
HETATM    5  O   UNL     1      -5.587  17.025  67.999  1.00  0.00    -0.115 OA 
HETATM    6  C   UNL     1      -6.946  13.662  68.867  1.00  0.00    -0.110 C  
HETATM    7  H   UNL     1      -5.256  17.102  68.886  1.00  0.00     0.000 HD 
HETATM    8  C   UNL     1      -7.700  14.238  70.058  1.00  0.00     0.686 C  
HETATM    9  N   UNL     1      -8.525  15.354  69.638  1.00  0.00    -0.207 NA 
HETATM   10  C   UNL     1      -9.788  15.005  68.959  1.00  0.00    -0.236 C  
HETATM   11  C   UNL     1      -7.717  16.398  68.978  1.00  0.00    -0.235 C  
HETATM   12  C   UNL     1     -10.381  13.570  69.137  1.00  0.00     0.068 C  
HETATM   13  C   UNL     1      -9.898  12.602  68.082  1.00  0.00    -0.226 A  
HETATM   14  C   UNL     1      -8.836  11.683  68.083  1.00  0.00    -0.164 A  
HETATM   15  C   UNL     1      -7.759  11.192  69.144  1.00  0.00    -0.076 C  
HETATM   16  N   UNL     1      -8.738  11.212  66.784  1.00  0.00    -0.152 NA 
HETATM   17  H   UNL     1      -7.986  10.610  66.447  1.00  0.00     0.000 HD 
HETATM   18  C   UNL     1      -6.532  12.193  69.067  1.00  0.00    -0.092 C  
HETATM   19  C   UNL     1     -10.523  12.521  66.788  1.00  0.00    -0.243 A  
HETATM   20  C   UNL     1     -11.654  13.132  66.204  1.00  0.00    -0.396 A  
HETATM   21  C   UNL     1      -9.771  11.653  66.012  1.00  0.00    -0.232 A  
HETATM   22  C   UNL     1     -11.990  12.849  64.879  1.00  0.00    -0.437 A  
HETATM   23  C   UNL     1     -11.208  11.976  64.133  1.00  0.00    -0.441 A  
HETATM   24  C   UNL     1     -10.084  11.366  64.672  1.00  0.00    -0.330 A  
BRANCH  15  25
HETATM   25  C   UNL     1      -7.433   9.693  68.804  1.00  0.00    -0.075 A  
HETATM   26  O   UNL     1     -10.579   3.883  69.201  1.00  0.00     1.107 OA 
HETATM   27  C   UNL     1      -6.233   7.757  67.841  1.00  0.00    -0.050 A  
HETATM   28  C   UNL     1      -9.213   3.873  69.630  1.00  0.00    -0.151 C  
HETATM   29  C   UNL     1      -6.303   9.146  68.155  1.00  0.00    -0.055 A  
HETATM   30  C   UNL     1      -9.124   4.008  71.188  1.00  0.00    -0.118 C  
HETATM   31  C   UNL     1      -9.874   6.611  70.705  1.00  0.00    -0.183 C  
HETATM   32  C   UNL     1      -7.273   6.912  68.198  1.00  0.00    -0.091 A  
HETATM   33  N   UNL     1      -7.403   5.480  68.163  1.00  0.00    -0.072 N  
HETATM   34  H   UNL     1     -11.042   3.096  69.461  1.00  0.00     0.000 HD 
HETATM   35  C   UNL     1      -9.708   5.412  71.768  1.00  0.00    -0.206 C  
HETATM   36  C   UNL     1      -6.279   4.686  67.990  1.00  0.00    -0.036 C  
HETATM   37  C   UNL     1      -8.439   5.187  69.197  1.00  0.00    -0.090 C  
HETATM   38  O   UNL     1      -5.140   5.035  67.709  1.00  0.00    -0.003 OA 
HETATM   39  C   UNL     1      -9.354   6.406  69.276  1.00  0.00    -0.138 C  
HETATM   40  C   UNL     1     -10.547   6.529  68.311  1.00  0.00    -0.302 C  
HETATM   41  C   UNL     1      -8.358   7.453  68.863  1.00  0.00    -0.129 A  
HETATM   42  C   UNL     1      -8.459   8.799  69.144  1.00  0.00    -0.123 A  
HETATM   43  C   UNL     1     -11.746   6.830  69.195  1.00  0.00     0.227 C  
HETATM   44  N   UNL     1     -11.180   7.244  70.466  1.00  0.00    -0.274 NA 
HETATM   45  C   UNL     1     -12.099   7.274  71.577  1.00  0.00    -0.331 C  
HETATM   46  C   UNL     1     -12.122   5.985  72.322  1.00  0.00    -0.196 C  
HETATM   47  C   UNL     1     -11.055   5.183  72.450  1.00  0.00    -0.213 C  
BRANCH  29  48
HETATM   48  O   UNL     1      -5.244   9.980  67.918  1.00  0.00    -0.038 OA 
HETATM   49  C   UNL     1      -5.146  10.488  66.590  1.00  0.00    -0.045 C  
ENDBRANCH  29  48
BRANCH  35  50
HETATM   50  C   UNL     1      -8.553   5.813  72.780  1.00  0.00    -0.119 C  
HETATM   51  C   UNL     1      -8.237   7.261  73.116  1.00  0.00    -0.129 C  
ENDBRANCH  35  50
BRANCH  30  52
HETATM   52  O   UNL     1      -9.182   2.918  72.153  1.00  0.00    -0.087 OA 
BRANCH  52  53
HETATM   53  C   UNL     1     -10.244   2.168  72.483  1.00  0.00    -0.156 C  
HETATM   54  C   UNL     1     -10.871   1.635  71.211  1.00  0.00     1.181 C  
HETATM   55  O   UNL     1     -10.531   1.841  73.623  1.00  0.00    -0.090 OA 
ENDBRANCH  52  53
ENDBRANCH  30  52
BRANCH  28  56
HETATM   56  C   UNL     1      -8.544   2.620  69.074  1.00  0.00    -0.074 C  
HETATM   57  O   UNL     1      -7.796   1.876  69.693  1.00  0.00    -0.042 OA 
BRANCH  56  58
HETATM   58  O   UNL     1      -8.822   2.509  67.738  1.00  0.00    -0.102 OA 
HETATM   59  C   UNL     1      -7.781   1.967  66.921  1.00  0.00    -0.066 C  
ENDBRANCH  56  58
ENDBRANCH  28  56
ENDBRANCH  15  25
BRANCH  15  60
HETATM   60  C   UNL     1      -8.432  11.152  70.575  1.00  0.00     3.383 C  
HETATM   61  O   UNL     1      -9.646  11.206  70.779  1.00  0.00     2.609 OA 
BRANCH  60  62
HETATM   62  O   UNL     1      -7.523  10.964  71.580  1.00  0.00     2.953 OA 
HETATM   63  C   UNL     1      -6.385  10.140  71.251  1.00  0.00     0.252 C  
ENDBRANCH  60  62
ENDBRANCH  15  60
ENDBRANCH   2   3
TORSDOF 10
ENDMDL
MODEL       33
REMARK 921   NORMALIZED FREE ENERGY PREDICTED BY IDOCK:   10.13 KCAL/MOL
REMARK 922        TOTAL FREE ENERGY PREDICTED BY IDOCK:   14.38 KCAL/MOL
REMARK 923 INTER-LIGAND FREE ENERGY PREDICTED BY IDOCK:   11.98 KCAL/MOL
REMARK 924 INTRA-LIGAND FREE ENERGY PREDICTED BY IDOCK:    2.41 KCAL/MOL
REMARK 927      BINDING AFFINITY PREDICTED BY RF-SCORE:    0.00 PKD
ROOT
HETATM    1  C   UNL     1      -7.799  17.032  71.280  1.00  0.00     7.247 C  
HETATM    2  C   UNL     1      -8.327  17.684  70.001  1.00  0.00     2.126 C  
ENDROOT
BRANCH   2   3
HETATM    3  C   UNL     1      -9.853  17.976  69.979  1.00  0.00     1.145 C  
HETATM    4  C   UNL     1     -10.700  16.867  70.674  1.00  0.00     0.625 C  
HETATM    5  O   UNL     1     -10.072  19.205  70.694  1.00  0.00     0.663 OA 
HETATM    6  C   UNL     1     -10.801  15.680  69.715  1.00  0.00    -0.310 C  
HETATM    7  H   UNL     1     -11.004  19.384  70.680  1.00  0.00     0.000 HD 
HETATM    8  C   UNL     1     -11.606  16.147  68.509  1.00  0.00    -0.265 C  
HETATM    9  N   UNL     1     -10.818  17.059  67.702  1.00  0.00    -0.297 NA 
HETATM   10  C   UNL     1      -9.801  16.437  66.831  1.00  0.00    -0.261 C  
HETATM   11  C   UNL     1     -10.353  18.212  68.498  1.00  0.00    -0.336 C  
HETATM   12  C   UNL     1      -9.928  14.923  66.468  1.00  0.00    -0.277 C  
HETATM   13  C   UNL     1      -9.203  14.024  67.443  1.00  0.00    -0.216 A  
HETATM   14  C   UNL     1      -9.655  13.335  68.580  1.00  0.00    -0.127 A  
HETATM   15  C   UNL     1     -11.059  13.112  69.291  1.00  0.00    -0.201 C  
HETATM   16  N   UNL     1      -8.521  12.837  69.199  1.00  0.00    -0.085 NA 
HETATM   17  H   UNL     1      -8.519  12.381  70.112  1.00  0.00     0.000 HD 
HETATM   18  C   UNL     1     -11.284  14.332  70.279  1.00  0.00    -0.050 C  
HETATM   19  C   UNL     1      -7.792  13.765  67.327  1.00  0.00    -0.115 A  
HETATM   20  C   UNL     1      -6.804  14.116  66.380  1.00  0.00     3.263 A  
HETATM   21  C   UNL     1      -7.408  13.031  68.437  1.00  0.00    -0.116 A  
HETATM   22  C   UNL     1      -5.482  13.714  66.576  1.00  0.00     3.000 A  
HETATM   23  C   UNL     1      -5.135  12.982  67.705  1.00  0.00    -0.059 A  
HETATM   24  C   UNL     1      -6.078  12.630  68.660  1.00  0.00    -0.067 A  
BRANCH  15  25
HETATM   25  C   UNL     1     -11.010  11.694  69.965  1.00  0.00     0.244 A  
HETATM   26  O   UNL     1      -6.532   6.877  70.708  1.00  0.00    -0.045 OA 
HETATM   27  C   UNL     1     -11.709   9.792  71.383  1.00  0.00    -0.475 A  
HETATM   28  C   UNL     1      -7.849   6.442  70.354  1.00  0.00    -0.107 C  
HETATM   29  C   UNL     1     -11.978  11.050  70.769  1.00  0.00    -0.333 A  
HETATM   30  C   UNL     1      -7.953   6.201  68.810  1.00  0.00    -0.101 C  
HETATM   31  C   UNL     1      -7.869   8.948  68.677  1.00  0.00    -0.102 C  
HETATM   32  C   UNL     1     -10.490   9.165  71.173  1.00  0.00    -0.315 A  
HETATM   33  N   UNL     1     -10.013   7.852  71.515  1.00  0.00    -0.170 N  
HETATM   34  H   UNL     1      -5.887   6.187  70.606  1.00  0.00     0.000 HD 
HETATM   35  C   UNL     1      -7.726   7.538  67.911  1.00  0.00    -0.116 C  
HETATM   36  C   UNL     1     -10.909   6.869  71.908  1.00  0.00    -0.229 C  
HETATM   37  C   UNL     1      -8.927   7.594  70.524  1.00  0.00    -0.151 C  
HETATM   38  O   UNL     1     -12.102   6.987  72.158  1.00  0.00    -0.292 OA 
HETATM   39  C   UNL     1      -8.338   8.947  70.139  1.00  0.00    -0.142 C  
HETATM   40  C   UNL     1      -7.221   9.567  70.998  1.00  0.00    -0.001 C  
HETATM   41  C   UNL     1      -9.564   9.789  70.357  1.00  0.00    -0.223 A  
HETATM   42  C   UNL     1      -9.793  11.021  69.783  1.00  0.00     0.447 A  
HETATM   43  C   UNL     1      -6.124   9.943  70.015  1.00  0.00    -0.053 C  
HETATM   44  N   UNL     1      -6.762   9.914  68.712  1.00  0.00    -0.050 NA 
HETATM   45  C   UNL     1      -5.867   9.915  67.581  1.00  0.00    -0.046 C  
HETATM   46  C   UNL     1      -5.521   8.538  67.136  1.00  0.00    -0.038 C  
HETATM   47  C   UNL     1      -6.358   7.494  67.235  1.00  0.00    -0.053 C  
BRANCH  29  48
HETATM   48  O   UNL     1     -13.212  11.635  70.866  1.00  0.00    -0.022 OA 
HETATM   49  C   UNL     1     -13.481  12.306  72.094  1.00  0.00    -0.327 C  
ENDBRANCH  29  48
BRANCH  35  50
HETATM   50  C   UNL     1      -8.934   7.412  66.889  1.00  0.00    -0.150 C  
HETATM   51  C   UNL     1      -9.137   8.395  65.749  1.00  0.00    -0.195 C  
ENDBRANCH  35  50
BRANCH  30  52
HETATM   52  O   UNL     1      -7.620   4.970  68.106  1.00  0.00    -0.078 OA 
BRANCH  52  53
HETATM   53  C   UNL     1      -8.458   4.008  67.690  1.00  0.00    -0.098 C  
HETATM   54  C   UNL     1      -7.678   2.717  67.552  1.00  0.00    -0.065 C  
HETATM   55  O   UNL     1      -9.670   4.133  67.613  1.00  0.00    -0.172 OA 
ENDBRANCH  52  53
ENDBRANCH  30  52
BRANCH  28  56
HETATM   56  C   UNL     1      -8.197   5.222  71.201  1.00  0.00    -0.118 C  
HETATM   57  O   UNL     1      -9.187   4.517  71.065  1.00  0.00    -0.126 OA 
BRANCH  56  58
HETATM   58  O   UNL     1      -7.282   5.093  72.212  1.00  0.00    -0.084 OA 
HETATM   59  C   UNL     1      -7.559   4.086  73.188  1.00  0.00    -0.075 C  
ENDBRANCH  56  58
ENDBRANCH  28  56
ENDBRANCH  15  25
BRANCH  15  60
HETATM   60  C   UNL     1     -12.182  13.002  68.183  1.00  0.00     0.008 C  
HETATM   61  O   UNL     1     -13.143  13.767  68.081  1.00  0.00     1.484 OA 
BRANCH  60  62
HETATM   62  O   UNL     1     -11.935  12.005  67.280  1.00  0.00    -0.591 OA 
HETATM   63  C   UNL     1     -11.340  12.421  66.032  1.00  0.00    -0.353 C  
ENDBRANCH  60  62
ENDBRANCH  15  60
ENDBRANCH   2   3
TORSDOF 10
ENDMDL
MODEL       34
REMARK 921   NORMALIZED FREE ENERGY PREDICTED BY IDOCK:   14.79 KCAL/MOL
REMARK 922        TOTAL FREE ENERGY PREDICTED BY IDOCK:   21.77 KCAL/MOL
REMARK 923 INTER-LIGAND FREE ENERGY PREDICTED BY IDOCK:   20.52 KCAL/MOL
REMARK 924 INTRA-LIGAND FREE ENERGY PREDICTED BY IDOCK:    1.25 KCAL/MOL
REMARK 927      BINDING AFFINITY PREDICTED BY RF-SCORE:    0.00 PKD
ROOT
HETATM    1  C   UNL     1      -9.188  18.255  65.464  1.00  0.00     1.010 C  
HETATM    2  C   UNL     1      -8.678  18.565  66.872  1.00  0.00    -0.287 C  
ENDROOT
BRANCH   2   3
HETATM    3  C   UNL     1      -7.139  18.463  67.064  1.00  0.00    -0.194 C  
HETATM    4  C   UNL     1      -6.508  17.243  66.325  1.00  0.00    -0.232 C  
HETATM    5  O   UNL     1      -6.552  19.656  66.518  1.00  0.00    -0.183 OA 
HETATM    6  C   UNL     1      -6.805  15.988  67.146  1.00  0.00    -0.223 C  
HETATM    7  H   UNL     1      -5.611  19.594  66.636  1.00  0.00     0.000 HD 
HETATM    8  C   UNL     1      -6.056  16.130  68.465  1.00  0.00    -0.112 C  
HETATM    9  N   UNL     1      -6.690  17.134  69.298  1.00  0.00    -0.237 NA 
HETATM   10  C   UNL     1      -7.919  16.711  69.997  1.00  0.00     1.426 C  
HETATM   11  C   UNL     1      -6.770  18.433  68.602  1.00  0.00    -0.256 C  
HETATM   12  C   UNL     1      -8.201  15.187  70.194  1.00  0.00     0.542 C  
HETATM   13  C   UNL     1      -9.003  14.589  69.062  1.00  0.00    -0.044 A  
HETATM   14  C   UNL     1      -8.602  13.913  67.898  1.00  0.00    -0.180 A  
HETATM   15  C   UNL     1      -7.220  13.411  67.294  1.00  0.00    -0.023 C  
HETATM   16  N   UNL     1      -9.743  13.771  67.127  1.00  0.00    -0.238 NA 
HETATM   17  H   UNL     1      -9.749  13.414  66.171  1.00  0.00     0.000 HD 
HETATM   18  C   UNL     1      -6.596  14.619  66.478  1.00  0.00     2.724 C  
HETATM   19  C   UNL     1     -10.439  14.682  69.020  1.00  0.00    -0.248 A  
HETATM   20  C   UNL     1     -11.416  15.182  69.908  1.00  0.00    -0.315 A  
HETATM   21  C   UNL     1     -10.858  14.169  67.804  1.00  0.00    -0.252 A  
HETATM   22  C   UNL     1     -12.765  15.143  69.550  1.00  0.00     0.095 A  
HETATM   23  C   UNL     1     -13.144  14.624  68.318  1.00  0.00     2.442 A  
HETATM   24  C   UNL     1     -12.209  14.134  67.418  1.00  0.00    -0.278 A  
BRANCH  15  25
HETATM   25  C   UNL     1      -7.528  12.116  66.461  1.00  0.00     0.307 A  
HETATM   26  O   UNL     1     -10.365   6.241  67.580  1.00  0.00    -0.150 OA 
HETATM   27  C   UNL     1      -7.799  10.662  64.479  1.00  0.00     0.101 A  
HETATM   28  C   UNL     1      -9.156   6.204  66.815  1.00  0.00    -0.133 C  
HETATM   29  C   UNL     1      -7.361  11.879  65.077  1.00  0.00     2.788 A  
HETATM   30  C   UNL     1      -7.933   5.865  67.732  1.00  0.00    -0.098 C  
HETATM   31  C   UNL     1      -8.303   8.427  68.665  1.00  0.00    -0.120 C  
HETATM   32  C   UNL     1      -8.375   9.673  65.261  1.00  0.00    -0.134 A  
HETATM   33  N   UNL     1      -8.748   8.313  64.971  1.00  0.00    -0.079 N  
HETATM   34  H   UNL     1     -10.623   5.380  67.885  1.00  0.00     0.000 HD 
HETATM   35  C   UNL     1      -7.635   6.977  68.882  1.00  0.00    -0.104 C  
HETATM   36  C   UNL     1      -8.281   7.697  63.820  1.00  0.00     0.042 C  
HETATM   37  C   UNL     1      -8.724   7.642  66.305  1.00  0.00    -0.152 C  
HETATM   38  O   UNL     1      -7.675   8.200  62.883  1.00  0.00    -0.119 OA 
HETATM   39  C   UNL     1      -9.045   8.706  67.350  1.00  0.00    -0.148 C  
HETATM   40  C   UNL     1     -10.512   9.028  67.689  1.00  0.00    -0.324 C  
HETATM   41  C   UNL     1      -8.502   9.902  66.618  1.00  0.00    -0.126 A  
HETATM   42  C   UNL     1      -8.116  11.086  67.209  1.00  0.00    -0.126 A  
HETATM   43  C   UNL     1     -10.597   8.953  69.204  1.00  0.00    -0.195 C  
HETATM   44  N   UNL     1      -9.220   9.002  69.660  1.00  0.00    -0.153 NA 
HETATM   45  C   UNL     1      -9.005   8.622  71.035  1.00  0.00    -0.196 C  
HETATM   46  C   UNL     1      -8.710   7.170  71.178  1.00  0.00    -0.133 C  
HETATM   47  C   UNL     1      -8.062   6.450  70.250  1.00  0.00    -0.120 C  
BRANCH  29  48
HETATM   48  O   UNL     1      -6.687  12.823  64.351  1.00  0.00     8.431 OA 
HETATM   49  C   UNL     1      -5.846  12.319  63.316  1.00  0.00     5.257 C  
ENDBRANCH  29  48
BRANCH  35  50
HETATM   50  C   UNL     1      -6.063   7.136  68.735  1.00  0.00    -0.030 C  
HETATM   51  C   UNL     1      -5.396   8.493  68.590  1.00  0.00    -0.036 C  
ENDBRANCH  35  50
BRANCH  30  52
HETATM   52  O   UNL     1      -7.464   4.531  68.085  1.00  0.00    -0.065 OA 
BRANCH  52  53
HETATM   53  C   UNL     1      -6.733   3.692  67.338  1.00  0.00    -0.042 C  
HETATM   54  C   UNL     1      -5.943   4.506  66.334  1.00  0.00    -0.027 C  
HETATM   55  O   UNL     1      -6.606   2.499  67.561  1.00  0.00    -0.035 OA 
ENDBRANCH  52  53
ENDBRANCH  30  52
BRANCH  28  56
HETATM   56  C   UNL     1      -9.353   5.234  65.653  1.00  0.00    -0.114 C  
HETATM   57  O   UNL     1     -10.036   4.220  65.678  1.00  0.00    -0.202 OA 
BRANCH  56  58
HETATM   58  O   UNL     1      -8.561   5.613  64.603  1.00  0.00    -0.119 OA 
HETATM   59  C   UNL     1      -8.410   4.658  63.550  1.00  0.00    -0.113 C  
ENDBRANCH  56  58
ENDBRANCH  28  56
ENDBRANCH  15  25
BRANCH  15  60
HETATM   60  C   UNL     1      -6.290  12.924  68.479  1.00  0.00    -0.079 C  
HETATM   61  O   UNL     1      -5.149  13.338  68.688  1.00  0.00    -0.066 OA 
BRANCH  60  62
HETATM   62  O   UNL     1      -6.920  12.044  69.315  1.00  0.00    -0.096 OA 
HETATM   63  C   UNL     1      -6.826  12.338  70.725  1.00  0.00     2.289 C  
ENDBRANCH  60  62
ENDBRANCH  15  60
ENDBRANCH   2   3
TORSDOF 10
ENDMDL
MODEL       35
REMARK 921   NORMALIZED FREE ENERGY PREDICTED BY IDOCK:   16.50 KCAL/MOL
REMARK 922        TOTAL FREE ENERGY PREDICTED BY IDOCK:   24.47 KCAL/MOL
REMARK 923 INTER-LIGAND FREE ENERGY PREDICTED BY IDOCK:   20.71 KCAL/MOL
REMARK 924 INTRA-LIGAND FREE ENERGY PREDICTED BY IDOCK:    3.76 KCAL/MOL
REMARK 927      BINDING AFFINITY PREDICTED BY RF-SCORE:    0.00 PKD
ROOT
HETATM    1  C   UNL     1     -13.926   7.526  70.291  1.00  0.00     2.064 C  
HETATM    2  C   UNL     1     -12.692   8.405  70.489  1.00  0.00     0.583 C  
ENDROOT
BRANCH   2   3
HETATM    3  C   UNL     1     -11.481   7.715  71.178  1.00  0.00    -0.275 C  
HETATM    4  C   UNL     1     -10.370   8.719  71.612  1.00  0.00    -0.391 C  
HETATM    5  O   UNL     1     -11.969   7.064  72.364  1.00  0.00    -0.439 OA 
HETATM    6  C   UNL     1      -9.577   9.112  70.366  1.00  0.00    -0.268 C  
HETATM    7  H   UNL     1     -11.229   6.642  72.785  1.00  0.00     0.000 HD 
HETATM    8  C   UNL     1      -8.862   7.859  69.877  1.00  0.00    -0.141 C  
HETATM    9  N   UNL     1      -9.812   6.934  69.291  1.00  0.00    -0.156 NA 
HETATM   10  C   UNL     1     -10.267   7.255  67.924  1.00  0.00    -0.191 C  
HETATM   11  C   UNL     1     -10.880   6.586  70.249  1.00  0.00    -0.279 C  
HETATM   12  C   UNL     1      -9.413   8.220  67.040  1.00  0.00    -0.226 C  
HETATM   13  C   UNL     1      -9.823   9.667  67.189  1.00  0.00    -0.238 A  
HETATM   14  C   UNL     1      -9.325  10.692  68.011  1.00  0.00    -0.147 A  
HETATM   15  C   UNL     1      -8.125  10.840  69.043  1.00  0.00    -0.140 C  
HETATM   16  N   UNL     1     -10.208  11.750  67.877  1.00  0.00    -0.187 NA 
HETATM   17  H   UNL     1     -10.172  12.602  68.438  1.00  0.00     0.000 HD 
HETATM   18  C   UNL     1      -8.653  10.340  70.453  1.00  0.00     0.652 C  
HETATM   19  C   UNL     1     -10.922  10.223  66.444  1.00  0.00     0.077 A  
HETATM   20  C   UNL     1     -11.772   9.725  65.432  1.00  0.00     5.135 A  
HETATM   21  C   UNL     1     -11.131  11.512  66.903  1.00  0.00    -0.307 A  
HETATM   22  C   UNL     1     -12.786  10.535  64.917  1.00  0.00     7.283 A  
HETATM   23  C   UNL     1     -12.967  11.822  65.408  1.00  0.00     2.586 A  
HETATM   24  C   UNL     1     -12.157  12.338  66.409  1.00  0.00    -0.123 A  
BRANCH  15  25
HETATM   25  C   UNL     1      -7.656  12.338  68.987  1.00  0.00     0.103 A  
HETATM   26  O   UNL     1     -10.303  18.256  70.319  1.00  0.00     0.370 OA 
HETATM   27  C   UNL     1      -6.116  14.264  68.809  1.00  0.00    -0.085 A  
HETATM   28  C   UNL     1      -9.542  18.182  69.109  1.00  0.00    -0.052 C  
HETATM   29  C   UNL     1      -6.374  12.866  68.712  1.00  0.00    -0.080 A  
HETATM   30  C   UNL     1     -10.484  17.962  67.878  1.00  0.00    -0.396 C  
HETATM   31  C   UNL     1     -10.744  15.424  68.909  1.00  0.00    -0.244 C  
HETATM   32  C   UNL     1      -7.138  15.136  69.152  1.00  0.00    -0.154 A  
HETATM   33  N   UNL     1      -7.213  16.573  69.164  1.00  0.00    -0.223 N  
HETATM   34  H   UNL     1     -10.824  19.049  70.367  1.00  0.00     0.000 HD 
HETATM   35  C   UNL     1     -11.305  16.557  67.911  1.00  0.00    -0.049 C  
HETATM   36  C   UNL     1      -6.245  17.323  68.514  1.00  0.00    -0.160 C  
HETATM   37  C   UNL     1      -8.672  16.858  69.028  1.00  0.00    -0.150 C  
HETATM   38  O   UNL     1      -5.196  16.937  68.015  1.00  0.00    -0.110 OA 
HETATM   39  C   UNL     1      -9.421  15.680  69.644  1.00  0.00    -0.243 C  
HETATM   40  C   UNL     1      -9.704  15.661  71.157  1.00  0.00     1.988 C  
HETATM   41  C   UNL     1      -8.396  14.611  69.386  1.00  0.00     0.085 A  
HETATM   42  C   UNL     1      -8.656  13.258  69.331  1.00  0.00     1.068 A  
HETATM   43  C   UNL     1     -11.190  15.369  71.281  1.00  0.00    -0.352 C  
HETATM   44  N   UNL     1     -11.584  14.864  69.979  1.00  0.00    -0.273 NA 
HETATM   45  C   UNL     1     -13.003  14.819  69.731  1.00  0.00     0.268 C  
HETATM   46  C   UNL     1     -13.503  16.066  69.092  1.00  0.00     3.260 C  
HETATM   47  C   UNL     1     -12.773  16.811  68.249  1.00  0.00     3.151 C  
BRANCH  29  48
HETATM   48  O   UNL     1      -5.415  11.998  68.264  1.00  0.00    -0.046 OA 
HETATM   49  C   UNL     1      -5.244  11.945  66.850  1.00  0.00    -0.080 C  
ENDBRANCH  29  48
BRANCH  35  50
HETATM   50  C   UNL     1     -11.083  16.052  66.424  1.00  0.00     0.037 C  
HETATM   51  C   UNL     1      -9.832  15.300  66.001  1.00  0.00    -0.357 C  
ENDBRANCH  35  50
BRANCH  30  52
HETATM   52  O   UNL     1     -11.153  19.001  67.107  1.00  0.00    -0.358 OA 
BRANCH  52  53
HETATM   53  C   UNL     1     -10.738  19.575  65.968  1.00  0.00    -0.430 C  
HETATM   54  C   UNL     1      -9.626  20.550  66.297  1.00  0.00    -0.216 C  
HETATM   55  O   UNL     1     -11.088  19.228  64.851  1.00  0.00    -0.276 OA 
ENDBRANCH  52  53
ENDBRANCH  30  52
BRANCH  28  56
HETATM   56  C   UNL     1      -8.670  19.430  69.012  1.00  0.00    -0.211 C  
HETATM   57  O   UNL     1      -8.964  20.540  69.435  1.00  0.00     0.820 OA 
BRANCH  56  58
HETATM   58  O   UNL     1      -7.547  19.147  68.283  1.00  0.00    -0.280 OA 
HETATM   59  C   UNL     1      -6.542  20.164  68.254  1.00  0.00    -0.294 C  
ENDBRANCH  56  58
ENDBRANCH  28  56
ENDBRANCH  15  25
BRANCH  15  60
HETATM   60  C   UNL     1      -6.891  10.002  68.516  1.00  0.00    -0.054 C  
HETATM   61  O   UNL     1      -6.726   9.661  67.343  1.00  0.00    -0.070 OA 
BRANCH  60  62
HETATM   62  O   UNL     1      -5.963   9.760  69.491  1.00  0.00    -0.036 OA 
HETATM   63  C   UNL     1      -5.166   8.569  69.319  1.00  0.00    -0.031 C  
ENDBRANCH  60  62
ENDBRANCH  15  60
ENDBRANCH   2   3
TORSDOF 10
ENDMDL
MODEL       36
REMARK 921   NORMALIZED FREE ENERGY PREDICTED BY IDOCK:   16.90 KCAL/MOL
REMARK 922        TOTAL FREE ENERGY PREDICTED BY IDOCK:   25.11 KCAL/MOL
REMARK 923 INTER-LIGAND FREE ENERGY PREDICTED BY IDOCK:   19.71 KCAL/MOL
REMARK 924 INTRA-LIGAND FREE ENERGY PREDICTED BY IDOCK:    5.40 KCAL/MOL
REMARK 927      BINDING AFFINITY PREDICTED BY RF-SCORE:    0.00 PKD
ROOT
HETATM    1  C   UNL     1      -7.819  20.475  65.329  1.00  0.00     0.482 C  
HETATM    2  C   UNL     1      -7.474  19.219  66.129  1.00  0.00    -0.294 C  
ENDROOT
BRANCH   2   3
HETATM    3  C   UNL     1      -6.793  19.465  67.504  1.00  0.00    -0.204 C  
HETATM    4  C   UNL     1      -5.978  18.237  68.012  1.00  0.00    -0.169 C  
HETATM    5  O   UNL     1      -5.877  20.563  67.346  1.00  0.00    -0.176 OA 
HETATM    6  C   UNL     1      -6.966  17.209  68.562  1.00  0.00    -0.201 C  
HETATM    7  H   UNL     1      -5.461  20.713  68.187  1.00  0.00     0.000 HD 
HETATM    8  C   UNL     1      -7.622  17.830  69.788  1.00  0.00     0.882 C  
HETATM    9  N   UNL     1      -8.542  18.878  69.390  1.00  0.00     0.151 NA 
HETATM   10  C   UNL     1      -9.848  18.428  68.871  1.00  0.00    -0.322 C  
HETATM   11  C   UNL     1      -7.860  19.910  68.583  1.00  0.00    -0.169 C  
HETATM   12  C   UNL     1     -10.346  16.984  69.201  1.00  0.00    -0.313 C  
HETATM   13  C   UNL     1      -9.926  15.969  68.163  1.00  0.00    -0.228 A  
HETATM   14  C   UNL     1      -8.824  15.100  68.108  1.00  0.00    -0.169 A  
HETATM   15  C   UNL     1      -7.619  14.729  69.078  1.00  0.00    -0.141 C  
HETATM   16  N   UNL     1      -8.836  14.548  66.839  1.00  0.00    -0.261 NA 
HETATM   17  H   UNL     1      -8.094  13.958  66.462  1.00  0.00     0.000 HD 
HETATM   18  C   UNL     1      -6.460  15.777  68.809  1.00  0.00    -0.111 C  
HETATM   19  C   UNL     1     -10.675  15.773  66.950  1.00  0.00    -0.299 A  
HETATM   20  C   UNL     1     -11.890  16.294  66.452  1.00  0.00     1.321 A  
HETATM   21  C   UNL     1      -9.965  14.889  66.155  1.00  0.00    -0.303 A  
HETATM   22  C   UNL     1     -12.346  15.907  65.191  1.00  0.00     1.080 A  
HETATM   23  C   UNL     1     -11.602  15.022  64.421  1.00  0.00    -0.281 A  
HETATM   24  C   UNL     1     -10.399  14.500  64.876  1.00  0.00    -0.401 A  
BRANCH  15  25
HETATM   25  C   UNL     1      -7.255  13.227  68.800  1.00  0.00    -0.088 A  
HETATM   26  O   UNL     1      -9.357   8.444  64.736  1.00  0.00    -0.171 OA 
HETATM   27  C   UNL     1      -5.964  11.119  68.869  1.00  0.00    -0.040 A  
HETATM   28  C   UNL     1      -9.123   8.041  66.090  1.00  0.00    -0.176 C  
HETATM   29  C   UNL     1      -6.197  12.449  69.323  1.00  0.00    -0.101 A  
HETATM   30  C   UNL     1     -10.462   8.034  66.902  1.00  0.00    -0.317 C  
HETATM   31  C   UNL     1     -10.224  10.771  66.746  1.00  0.00    -0.230 C  
HETATM   32  C   UNL     1      -6.799  10.555  67.916  1.00  0.00    -0.069 A  
HETATM   33  N   UNL     1      -6.908   9.215  67.405  1.00  0.00    -0.076 N  
HETATM   34  H   UNL     1      -9.842   7.791  64.246  1.00  0.00     0.000 HD 
HETATM   35  C   UNL     1     -11.163   9.496  67.043  1.00  0.00     0.515 C  
HETATM   36  C   UNL     1      -6.291   8.167  68.071  1.00  0.00    -0.055 C  
HETATM   37  C   UNL     1      -8.313   9.132  66.908  1.00  0.00    -0.119 C  
HETATM   38  O   UNL     1      -5.506   8.222  69.009  1.00  0.00    -0.030 OA 
HETATM   39  C   UNL     1      -8.728  10.540  66.492  1.00  0.00    -0.145 C  
HETATM   40  C   UNL     1      -8.401  11.045  65.075  1.00  0.00     0.130 C  
HETATM   41  C   UNL     1      -7.851  11.314  67.436  1.00  0.00    -0.128 A  
HETATM   42  C   UNL     1      -8.071  12.614  67.838  1.00  0.00    -0.165 A  
HETATM   43  C   UNL     1      -9.713  11.587  64.532  1.00  0.00    -0.207 C  
HETATM   44  N   UNL     1     -10.565  11.743  65.696  1.00  0.00    -0.260 NA 
HETATM   45  C   UNL     1     -11.967  11.932  65.420  1.00  0.00     0.020 C  
HETATM   46  C   UNL     1     -12.714  10.645  65.389  1.00  0.00     6.605 C  
HETATM   47  C   UNL     1     -12.391   9.582  66.140  1.00  0.00     9.490 C  
BRANCH  29  48
HETATM   48  O   UNL     1      -5.460  12.989  70.344  1.00  0.00    -0.114 OA 
HETATM   49  C   UNL     1      -5.134  12.095  71.405  1.00  0.00    -0.095 C  
ENDBRANCH  29  48
BRANCH  35  50
HETATM   50  C   UNL     1     -11.520   9.502  68.589  1.00  0.00     0.330 C  
HETATM   51  C   UNL     1     -10.843   8.570  69.581  1.00  0.00    -0.157 C  
ENDBRANCH  35  50
BRANCH  30  52
HETATM   52  O   UNL     1     -11.409   6.930  66.993  1.00  0.00    -0.304 OA 
BRANCH  52  53
HETATM   53  C   UNL     1     -11.148   5.616  66.936  1.00  0.00     0.114 C  
HETATM   54  C   UNL     1     -10.966   5.100  68.349  1.00  0.00     0.605 C  
HETATM   55  O   UNL     1     -11.223   4.939  65.923  1.00  0.00    -0.065 OA 
ENDBRANCH  52  53
ENDBRANCH  30  52
BRANCH  28  56
HETATM   56  C   UNL     1      -8.396   6.700  66.073  1.00  0.00    -0.134 C  
HETATM   57  O   UNL     1      -7.470   6.381  66.805  1.00  0.00    -0.083 OA 
BRANCH  56  58
HETATM   58  O   UNL     1      -8.867   5.939  65.038  1.00  0.00    -0.075 OA 
HETATM   59  C   UNL     1      -8.239   4.667  64.854  1.00  0.00    -0.113 C  
ENDBRANCH  56  58
ENDBRANCH  28  56
ENDBRANCH  15  25
BRANCH  15  60
HETATM   60  C   UNL     1      -8.139  14.756  70.572  1.00  0.00     1.442 C  
HETATM   61  O   UNL     1      -9.324  14.841  70.900  1.00  0.00     1.515 OA 
BRANCH  60  62
HETATM   62  O   UNL     1      -7.132  14.589  71.482  1.00  0.00     1.178 OA 
HETATM   63  C   UNL     1      -6.245  15.715  71.653  1.00  0.00     1.406 C  
ENDBRANCH  60  62
ENDBRANCH  15  60
ENDBRANCH   2   3
TORSDOF 10
ENDMDL
MODEL       37
REMARK 921   NORMALIZED FREE ENERGY PREDICTED BY IDOCK:   17.69 KCAL/MOL
REMARK 922        TOTAL FREE ENERGY PREDICTED BY IDOCK:   26.37 KCAL/MOL
REMARK 923 INTER-LIGAND FREE ENERGY PREDICTED BY IDOCK:   21.71 KCAL/MOL
REMARK 924 INTRA-LIGAND FREE ENERGY PREDICTED BY IDOCK:    4.66 KCAL/MOL
REMARK 927      BINDING AFFINITY PREDICTED BY RF-SCORE:    0.00 PKD
ROOT
HETATM    1  C   UNL     1     -11.115  17.801  66.661  1.00  0.00     0.431 C  
HETATM    2  C   UNL     1     -10.070  18.863  66.318  1.00  0.00    -0.460 C  
ENDROOT
BRANCH   2   3
HETATM    3  C   UNL     1      -8.836  18.356  65.521  1.00  0.00     1.102 C  
HETATM    4  C   UNL     1      -8.833  16.811  65.313  1.00  0.00     1.639 C  
HETATM    5  O   UNL     1      -8.873  18.972  64.222  1.00  0.00     5.347 OA 
HETATM    6  C   UNL     1      -8.393  16.159  66.624  1.00  0.00    -0.321 C  
HETATM    7  H   UNL     1      -8.119  18.662  63.735  1.00  0.00     0.000 HD 
HETATM    8  C   UNL     1      -6.945  16.566  66.861  1.00  0.00    -0.223 C  
HETATM    9  N   UNL     1      -6.870  17.964  67.236  1.00  0.00    -0.175 NA 
HETATM   10  C   UNL     1      -7.228  18.278  68.633  1.00  0.00    -0.282 C  
HETATM   11  C   UNL     1      -7.494  18.826  66.212  1.00  0.00    -0.262 C  
HETATM   12  C   UNL     1      -7.199  17.141  69.704  1.00  0.00     0.279 C  
HETATM   13  C   UNL     1      -8.527  16.434  69.843  1.00  0.00     0.942 A  
HETATM   14  C   UNL     1      -9.018  15.258  69.251  1.00  0.00    -0.241 A  
HETATM   15  C   UNL     1      -8.430  14.140  68.286  1.00  0.00    -0.169 C  
HETATM   16  N   UNL     1     -10.361  15.197  69.582  1.00  0.00    -0.324 NA 
HETATM   17  H   UNL     1     -11.015  14.510  69.205  1.00  0.00     0.000 HD 
HETATM   18  C   UNL     1      -8.632  14.649  66.798  1.00  0.00    -0.195 C  
HETATM   19  C   UNL     1      -9.582  16.960  70.669  1.00  0.00     2.930 A  
HETATM   20  C   UNL     1      -9.683  18.060  71.549  1.00  0.00     6.552 A  
HETATM   21  C   UNL     1     -10.702  16.168  70.476  1.00  0.00    -0.067 A  
HETATM   22  C   UNL     1     -10.889  18.319  72.202  1.00  0.00     3.215 A  
HETATM   23  C   UNL     1     -11.992  17.503  71.977  1.00  0.00     3.029 A  
HETATM   24  C   UNL     1     -11.930  16.421  71.111  1.00  0.00    -0.010 A  
BRANCH  15  25
HETATM   25  C   UNL     1      -9.156  12.796  68.648  1.00  0.00     0.044 A  
HETATM   26  O   UNL     1      -7.666   6.348  68.544  1.00  0.00    -0.100 OA 
HETATM   27  C   UNL     1     -10.865  11.285  69.604  1.00  0.00    -0.155 A  
HETATM   28  C   UNL     1      -8.967   6.685  68.052  1.00  0.00    -0.117 C  
HETATM   29  C   UNL     1     -10.415  12.593  69.259  1.00  0.00     0.237 A  
HETATM   30  C   UNL     1      -8.958   6.782  66.490  1.00  0.00    -0.149 C  
HETATM   31  C   UNL     1      -7.558   9.108  66.940  1.00  0.00    -0.091 C  
HETATM   32  C   UNL     1     -10.077  10.182  69.317  1.00  0.00    -0.222 A  
HETATM   33  N   UNL     1     -10.335   8.769  69.394  1.00  0.00    -0.211 N  
HETATM   34  H   UNL     1      -7.420   5.457  68.325  1.00  0.00     0.000 HD 
HETATM   35  C   UNL     1      -7.999   7.959  65.901  1.00  0.00    -0.106 C  
HETATM   36  C   UNL     1     -11.636   8.309  69.535  1.00  0.00     0.622 C  
HETATM   37  C   UNL     1      -9.378   8.174  68.416  1.00  0.00    -0.135 C  
HETATM   38  O   UNL     1     -12.650   8.959  69.755  1.00  0.00     1.249 OA 
HETATM   39  C   UNL     1      -8.168   9.101  68.349  1.00  0.00    -0.115 C  
HETATM   40  C   UNL     1      -7.022   8.938  69.364  1.00  0.00    -0.053 C  
HETATM   41  C   UNL     1      -8.862  10.390  68.689  1.00  0.00    -0.142 A  
HETATM   42  C   UNL     1      -8.395  11.649  68.379  1.00  0.00    -0.157 A  
HETATM   43  C   UNL     1      -5.755   8.877  68.528  1.00  0.00    -0.041 C  
HETATM   44  N   UNL     1      -6.141   9.380  67.223  1.00  0.00    -0.056 NA 
HETATM   45  C   UNL     1      -5.207   9.123  66.155  1.00  0.00    -0.036 C  
HETATM   46  C   UNL     1      -5.501   7.848  65.444  1.00  0.00    -0.033 C  
HETATM   47  C   UNL     1      -6.738   7.355  65.288  1.00  0.00    -0.047 C  
BRANCH  29  48
HETATM   48  O   UNL     1     -11.221  13.687  69.426  1.00  0.00    -0.249 OA 
HETATM   49  C   UNL     1     -12.391  13.719  68.612  1.00  0.00     0.021 C  
ENDBRANCH  29  48
BRANCH  35  50
HETATM   50  C   UNL     1      -8.966   8.615  64.827  1.00  0.00     0.057 C  
HETATM   51  C   UNL     1      -9.725   9.903  65.100  1.00  0.00    -0.376 C  
ENDBRANCH  35  50
BRANCH  30  52
HETATM   52  O   UNL     1      -9.157   5.682  65.556  1.00  0.00    -0.144 OA 
BRANCH  52  53
HETATM   53  C   UNL     1      -8.223   5.003  64.874  1.00  0.00    -0.132 C  
HETATM   54  C   UNL     1      -8.127   5.585  63.479  1.00  0.00    -0.113 C  
HETATM   55  O   UNL     1      -7.469   4.179  65.368  1.00  0.00    -0.075 OA 
ENDBRANCH  52  53
ENDBRANCH  30  52
BRANCH  28  56
HETATM   56  C   UNL     1      -9.967   5.677  68.609  1.00  0.00    -0.162 C  
HETATM   57  O   UNL     1     -11.135   5.566  68.265  1.00  0.00     0.009 OA 
BRANCH  56  58
HETATM   58  O   UNL     1      -9.388   4.978  69.635  1.00  0.00    -0.111 OA 
HETATM   59  C   UNL     1     -10.051   3.775  70.031  1.00  0.00     0.385 C  
ENDBRANCH  56  58
ENDBRANCH  28  56
ENDBRANCH  15  25
BRANCH  15  60
HETATM   60  C   UNL     1      -6.910  13.897  68.652  1.00  0.00    -0.101 C  
HETATM   61  O   UNL     1      -5.969  14.050  67.872  1.00  0.00    -0.134 OA 
BRANCH  60  62
HETATM   62  O   UNL     1      -6.730  13.574  69.969  1.00  0.00     0.037 OA 
HETATM   63  C   UNL     1      -5.520  14.071  70.579  1.00  0.00    -0.129 C  
ENDBRANCH  60  62
ENDBRANCH  15  60
ENDBRANCH   2   3
TORSDOF 10
ENDMDL
MODEL       38
REMARK 921   NORMALIZED FREE ENERGY PREDICTED BY IDOCK:   21.24 KCAL/MOL
REMARK 922        TOTAL FREE ENERGY PREDICTED BY IDOCK:   31.98 KCAL/MOL
REMARK 923 INTER-LIGAND FREE ENERGY PREDICTED BY IDOCK:   23.11 KCAL/MOL
REMARK 924 INTRA-LIGAND FREE ENERGY PREDICTED BY IDOCK:    8.87 KCAL/MOL
REMARK 927      BINDING AFFINITY PREDICTED BY RF-SCORE:    0.00 PKD
ROOT
HETATM    1  C   UNL     1     -10.678  16.927  64.258  1.00  0.00     1.738 C  
HETATM    2  C   UNL     1     -10.008  16.803  65.626  1.00  0.00    -0.163 C  
ENDROOT
BRANCH   2   3
HETATM    3  C   UNL     1      -8.668  17.573  65.789  1.00  0.00     0.292 C  
HETATM    4  C   UNL     1      -7.489  16.662  66.248  1.00  0.00    -0.175 C  
HETATM    5  O   UNL     1      -8.322  18.121  64.505  1.00  0.00     4.175 OA 
HETATM    6  C   UNL     1      -7.649  16.402  67.746  1.00  0.00    -0.160 C  
HETATM    7  H   UNL     1      -7.503  18.592  64.604  1.00  0.00     0.000 HD 
HETATM    8  C   UNL     1      -7.464  17.738  68.453  1.00  0.00    -0.263 C  
HETATM    9  N   UNL     1      -8.611  18.593  68.221  1.00  0.00    -0.312 NA 
HETATM   10  C   UNL     1      -9.815  18.292  69.021  1.00  0.00    -0.250 C  
HETATM   11  C   UNL     1      -8.844  18.795  66.777  1.00  0.00    -0.305 C  
HETATM   12  C   UNL     1      -9.671  17.454  70.331  1.00  0.00     2.275 C  
HETATM   13  C   UNL     1      -9.828  15.969  70.096  1.00  0.00     0.297 A  
HETATM   14  C   UNL     1      -8.876  14.960  69.872  1.00  0.00     0.371 A  
HETATM   15  C   UNL     1      -7.289  14.881  69.843  1.00  0.00    -0.033 C  
HETATM   16  N   UNL     1      -9.595  13.830  69.521  1.00  0.00     0.094 NA 
HETATM   17  H   UNL     1      -9.173  12.961  69.192  1.00  0.00     0.000 HD 
HETATM   18  C   UNL     1      -6.825  15.265  68.376  1.00  0.00    -0.112 C  
HETATM   19  C   UNL     1     -11.123  15.345  70.034  1.00  0.00    -0.317 A  
HETATM   20  C   UNL     1     -12.444  15.804  70.234  1.00  0.00    -0.291 A  
HETATM   21  C   UNL     1     -10.936  14.022  69.670  1.00  0.00    -0.040 A  
HETATM   22  C   UNL     1     -13.517  14.926  70.071  1.00  0.00     0.667 A  
HETATM   23  C   UNL     1     -13.287  13.607  69.701  1.00  0.00     1.831 A  
HETATM   24  C   UNL     1     -12.003  13.126  69.486  1.00  0.00    -0.354 A  
BRANCH  15  25
HETATM   25  C   UNL     1      -6.894  13.439  70.324  1.00  0.00     0.626 A  
HETATM   26  O   UNL     1      -8.571   7.228  68.767  1.00  0.00    -0.128 OA 
HETATM   27  C   UNL     1      -5.611  11.663  71.471  1.00  0.00     0.328 A  
HETATM   28  C   UNL     1      -8.471   7.505  70.168  1.00  0.00    -0.136 C  
HETATM   29  C   UNL     1      -5.891  13.041  71.237  1.00  0.00     0.221 A  
HETATM   30  C   UNL     1      -9.883   7.807  70.772  1.00  0.00    -0.180 C  
HETATM   31  C   UNL     1      -9.639  10.174  69.390  1.00  0.00    -0.232 C  
HETATM   32  C   UNL     1      -6.346  10.686  70.818  1.00  0.00     0.076 A  
HETATM   33  N   UNL     1      -6.400   9.257  70.977  1.00  0.00    -0.070 N  
HETATM   34  H   UNL     1      -9.004   6.401  68.594  1.00  0.00     0.000 HD 
HETATM   35  C   UNL     1     -10.599   9.134  70.160  1.00  0.00    -0.258 C  
HETATM   36  C   UNL     1      -5.849   8.663  72.103  1.00  0.00    -0.064 C  
HETATM   37  C   UNL     1      -7.749   8.887  70.456  1.00  0.00    -0.104 C  
HETATM   38  O   UNL     1      -5.161   9.181  72.973  1.00  0.00    -0.066 OA 
HETATM   39  C   UNL     1      -8.124   9.924  69.402  1.00  0.00    -0.139 C  
HETATM   40  C   UNL     1      -7.660   9.737  67.946  1.00  0.00    -0.086 C  
HETATM   41  C   UNL     1      -7.347  11.087  69.953  1.00  0.00     0.168 A  
HETATM   42  C   UNL     1      -7.610  12.414  69.688  1.00  0.00     0.906 A  
HETATM   43  C   UNL     1      -8.914   9.904  67.103  1.00  0.00    -0.138 C  
HETATM   44  N   UNL     1      -9.878  10.537  67.985  1.00  0.00    -0.146 NA 
HETATM   45  C   UNL     1     -11.246  10.511  67.533  1.00  0.00    -0.224 C  
HETATM   46  C   UNL     1     -11.983   9.319  68.035  1.00  0.00     2.908 C  
HETATM   47  C   UNL     1     -11.733   8.737  69.218  1.00  0.00     0.945 C  
BRANCH  29  48
HETATM   48  O   UNL     1      -5.261  14.024  71.952  1.00  0.00    -0.158 OA 
HETATM   49  C   UNL     1      -5.676  14.161  73.308  1.00  0.00     0.026 C  
ENDBRANCH  29  48
BRANCH  35  50
HETATM   50  C   UNL     1     -11.107   9.833  71.491  1.00  0.00    -0.222 C  
HETATM   51  C   UNL     1     -12.353   9.368  72.227  1.00  0.00    -0.298 C  
ENDBRANCH  35  50
BRANCH  30  52
HETATM   52  O   UNL     1     -10.832   6.825  71.281  1.00  0.00    -0.224 OA 
BRANCH  52  53
HETATM   53  C   UNL     1     -11.270   6.681  72.540  1.00  0.00    -0.266 C  
HETATM   54  C   UNL     1     -10.225   7.245  73.481  1.00  0.00    -0.404 C  
HETATM   55  O   UNL     1     -12.395   6.317  72.844  1.00  0.00     0.292 OA 
ENDBRANCH  52  53
ENDBRANCH  30  52
BRANCH  28  56
HETATM   56  C   UNL     1      -7.742   6.343  70.836  1.00  0.00    -0.101 C  
HETATM   57  O   UNL     1      -7.969   5.908  71.956  1.00  0.00    -0.105 OA 
BRANCH  56  58
HETATM   58  O   UNL     1      -6.717   5.924  70.030  1.00  0.00    -0.048 OA 
HETATM   59  C   UNL     1      -6.385   4.535  70.105  1.00  0.00    -0.027 C  
ENDBRANCH  56  58
ENDBRANCH  28  56
ENDBRANCH  15  25
BRANCH  15  60
HETATM   60  C   UNL     1      -6.708  15.855  70.947  1.00  0.00     1.408 C  
HETATM   61  O   UNL     1      -6.094  16.897  70.708  1.00  0.00     0.310 OA 
BRANCH  60  62
HETATM   62  O   UNL     1      -7.032  15.464  72.217  1.00  0.00     2.808 OA 
HETATM   63  C   UNL     1      -8.223  14.659  72.342  1.00  0.00     6.950 C  
ENDBRANCH  60  62
ENDBRANCH  15  60
ENDBRANCH   2   3
TORSDOF 10
ENDMDL
MODEL       39
REMARK 921   NORMALIZED FREE ENERGY PREDICTED BY IDOCK:   23.12 KCAL/MOL
REMARK 922        TOTAL FREE ENERGY PREDICTED BY IDOCK:   34.97 KCAL/MOL
REMARK 923 INTER-LIGAND FREE ENERGY PREDICTED BY IDOCK:   32.03 KCAL/MOL
REMARK 924 INTRA-LIGAND FREE ENERGY PREDICTED BY IDOCK:    2.94 KCAL/MOL
REMARK 927      BINDING AFFINITY PREDICTED BY RF-SCORE:    0.00 PKD
ROOT
HETATM    1  C   UNL     1      -9.208  18.458  65.239  1.00  0.00     1.894 C  
HETATM    2  C   UNL     1      -8.190  18.519  66.377  1.00  0.00    -0.289 C  
ENDROOT
BRANCH   2   3
HETATM    3  C   UNL     1      -6.748  18.068  66.012  1.00  0.00    -0.288 C  
HETATM    4  C   UNL     1      -6.690  16.633  65.405  1.00  0.00     3.012 C  
HETATM    5  O   UNL     1      -6.243  18.982  65.022  1.00  0.00    -0.267 OA 
HETATM    6  C   UNL     1      -6.832  15.630  66.549  1.00  0.00     1.045 C  
HETATM    7  H   UNL     1      -5.362  18.706  64.799  1.00  0.00     0.000 HD 
HETATM    8  C   UNL     1      -5.597  15.778  67.429  1.00  0.00     0.007 C  
HETATM    9  N   UNL     1      -5.655  17.021  68.173  1.00  0.00    -0.118 NA 
HETATM   10  C   UNL     1      -6.543  17.027  69.352  1.00  0.00    -0.225 C  
HETATM   11  C   UNL     1      -5.793  18.179  67.268  1.00  0.00    -0.137 C  
HETATM   12  C   UNL     1      -6.973  15.669  69.993  1.00  0.00     0.057 C  
HETATM   13  C   UNL     1      -8.256  15.125  69.408  1.00  0.00    -0.197 A  
HETATM   14  C   UNL     1      -8.486  14.203  68.375  1.00  0.00    -0.170 A  
HETATM   15  C   UNL     1      -7.578  13.288  67.444  1.00  0.00    -0.137 C  
HETATM   16  N   UNL     1      -9.849  14.235  68.131  1.00  0.00    -0.220 NA 
HETATM   17  H   UNL     1     -10.306  13.751  67.358  1.00  0.00     0.000 HD 
HETATM   18  C   UNL     1      -7.149  14.166  66.195  1.00  0.00     4.199 C  
HETATM   19  C   UNL     1      -9.545  15.564  69.874  1.00  0.00    -0.112 A  
HETATM   20  C   UNL     1      -9.974  16.420  70.913  1.00  0.00     2.042 A  
HETATM   21  C   UNL     1     -10.505  14.994  69.054  1.00  0.00    -0.245 A  
HETATM   22  C   UNL     1     -11.336  16.664  71.094  1.00  0.00     0.115 A  
HETATM   23  C   UNL     1     -12.268  16.076  70.246  1.00  0.00    -0.122 A  
HETATM   24  C   UNL     1     -11.880  15.240  69.210  1.00  0.00    -0.353 A  
BRANCH  15  25
HETATM   25  C   UNL     1      -8.414  12.000  67.113  1.00  0.00    -0.180 A  
HETATM   26  O   UNL     1     -11.445   7.224  70.549  1.00  0.00    -0.288 OA 
HETATM   27  C   UNL     1      -9.721  10.383  65.775  1.00  0.00    -0.285 A  
HETATM   28  C   UNL     1     -10.690   6.781  69.416  1.00  0.00    -0.255 C  
HETATM   29  C   UNL     1      -8.881  11.531  65.864  1.00  0.00    -0.105 A  
HETATM   30  C   UNL     1      -9.270   6.291  69.857  1.00  0.00    -0.151 C  
HETATM   31  C   UNL     1      -8.791   8.974  70.238  1.00  0.00    -0.189 C  
HETATM   32  C   UNL     1     -10.072   9.689  66.923  1.00  0.00    -0.227 A  
HETATM   33  N   UNL     1     -10.749   8.435  67.119  1.00  0.00    -0.241 N  
HETATM   34  H   UNL     1     -11.690   6.505  71.120  1.00  0.00     0.000 HD 
HETATM   35  C   UNL     1      -8.341   7.453  70.518  1.00  0.00    -0.132 C  
HETATM   36  C   UNL     1     -10.913   7.562  66.054  1.00  0.00     2.560 C  
HETATM   37  C   UNL     1     -10.281   7.981  68.462  1.00  0.00    -0.207 C  
HETATM   38  O   UNL     1     -10.681   7.760  64.869  1.00  0.00     5.393 OA 
HETATM   39  C   UNL     1      -9.957   9.231  69.273  1.00  0.00    -0.180 C  
HETATM   40  C   UNL     1     -11.074   9.947  70.054  1.00  0.00    -0.335 C  
HETATM   41  C   UNL     1      -9.581  10.138  68.135  1.00  0.00    -0.151 A  
HETATM   42  C   UNL     1      -8.796  11.266  68.245  1.00  0.00    -0.158 A  
HETATM   43  C   UNL     1     -10.530  10.117  71.463  1.00  0.00     1.365 C  
HETATM   44  N   UNL     1      -9.100   9.895  71.342  1.00  0.00     0.660 NA 
HETATM   45  C   UNL     1      -8.397   9.679  72.582  1.00  0.00     3.138 C  
HETATM   46  C   UNL     1      -8.312   8.235  72.937  1.00  0.00    -0.245 C  
HETATM   47  C   UNL     1      -8.238   7.252  72.028  1.00  0.00    -0.108 C  
BRANCH  29  48
HETATM   48  O   UNL     1      -8.426  12.166  64.739  1.00  0.00     1.222 OA 
HETATM   49  C   UNL     1      -8.166  11.323  63.620  1.00  0.00     0.620 C  
ENDBRANCH  29  48
BRANCH  35  50
HETATM   50  C   UNL     1      -6.971   7.201  69.758  1.00  0.00    -0.054 C  
HETATM   51  C   UNL     1      -6.660   7.839  68.415  1.00  0.00    -0.054 C  
ENDBRANCH  35  50
BRANCH  30  52
HETATM   52  O   UNL     1      -8.922   4.950  70.307  1.00  0.00    -0.103 OA 
BRANCH  52  53
HETATM   53  C   UNL     1      -9.737   3.896  70.456  1.00  0.00    -0.177 C  
HETATM   54  C   UNL     1     -10.513   4.065  71.746  1.00  0.00     0.053 C  
HETATM   55  O   UNL     1      -9.932   3.046  69.602  1.00  0.00     0.160 OA 
ENDBRANCH  52  53
ENDBRANCH  30  52
BRANCH  28  56
HETATM   56  C   UNL     1     -11.510   5.730  68.673  1.00  0.00     0.806 C  
HETATM   57  O   UNL     1     -12.193   4.860  69.194  1.00  0.00     6.918 OA 
BRANCH  56  58
HETATM   58  O   UNL     1     -11.280   5.839  67.328  1.00  0.00    -0.056 OA 
HETATM   59  C   UNL     1     -11.749   4.757  66.519  1.00  0.00     3.784 C  
ENDBRANCH  56  58
ENDBRANCH  28  56
ENDBRANCH  15  25
BRANCH  15  60
HETATM   60  C   UNL     1      -6.342  12.770  68.286  1.00  0.00    -0.078 C  
HETATM   61  O   UNL     1      -5.165  12.874  67.937  1.00  0.00    -0.090 OA 
BRANCH  60  62
HETATM   62  O   UNL     1      -6.709  12.261  69.500  1.00  0.00    -0.088 OA 
HETATM   63  C   UNL     1      -6.010  12.797  70.644  1.00  0.00    -0.003 C  
ENDBRANCH  60  62
ENDBRANCH  15  60
ENDBRANCH   2   3
TORSDOF 10
ENDMDL
MODEL       40
REMARK 921   NORMALIZED FREE ENERGY PREDICTED BY IDOCK:   35.53 KCAL/MOL
REMARK 922        TOTAL FREE ENERGY PREDICTED BY IDOCK:   54.63 KCAL/MOL
REMARK 923 INTER-LIGAND FREE ENERGY PREDICTED BY IDOCK:   32.93 KCAL/MOL
REMARK 924 INTRA-LIGAND FREE ENERGY PREDICTED BY IDOCK:   21.70 KCAL/MOL
REMARK 927      BINDING AFFINITY PREDICTED BY RF-SCORE:    0.00 PKD
ROOT
HETATM    1  C   UNL     1     -12.515  21.108  68.191  1.00  0.00     7.057 C  
HETATM    2  C   UNL     1     -11.435  20.068  68.491  1.00  0.00     2.017 C  
ENDROOT
BRANCH   2   3
HETATM    3  C   UNL     1     -10.330  19.918  67.409  1.00  0.00    -0.426 C  
HETATM    4  C   UNL     1     -10.304  18.505  66.751  1.00  0.00    -0.435 C  
HETATM    5  O   UNL     1     -10.602  20.878  66.373  1.00  0.00     0.340 OA 
HETATM    6  C   UNL     1      -9.632  17.541  67.728  1.00  0.00    -0.269 C  
HETATM    7  H   UNL     1      -9.926  20.787  65.712  1.00  0.00     0.000 HD 
HETATM    8  C   UNL     1      -8.180  17.982  67.864  1.00  0.00    -0.247 C  
HETATM    9  N   UNL     1      -8.097  19.214  68.625  1.00  0.00    -0.362 NA 
HETATM   10  C   UNL     1      -8.234  19.079  70.089  1.00  0.00     1.511 C  
HETATM   11  C   UNL     1      -8.911  20.280  68.007  1.00  0.00    -0.106 C  
HETATM   12  C   UNL     1      -7.988  17.688  70.755  1.00  0.00     5.185 C  
HETATM   13  C   UNL     1      -9.249  16.861  70.867  1.00  0.00     4.719 A  
HETATM   14  C   UNL     1      -9.785  15.871  70.028  1.00  0.00     0.126 A  
HETATM   15  C   UNL     1      -9.321  15.133  68.699  1.00  0.00    -0.199 C  
HETATM   16  N   UNL     1     -11.053  15.604  70.517  1.00  0.00    -0.331 NA 
HETATM   17  H   UNL     1     -11.733  15.003  70.050  1.00  0.00     0.000 HD 
HETATM   18  C   UNL     1      -9.783  16.031  67.476  1.00  0.00    -0.228 C  
HETATM   19  C   UNL     1     -10.173  17.036  71.956  1.00  0.00     5.214 A  
HETATM   20  C   UNL     1     -10.170  17.822  73.129  1.00  0.00     6.671 A  
HETATM   21  C   UNL     1     -11.279  16.243  71.699  1.00  0.00     0.097 A  
HETATM   22  C   UNL     1     -11.263  17.779  73.997  1.00  0.00     1.450 A  
HETATM   23  C   UNL     1     -12.356  16.974  73.701  1.00  0.00     0.152 A  
HETATM   24  C   UNL     1     -12.396  16.198  72.552  1.00  0.00    -0.564 A  
BRANCH  15  25
HETATM   25  C   UNL     1      -9.929  13.685  68.744  1.00  0.00    -0.095 A  
HETATM   26  O   UNL     1      -7.792   7.537  67.539  1.00  0.00    -0.111 OA 
HETATM   27  C   UNL     1     -11.529  11.873  69.264  1.00  0.00    -0.366 A  
HETATM   28  C   UNL     1      -9.090   7.849  67.022  1.00  0.00    -0.137 C  
HETATM   29  C   UNL     1     -11.194  13.257  69.207  1.00  0.00    -0.208 A  
HETATM   30  C   UNL     1      -9.000   8.249  65.511  1.00  0.00    -0.064 C  
HETATM   31  C   UNL     1      -7.870  10.556  66.498  1.00  0.00    -0.134 C  
HETATM   32  C   UNL     1     -10.618  10.921  68.835  1.00  0.00    -0.210 A  
HETATM   33  N   UNL     1     -10.737   9.502  68.624  1.00  0.00    -0.210 N  
HETATM   34  H   UNL     1      -7.445   6.731  67.176  1.00  0.00     0.000 HD 
HETATM   35  C   UNL     1      -8.132   9.597  65.230  1.00  0.00    -0.125 C  
HETATM   36  C   UNL     1     -11.991   8.912  68.576  1.00  0.00     2.507 C  
HETATM   37  C   UNL     1      -9.669   9.196  67.628  1.00  0.00    -0.159 C  
HETATM   38  O   UNL     1     -13.077   9.414  68.836  1.00  0.00     3.581 OA 
HETATM   39  C   UNL     1      -8.557  10.221  67.829  1.00  0.00    -0.118 C  
HETATM   40  C   UNL     1      -7.462   9.964  68.880  1.00  0.00    -0.081 C  
HETATM   41  C   UNL     1      -9.396  11.353  68.353  1.00  0.00    -0.194 A  
HETATM   42  C   UNL     1      -9.041  12.684  68.322  1.00  0.00    -0.181 A  
HETATM   43  C   UNL     1      -6.148  10.178  68.147  1.00  0.00    -0.048 C  
HETATM   44  N   UNL     1      -6.506  10.891  66.935  1.00  0.00    -0.087 NA 
HETATM   45  C   UNL     1      -5.491  10.930  65.912  1.00  0.00    -0.147 C  
HETATM   46  C   UNL     1      -5.612   9.798  64.954  1.00  0.00    -0.072 C  
HETATM   47  C   UNL     1      -6.783   9.238  64.612  1.00  0.00    -0.081 C  
BRANCH  29  48
HETATM   48  O   UNL     1     -12.114  14.223  69.515  1.00  0.00    -0.313 OA 
HETATM   49  C   UNL     1     -11.678  15.568  69.335  1.00  0.00    -0.367 C  
ENDBRANCH  29  48
BRANCH  35  50
HETATM   50  C   UNL     1      -9.096  10.363  64.229  1.00  0.00    -0.270 C  
HETATM   51  C   UNL     1      -8.923  10.288  62.721  1.00  0.00    -0.266 C  
ENDBRANCH  35  50
BRANCH  30  52
HETATM   52  O   UNL     1      -9.033   7.339  64.374  1.00  0.00     0.596 OA 
BRANCH  52  53
HETATM   53  C   UNL     1      -8.355   7.439  63.221  1.00  0.00     0.170 C  
HETATM   54  C   UNL     1      -7.768   6.083  62.888  1.00  0.00    -0.090 C  
HETATM   55  O   UNL     1      -8.371   8.419  62.493  1.00  0.00    -0.188 OA 
ENDBRANCH  52  53
ENDBRANCH  30  52
BRANCH  28  56
HETATM   56  C   UNL     1     -10.014   6.667  67.300  1.00  0.00    -0.154 C  
HETATM   57  O   UNL     1     -10.291   6.222  68.405  1.00  0.00    -0.161 OA 
BRANCH  56  58
HETATM   58  O   UNL     1     -10.408   6.107  66.115  1.00  0.00     0.013 OA 
HETATM   59  C   UNL     1      -9.912   4.794  65.843  1.00  0.00    -0.228 C  
ENDBRANCH  56  58
ENDBRANCH  28  56
ENDBRANCH  15  25
BRANCH  15  60
HETATM   60  C   UNL     1      -7.754  14.922  68.751  1.00  0.00    -0.139 C  
HETATM   61  O   UNL     1      -6.997  15.495  69.537  1.00  0.00    -0.168 OA 
BRANCH  60  62
HETATM   62  O   UNL     1      -7.322  13.962  67.878  1.00  0.00    -0.118 OA 
HETATM   63  C   UNL     1      -5.894  13.886  67.684  1.00  0.00    -0.021 C  
ENDBRANCH  60  62
ENDBRANCH  15  60
ENDBRANCH   2   3
TORSDOF 10
ENDMDL
MODEL       41
REMARK 921   NORMALIZED FREE ENERGY PREDICTED BY IDOCK:   43.55 KCAL/MOL
REMARK 922        TOTAL FREE ENERGY PREDICTED BY IDOCK:   67.34 KCAL/MOL
REMARK 923 INTER-LIGAND FREE ENERGY PREDICTED BY IDOCK:   42.31 KCAL/MOL
REMARK 924 INTRA-LIGAND FREE ENERGY PREDICTED BY IDOCK:   25.03 KCAL/MOL
REMARK 927      BINDING AFFINITY PREDICTED BY RF-SCORE:    0.00 PKD
ROOT
HETATM    1  C   UNL     1      -8.727   7.038  64.704  1.00  0.00     0.396 C  
HETATM    2  C   UNL     1     -10.049   6.674  64.027  1.00  0.00     5.267 C  
ENDROOT
BRANCH   2   3
HETATM    3  C   UNL     1     -11.021   5.808  64.877  1.00  0.00     3.174 C  
HETATM    4  C   UNL     1     -12.078   6.653  65.651  1.00  0.00     6.551 C  
HETATM    5  O   UNL     1     -11.730   4.939  63.976  1.00  0.00     0.629 OA 
HETATM    6  C   UNL     1     -11.389   7.271  66.868  1.00  0.00     0.623 C  
HETATM    7  H   UNL     1     -12.323   4.409  64.495  1.00  0.00     0.000 HD 
HETATM    8  C   UNL     1     -10.994   6.123  67.788  1.00  0.00    -0.303 C  
HETATM    9  N   UNL     1      -9.885   5.381  67.220  1.00  0.00    -0.144 NA 
HETATM   10  C   UNL     1      -8.554   6.002  67.358  1.00  0.00    -0.102 C  
HETATM   11  C   UNL     1     -10.215   4.879  65.871  1.00  0.00    -0.223 C  
HETATM   12  C   UNL     1      -8.331   7.099  68.448  1.00  0.00    -0.125 C  
HETATM   13  C   UNL     1      -8.593   8.496  67.935  1.00  0.00    -0.134 A  
HETATM   14  C   UNL     1      -9.741   9.303  67.989  1.00  0.00    -0.150 A  
HETATM   15  C   UNL     1     -11.186   9.182  68.641  1.00  0.00     0.246 C  
HETATM   16  N   UNL     1      -9.475  10.399  67.186  1.00  0.00    -0.157 NA 
HETATM   17  H   UNL     1     -10.164  11.110  66.939  1.00  0.00     0.000 HD 
HETATM   18  C   UNL     1     -12.108   8.415  67.604  1.00  0.00     4.868 C  
HETATM   19  C   UNL     1      -7.591   9.239  67.217  1.00  0.00    -0.091 A  
HETATM   20  C   UNL     1      -6.237   9.001  66.894  1.00  0.00    -0.059 A  
HETATM   21  C   UNL     1      -8.179  10.409  66.765  1.00  0.00    -0.126 A  
HETATM   22  C   UNL     1      -5.528   9.940  66.142  1.00  0.00    -0.051 A  
HETATM   23  C   UNL     1      -6.154  11.100  65.704  1.00  0.00     0.141 A  
HETATM   24  C   UNL     1      -7.486  11.360  65.995  1.00  0.00     0.206 A  
BRANCH  15  25
HETATM   25  C   UNL     1     -11.645  10.638  69.009  1.00  0.00    -0.332 A  
HETATM   26  O   UNL     1     -12.367  16.397  65.827  1.00  0.00     2.030 OA 
HETATM   27  C   UNL     1     -12.643  12.475  70.331  1.00  0.00    -0.099 A  
HETATM   28  C   UNL     1     -11.752  16.481  67.117  1.00  0.00     0.901 C  
HETATM   29  C   UNL     1     -12.186  11.129  70.219  1.00  0.00    -0.352 A  
HETATM   30  C   UNL     1     -10.193  16.524  66.982  1.00  0.00    -0.288 C  
HETATM   31  C   UNL     1     -10.476  13.870  66.314  1.00  0.00    -0.287 C  
HETATM   32  C   UNL     1     -12.537  13.335  69.249  1.00  0.00     0.404 A  
HETATM   33  N   UNL     1     -12.754  14.752  69.122  1.00  0.00     0.197 N  
HETATM   34  H   UNL     1     -12.268  17.200  65.330  1.00  0.00     0.000 HD 
HETATM   35  C   UNL     1      -9.544  15.184  66.325  1.00  0.00    -0.325 C  
HETATM   36  C   UNL     1     -12.855  15.542  70.257  1.00  0.00    -0.195 C  
HETATM   37  C   UNL     1     -11.918  15.140  67.948  1.00  0.00    -0.057 C  
HETATM   38  O   UNL     1     -12.930  15.184  71.426  1.00  0.00    -0.339 OA 
HETATM   39  C   UNL     1     -11.831  13.922  67.034  1.00  0.00    -0.447 C  
HETATM   40  C   UNL     1     -12.935  13.668  65.992  1.00  0.00    -0.064 C  
HETATM   41  C   UNL     1     -11.976  12.853  68.081  1.00  0.00    -0.306 A  
HETATM   42  C   UNL     1     -11.559  11.546  67.943  1.00  0.00    -0.352 A  
HETATM   43  C   UNL     1     -12.201  13.447  64.679  1.00  0.00    -0.407 C  
HETATM   44  N   UNL     1     -10.824  13.189  65.058  1.00  0.00    -0.302 NA 
HETATM   45  C   UNL     1      -9.859  13.269  63.990  1.00  0.00     0.771 C  
HETATM   46  C   UNL     1      -9.277  14.633  63.857  1.00  0.00     7.332 C  
HETATM   47  C   UNL     1      -9.091  15.463  64.893  1.00  0.00     2.373 C  
BRANCH  29  48
HETATM   48  O   UNL     1     -12.173  10.293  71.303  1.00  0.00    -0.346 OA 
HETATM   49  C   UNL     1     -11.183   9.268  71.277  1.00  0.00    -0.355 C  
ENDBRANCH  29  48
BRANCH  35  50
HETATM   50  C   UNL     1      -8.339  14.921  67.323  1.00  0.00    -0.233 C  
HETATM   51  C   UNL     1      -8.195  13.621  68.095  1.00  0.00    -0.158 C  
ENDBRANCH  35  50
BRANCH  30  52
HETATM   52  O   UNL     1      -9.377  17.715  66.784  1.00  0.00    -0.261 OA 
BRANCH  52  53
HETATM   53  C   UNL     1      -9.658  18.974  67.149  1.00  0.00    -0.312 C  
HETATM   54  C   UNL     1      -9.981  18.986  68.629  1.00  0.00    -0.482 C  
HETATM   55  O   UNL     1      -9.503  19.952  66.435  1.00  0.00    -0.373 OA 
ENDBRANCH  52  53
ENDBRANCH  30  52
BRANCH  28  56
HETATM   56  C   UNL     1     -12.347  17.675  67.857  1.00  0.00     3.625 C  
HETATM   57  O   UNL     1     -13.271  17.631  68.656  1.00  0.00     5.714 OA 
BRANCH  56  58
HETATM   58  O   UNL     1     -11.759  18.828  67.409  1.00  0.00     0.825 OA 
HETATM   59  C   UNL     1     -12.376  19.453  66.281  1.00  0.00     4.851 C  
ENDBRANCH  56  58
ENDBRANCH  28  56
ENDBRANCH  15  25
BRANCH  15  60
HETATM   60  C   UNL     1     -11.061   8.429  70.027  1.00  0.00    -0.148 C  
HETATM   61  O   UNL     1     -11.936   7.713  70.516  1.00  0.00    -0.170 OA 
BRANCH  60  62
HETATM   62  O   UNL     1      -9.829   8.585  70.602  1.00  0.00    -0.177 OA 
HETATM   63  C   UNL     1      -9.180   9.852  70.360  1.00  0.00     0.019 C  
ENDBRANCH  60  62
ENDBRANCH  15  60
ENDBRANCH   2   3
TORSDOF 10
ENDMDL
MODEL       42
REMARK 921   NORMALIZED FREE ENERGY PREDICTED BY IDOCK:   44.27 KCAL/MOL
REMARK 922        TOTAL FREE ENERGY PREDICTED BY IDOCK:   68.47 KCAL/MOL
REMARK 923 INTER-LIGAND FREE ENERGY PREDICTED BY IDOCK:   55.54 KCAL/MOL
REMARK 924 INTRA-LIGAND FREE ENERGY PREDICTED BY IDOCK:   12.93 KCAL/MOL
REMARK 927      BINDING AFFINITY PREDICTED BY RF-SCORE:    0.00 PKD
ROOT
HETATM    1  C   UNL     1     -10.233   3.693  68.479  1.00  0.00     0.799 C  
HETATM    2  C   UNL     1     -10.227   3.955  69.985  1.00  0.00     0.488 C  
ENDROOT
BRANCH   2   3
HETATM    3  C   UNL     1      -8.839   4.285  70.602  1.00  0.00    -0.088 C  
HETATM    4  C   UNL     1      -8.486   5.802  70.542  1.00  0.00    -0.127 C  
HETATM    5  O   UNL     1      -8.875   3.898  71.987  1.00  0.00    -0.098 OA 
HETATM    6  C   UNL     1      -8.052   6.130  69.114  1.00  0.00    -0.109 C  
HETATM    7  H   UNL     1      -8.027   4.099  72.364  1.00  0.00     0.000 HD 
HETATM    8  C   UNL     1      -6.755   5.374  68.856  1.00  0.00    -0.053 C  
HETATM    9  N   UNL     1      -7.019   3.954  68.721  1.00  0.00    -0.046 NA 
HETATM   10  C   UNL     1      -7.575   3.521  67.425  1.00  0.00    -0.074 C  
HETATM   11  C   UNL     1      -7.705   3.422  69.916  1.00  0.00    -0.047 C  
HETATM   12  C   UNL     1      -7.412   4.445  66.176  1.00  0.00    -0.085 C  
HETATM   13  C   UNL     1      -8.567   5.406  66.004  1.00  0.00    -0.127 A  
HETATM   14  C   UNL     1      -8.733   6.738  66.418  1.00  0.00    -0.138 A  
HETATM   15  C   UNL     1      -7.826   7.827  67.137  1.00  0.00    -0.113 C  
HETATM   16  N   UNL     1     -10.059   7.051  66.169  1.00  0.00    -0.401 NA 
HETATM   17  H   UNL     1     -10.509   7.917  66.465  1.00  0.00     0.000 HD 
HETATM   18  C   UNL     1      -7.980   7.610  68.700  1.00  0.00    -0.122 C  
HETATM   19  C   UNL     1      -9.787   5.013  65.350  1.00  0.00    -0.003 A  
HETATM   20  C   UNL     1     -10.208   3.844  64.679  1.00  0.00    -0.216 A  
HETATM   21  C   UNL     1     -10.687   6.058  65.478  1.00  0.00     1.660 A  
HETATM   22  C   UNL     1     -11.502   3.769  64.161  1.00  0.00     0.889 A  
HETATM   23  C   UNL     1     -12.377   4.838  64.314  1.00  0.00     4.341 A  
HETATM   24  C   UNL     1     -11.999   5.997  64.976  1.00  0.00     5.953 A  
BRANCH  15  25
HETATM   25  C   UNL     1      -8.282   9.230  66.598  1.00  0.00    -0.115 A  
HETATM   26  O   UNL     1      -8.404  15.444  68.875  1.00  0.00    -0.170 OA 
HETATM   27  C   UNL     1      -9.009  10.951  64.978  1.00  0.00    -0.184 A  
HETATM   28  C   UNL     1      -9.584  15.019  68.185  1.00  0.00    -0.207 C  
HETATM   29  C   UNL     1      -8.735   9.592  65.309  1.00  0.00    -0.166 A  
HETATM   30  C   UNL     1     -10.679  14.553  69.203  1.00  0.00    -0.252 C  
HETATM   31  C   UNL     1      -9.023  12.380  69.531  1.00  0.00     1.606 C  
HETATM   32  C   UNL     1      -8.860  11.942  65.936  1.00  0.00     0.056 A  
HETATM   33  N   UNL     1      -9.213  13.337  65.939  1.00  0.00     0.092 N  
HETATM   34  H   UNL     1      -8.540  16.254  69.353  1.00  0.00     0.000 HD 
HETATM   35  C   UNL     1     -10.255  13.256  70.089  1.00  0.00     2.182 C  
HETATM   36  C   UNL     1     -10.072  13.836  64.972  1.00  0.00    -0.283 C  
HETATM   37  C   UNL     1      -9.359  13.667  67.388  1.00  0.00    -0.227 C  
HETATM   38  O   UNL     1     -10.497  13.274  63.971  1.00  0.00    -0.374 OA 
HETATM   39  C   UNL     1      -8.432  12.732  68.159  1.00  0.00    -0.177 C  
HETATM   40  C   UNL     1      -6.955  13.114  68.360  1.00  0.00    -0.104 C  
HETATM   41  C   UNL     1      -8.449  11.571  67.203  1.00  0.00    -0.158 A  
HETATM   42  C   UNL     1      -8.146  10.268  67.532  1.00  0.00    -0.110 A  
HETATM   43  C   UNL     1      -6.700  12.955  69.849  1.00  0.00     0.244 C  
HETATM   44  N   UNL     1      -7.814  12.161  70.338  1.00  0.00     2.782 NA 
HETATM   45  C   UNL     1      -7.984  12.142  71.769  1.00  0.00    13.315 C  
HETATM   46  C   UNL     1      -8.901  13.215  72.241  1.00  0.00    17.968 C  
HETATM   47  C   UNL     1      -9.935  13.676  71.522  1.00  0.00     7.740 C  
BRANCH  29  48
HETATM   48  O   UNL     1      -8.983   8.581  64.419  1.00  0.00     0.089 OA 
HETATM   49  C   UNL     1      -9.222   8.991  63.075  1.00  0.00     0.533 C  
ENDBRANCH  29  48
BRANCH  35  50
HETATM   50  C   UNL     1     -11.572  12.377  69.973  1.00  0.00    -0.216 C  
HETATM   51  C   UNL     1     -12.669  12.691  68.970  1.00  0.00     1.001 C  
ENDBRANCH  35  50
BRANCH  30  52
HETATM   52  O   UNL     1     -11.663  15.402  69.860  1.00  0.00    -0.289 OA 
BRANCH  52  53
HETATM   53  C   UNL     1     -11.467  16.249  70.882  1.00  0.00    -0.301 C  
HETATM   54  C   UNL     1     -11.624  15.484  72.179  1.00  0.00    -0.552 C  
HETATM   55  O   UNL     1     -11.058  17.393  70.762  1.00  0.00     0.680 OA 
ENDBRANCH  52  53
ENDBRANCH  30  52
BRANCH  28  56
HETATM   56  C   UNL     1     -10.032  16.147  67.260  1.00  0.00    -0.248 C  
HETATM   57  O   UNL     1     -10.965  16.094  66.471  1.00  0.00    -0.205 OA 
BRANCH  56  58
HETATM   58  O   UNL     1      -9.163  17.199  67.370  1.00  0.00    -0.229 OA 
HETATM   59  C   UNL     1      -9.196  17.917  68.605  1.00  0.00    -0.264 C  
ENDBRANCH  56  58
ENDBRANCH  28  56
ENDBRANCH  15  25
BRANCH  15  60
HETATM   60  C   UNL     1      -6.334   7.661  66.637  1.00  0.00    -0.046 C  
HETATM   61  O   UNL     1      -5.363   7.491  67.376  1.00  0.00    -0.024 OA 
BRANCH  60  62
HETATM   62  O   UNL     1      -6.235   7.639  65.273  1.00  0.00    -0.038 OA 
HETATM   63  C   UNL     1      -7.467   7.842  64.550  1.00  0.00    -0.097 C  
ENDBRANCH  60  62
ENDBRANCH  15  60
ENDBRANCH   2   3
TORSDOF 10
ENDMDL
MODEL       43
REMARK 921   NORMALIZED FREE ENERGY PREDICTED BY IDOCK:   47.58 KCAL/MOL
REMARK 922        TOTAL FREE ENERGY PREDICTED BY IDOCK:   73.73 KCAL/MOL
REMARK 923 INTER-LIGAND FREE ENERGY PREDICTED BY IDOCK:   67.64 KCAL/MOL
REMARK 924 INTRA-LIGAND FREE ENERGY PREDICTED BY IDOCK:    6.08 KCAL/MOL
REMARK 927      BINDING AFFINITY PREDICTED BY RF-SCORE:    0.00 PKD
ROOT
HETATM    1  C   UNL     1      -8.135   7.033  64.027  1.00  0.00    -0.011 C  
HETATM    2  C   UNL     1      -9.489   6.942  64.731  1.00  0.00     1.698 C  
ENDROOT
BRANCH   2   3
HETATM    3  C   UNL     1      -9.538   6.009  65.973  1.00  0.00     0.010 C  
HETATM    4  C   UNL     1     -10.169   6.689  67.226  1.00  0.00    -0.256 C  
HETATM    5  O   UNL     1     -10.354   4.874  65.634  1.00  0.00    -0.380 OA 
HETATM    6  C   UNL     1      -9.123   7.625  67.832  1.00  0.00    -0.134 C  
HETATM    7  H   UNL     1     -10.384   4.304  66.393  1.00  0.00     0.000 HD 
HETATM    8  C   UNL     1      -7.984   6.751  68.341  1.00  0.00    -0.115 C  
HETATM    9  N   UNL     1      -7.227   6.213  67.228  1.00  0.00    -0.074 NA 
HETATM   10  C   UNL     1      -6.278   7.141  66.582  1.00  0.00    -0.039 C  
HETATM   11  C   UNL     1      -8.096   5.452  66.309  1.00  0.00    -0.105 C  
HETATM   12  C   UNL     1      -5.800   8.409  67.359  1.00  0.00    -0.043 C  
HETATM   13  C   UNL     1      -6.678   9.614  67.110  1.00  0.00    -0.075 A  
HETATM   14  C   UNL     1      -7.770  10.129  67.827  1.00  0.00    -0.090 A  
HETATM   15  C   UNL     1      -8.506   9.773  69.190  1.00  0.00    -0.143 C  
HETATM   16  N   UNL     1      -8.312  11.125  67.031  1.00  0.00    -0.139 NA 
HETATM   17  H   UNL     1      -9.186  11.611  67.236  1.00  0.00     0.000 HD 
HETATM   18  C   UNL     1      -9.593   8.666  68.863  1.00  0.00    -0.159 C  
HETATM   19  C   UNL     1      -6.498  10.455  65.956  1.00  0.00    -0.119 A  
HETATM   20  C   UNL     1      -5.551  10.494  64.909  1.00  0.00    -0.135 A  
HETATM   21  C   UNL     1      -7.533  11.375  65.941  1.00  0.00     0.302 A  
HETATM   22  C   UNL     1      -5.673  11.450  63.898  1.00  0.00     1.537 A  
HETATM   23  C   UNL     1      -6.729  12.353  63.917  1.00  0.00     7.971 A  
HETATM   24  C   UNL     1      -7.682  12.335  64.925  1.00  0.00     3.754 A  
BRANCH  15  25
HETATM   25  C   UNL     1      -9.063  11.120  69.775  1.00  0.00     0.931 A  
HETATM   26  O   UNL     1     -12.215  16.441  67.418  1.00  0.00     0.875 OA 
HETATM   27  C   UNL     1      -9.783  12.774  71.465  1.00  0.00    13.404 A  
HETATM   28  C   UNL     1     -11.154  16.714  68.339  1.00  0.00    -0.305 C  
HETATM   29  C   UNL     1      -9.144  11.548  71.119  1.00  0.00     9.027 A  
HETATM   30  C   UNL     1      -9.836  17.070  67.572  1.00  0.00    -0.258 C  
HETATM   31  C   UNL     1      -9.812  14.385  66.973  1.00  0.00    -0.252 C  
HETATM   32  C   UNL     1     -10.315  13.583  70.473  1.00  0.00     2.835 A  
HETATM   33  N   UNL     1     -10.854  14.917  70.506  1.00  0.00    -0.113 N  
HETATM   34  H   UNL     1     -12.499  17.222  66.957  1.00  0.00     0.000 HD 
HETATM   35  C   UNL     1      -9.255  15.862  66.651  1.00  0.00    -0.280 C  
HETATM   36  C   UNL     1     -10.638  15.725  71.613  1.00  0.00     0.901 C  
HETATM   37  C   UNL     1     -10.679  15.411  69.108  1.00  0.00    -0.246 C  
HETATM   38  O   UNL     1     -10.148  15.418  72.691  1.00  0.00     2.568 OA 
HETATM   39  C   UNL     1     -10.726  14.193  68.191  1.00  0.00    -0.251 C  
HETATM   40  C   UNL     1     -12.083  13.666  67.690  1.00  0.00    -0.328 C  
HETATM   41  C   UNL     1     -10.200  13.170  69.159  1.00  0.00     0.206 A  
HETATM   42  C   UNL     1      -9.616  11.972  68.807  1.00  0.00     0.004 A  
HETATM   43  C   UNL     1     -11.929  13.536  66.184  1.00  0.00    -0.412 C  
HETATM   44  N   UNL     1     -10.498  13.586  65.947  1.00  0.00    -0.286 NA 
HETATM   45  C   UNL     1     -10.101  13.810  64.579  1.00  0.00    -0.022 C  
HETATM   46  C   UNL     1      -9.923  15.255  64.274  1.00  0.00     2.180 C  
HETATM   47  C   UNL     1      -9.503  16.157  65.173  1.00  0.00     0.806 C  
BRANCH  29  48
HETATM   48  O   UNL     1      -8.511  10.788  72.065  1.00  0.00     6.657 OA 
HETATM   49  C   UNL     1      -9.300   9.760  72.657  1.00  0.00     4.420 C  
ENDBRANCH  29  48
BRANCH  35  50
HETATM   50  C   UNL     1      -7.719  15.902  67.048  1.00  0.00    -0.268 C  
HETATM   51  C   UNL     1      -6.672  16.571  66.173  1.00  0.00     0.688 C  
ENDBRANCH  35  50
BRANCH  30  52
HETATM   52  O   UNL     1      -9.442  18.392  67.104  1.00  0.00    -0.273 OA 
BRANCH  52  53
HETATM   53  C   UNL     1     -10.213  19.320  66.517  1.00  0.00    -0.435 C  
HETATM   54  C   UNL     1      -9.844  20.677  67.079  1.00  0.00    -0.449 C  
HETATM   55  O   UNL     1     -10.953  19.106  65.570  1.00  0.00    -0.395 OA 
ENDBRANCH  52  53
ENDBRANCH  30  52
BRANCH  28  56
HETATM   56  C   UNL     1     -11.624  17.795  69.307  1.00  0.00     2.599 C  
HETATM   57  O   UNL     1     -11.783  18.976  69.035  1.00  0.00     3.089 OA 
BRANCH  56  58
HETATM   58  O   UNL     1     -11.742  17.263  70.563  1.00  0.00     1.368 OA 
HETATM   59  C   UNL     1     -11.942  18.197  71.627  1.00  0.00     6.862 C  
ENDBRANCH  56  58
ENDBRANCH  28  56
ENDBRANCH  15  25
BRANCH  15  60
HETATM   60  C   UNL     1      -7.427   9.284  70.240  1.00  0.00    -0.113 C  
HETATM   61  O   UNL     1      -7.252   8.110  70.569  1.00  0.00    -0.047 OA 
BRANCH  60  62
HETATM   62  O   UNL     1      -6.637  10.303  70.696  1.00  0.00    -0.257 OA 
HETATM   63  C   UNL     1      -5.275  10.305  70.216  1.00  0.00    -0.042 C  
ENDBRANCH  60  62
ENDBRANCH  15  60
ENDBRANCH   2   3
TORSDOF 10
ENDMDL
MODEL       44
REMARK 921   NORMALIZED FREE ENERGY PREDICTED BY IDOCK:   50.88 KCAL/MOL
REMARK 922        TOTAL FREE ENERGY PREDICTED BY IDOCK:   78.95 KCAL/MOL
REMARK 923 INTER-LIGAND FREE ENERGY PREDICTED BY IDOCK:   77.48 KCAL/MOL
REMARK 924 INTRA-LIGAND FREE ENERGY PREDICTED BY IDOCK:    1.47 KCAL/MOL
REMARK 927      BINDING AFFINITY PREDICTED BY RF-SCORE:    0.00 PKD
ROOT
HETATM    1  C   UNL     1     -13.212   4.842  66.492  1.00  0.00    15.462 C  
HETATM    2  C   UNL     1     -12.293   5.573  67.472  1.00  0.00     7.085 C  
ENDROOT
BRANCH   2   3
HETATM    3  C   UNL     1     -10.981   4.827  67.843  1.00  0.00     1.310 C  
HETATM    4  C   UNL     1     -10.078   5.630  68.828  1.00  0.00    -0.245 C  
HETATM    5  O   UNL     1     -11.348   3.596  68.490  1.00  0.00     5.290 OA 
HETATM    6  C   UNL     1      -9.363   6.721  68.030  1.00  0.00    -0.118 C  
HETATM    7  H   UNL     1     -10.546   3.141  68.717  1.00  0.00     0.000 HD 
HETATM    8  C   UNL     1      -8.425   6.020  67.056  1.00  0.00    -0.108 C  
HETATM    9  N   UNL     1      -9.183   5.386  65.995  1.00  0.00    -0.157 NA 
HETATM   10  C   UNL     1      -9.680   6.282  64.933  1.00  0.00     1.604 C  
HETATM   11  C   UNL     1     -10.174   4.437  66.540  1.00  0.00    -0.121 C  
HETATM   12  C   UNL     1      -9.013   7.681  64.738  1.00  0.00     0.584 C  
HETATM   13  C   UNL     1      -9.686   8.767  65.547  1.00  0.00     0.103 A  
HETATM   14  C   UNL     1      -9.392   9.295  66.815  1.00  0.00    -0.156 A  
HETATM   15  C   UNL     1      -8.247   9.082  67.898  1.00  0.00    -0.110 C  
HETATM   16  N   UNL     1     -10.455  10.121  67.139  1.00  0.00    -0.238 NA 
HETATM   17  H   UNL     1     -10.581  10.563  68.050  1.00  0.00     0.000 HD 
HETATM   18  C   UNL     1      -8.683   7.860  68.809  1.00  0.00    -0.128 C  
HETATM   19  C   UNL     1     -10.863   9.444  65.072  1.00  0.00     3.195 A  
HETATM   20  C   UNL     1     -11.599   9.405  63.867  1.00  0.00    10.439 A  
HETATM   21  C   UNL     1     -11.311  10.271  66.090  1.00  0.00     0.983 A  
HETATM   22  C   UNL     1     -12.742  10.194  63.727  1.00  0.00     8.146 A  
HETATM   23  C   UNL     1     -13.162  11.007  64.772  1.00  0.00     4.958 A  
HETATM   24  C   UNL     1     -12.468  11.061  65.973  1.00  0.00     3.844 A  
BRANCH  15  25
HETATM   25  C   UNL     1      -8.064  10.453  68.643  1.00  0.00    -0.118 A  
HETATM   26  O   UNL     1     -10.826  16.463  68.403  1.00  0.00    -0.310 OA 
HETATM   27  C   UNL     1      -7.292  12.055  70.361  1.00  0.00     2.394 A  
HETATM   28  C   UNL     1      -9.398  16.446  68.502  1.00  0.00    -0.225 C  
HETATM   29  C   UNL     1      -7.247  10.767  69.754  1.00  0.00    -0.101 A  
HETATM   30  C   UNL     1      -8.746  16.615  67.088  1.00  0.00    -0.195 C  
HETATM   31  C   UNL     1      -9.630  14.038  66.703  1.00  0.00    -0.289 C  
HETATM   32  C   UNL     1      -8.126  13.036  69.847  1.00  0.00     2.245 A  
HETATM   33  N   UNL     1      -8.256  14.439  70.138  1.00  0.00     0.914 N  
HETATM   34  H   UNL     1     -11.160  17.321  68.170  1.00  0.00     0.000 HD 
HETATM   35  C   UNL     1      -9.082  15.406  66.052  1.00  0.00    -0.284 C  
HETATM   36  C   UNL     1      -7.270  15.089  70.866  1.00  0.00     1.143 C  
HETATM   37  C   UNL     1      -8.840  15.013  68.891  1.00  0.00    -0.201 C  
HETATM   38  O   UNL     1      -6.314  14.600  71.454  1.00  0.00     0.116 OA 
HETATM   39  C   UNL     1      -9.667  13.914  68.233  1.00  0.00    -0.223 C  
HETATM   40  C   UNL     1     -11.131  13.699  68.658  1.00  0.00    -0.299 C  
HETATM   41  C   UNL     1      -8.895  12.727  68.739  1.00  0.00     0.178 A  
HETATM   42  C   UNL     1      -8.891  11.477  68.160  1.00  0.00    -0.165 A  
HETATM   43  C   UNL     1     -11.924  13.678  67.362  1.00  0.00    -0.376 C  
HETATM   44  N   UNL     1     -10.934  13.478  66.319  1.00  0.00    -0.288 NA 
HETATM   45  C   UNL     1     -11.383  13.744  64.975  1.00  0.00    -0.328 C  
HETATM   46  C   UNL     1     -11.128  15.152  64.565  1.00  0.00    -0.252 C  
HETATM   47  C   UNL     1     -10.085  15.874  65.000  1.00  0.00     0.059 C  
BRANCH  29  48
HETATM   48  O   UNL     1      -6.351   9.819  70.169  1.00  0.00    -0.057 OA 
HETATM   49  C   UNL     1      -5.615  10.141  71.346  1.00  0.00    -0.012 C  
ENDBRANCH  29  48
BRANCH  35  50
HETATM   50  C   UNL     1      -7.638  15.120  65.458  1.00  0.00     5.549 C  
HETATM   51  C   UNL     1      -6.512  14.548  66.302  1.00  0.00     4.455 C  
ENDBRANCH  35  50
BRANCH  30  52
HETATM   52  O   UNL     1      -8.443  17.875  66.423  1.00  0.00    -0.285 OA 
BRANCH  52  53
HETATM   53  C   UNL     1      -7.294  18.566  66.455  1.00  0.00    -0.247 C  
HETATM   54  C   UNL     1      -7.562  19.970  65.954  1.00  0.00    -0.316 C  
HETATM   55  O   UNL     1      -6.261  18.167  66.968  1.00  0.00    -0.159 OA 
ENDBRANCH  52  53
ENDBRANCH  30  52
BRANCH  28  56
HETATM   56  C   UNL     1      -8.974  17.506  69.514  1.00  0.00     0.636 C  
HETATM   57  O   UNL     1      -7.822  17.819  69.780  1.00  0.00     0.585 OA 
BRANCH  56  58
HETATM   58  O   UNL     1     -10.080  17.984  70.164  1.00  0.00     0.701 OA 
HETATM   59  C   UNL     1     -10.993  18.751  69.374  1.00  0.00     1.838 C  
ENDBRANCH  56  58
ENDBRANCH  28  56
ENDBRANCH  15  25
BRANCH  15  60
HETATM   60  C   UNL     1      -6.875   8.834  67.150  1.00  0.00    -0.067 C  
HETATM   61  O   UNL     1      -6.193   7.814  67.259  1.00  0.00    -0.050 OA 
BRANCH  60  62
HETATM   62  O   UNL     1      -6.555   9.847  66.289  1.00  0.00    -0.073 OA 
HETATM   63  C   UNL     1      -5.157   9.966  65.950  1.00  0.00    -0.036 C  
ENDBRANCH  60  62
ENDBRANCH  15  60
ENDBRANCH   2   3
TORSDOF 10
ENDMDL
MODEL       45
REMARK 921   NORMALIZED FREE ENERGY PREDICTED BY IDOCK:   51.07 KCAL/MOL
REMARK 922        TOTAL FREE ENERGY PREDICTED BY IDOCK:   79.25 KCAL/MOL
REMARK 923 INTER-LIGAND FREE ENERGY PREDICTED BY IDOCK:   78.95 KCAL/MOL
REMARK 924 INTRA-LIGAND FREE ENERGY PREDICTED BY IDOCK:    0.31 KCAL/MOL
REMARK 927      BINDING AFFINITY PREDICTED BY RF-SCORE:    0.00 PKD
ROOT
HETATM    1  C   UNL     1      -8.014  18.776  63.520  1.00  0.00    11.761 C  
HETATM    2  C   UNL     1      -7.962  19.980  64.460  1.00  0.00     2.104 C  
ENDROOT
BRANCH   2   3
HETATM    3  C   UNL     1      -6.810  19.968  65.503  1.00  0.00    -0.303 C  
HETATM    4  C   UNL     1      -6.004  18.633  65.510  1.00  0.00    -0.268 C  
HETATM    5  O   UNL     1      -5.899  21.026  65.158  1.00  0.00    -0.233 OA 
HETATM    6  C   UNL     1      -6.834  17.585  66.250  1.00  0.00    -0.323 C  
HETATM    7  H   UNL     1      -5.195  21.019  65.795  1.00  0.00     0.000 HD 
HETATM    8  C   UNL     1      -6.934  18.037  67.701  1.00  0.00    -0.200 C  
HETATM    9  N   UNL     1      -7.817  19.183  67.811  1.00  0.00    -0.259 NA 
HETATM   10  C   UNL     1      -9.263  18.891  67.762  1.00  0.00    -0.293 C  
HETATM   11  C   UNL     1      -7.363  20.292  66.948  1.00  0.00    -0.282 C  
HETATM   12  C   UNL     1      -9.762  17.442  68.064  1.00  0.00    -0.281 C  
HETATM   13  C   UNL     1      -9.855  16.584  66.824  1.00  0.00    -0.274 A  
HETATM   14  C   UNL     1      -8.947  15.677  66.253  1.00  0.00    -0.342 A  
HETATM   15  C   UNL     1      -7.523  15.093  66.649  1.00  0.00     0.558 C  
HETATM   16  N   UNL     1      -9.475  15.336  65.019  1.00  0.00    -0.124 NA 
HETATM   17  H   UNL     1      -8.986  14.775  64.321  1.00  0.00     0.000 HD 
HETATM   18  C   UNL     1      -6.431  16.107  66.105  1.00  0.00     1.711 C  
HETATM   19  C   UNL     1     -11.007  16.624  65.962  1.00  0.00     0.085 A  
HETATM   20  C   UNL     1     -12.256  17.282  66.023  1.00  0.00     4.407 A  
HETATM   21  C   UNL     1     -10.730  15.842  64.853  1.00  0.00    -0.361 A  
HETATM   22  C   UNL     1     -13.174  17.126  64.982  1.00  0.00     8.999 A  
HETATM   23  C   UNL     1     -12.856  16.335  63.885  1.00  0.00     2.620 A  
HETATM   24  C   UNL     1     -11.635  15.684  63.789  1.00  0.00     0.628 A  
BRANCH  15  25
HETATM   25  C   UNL     1      -7.447  13.637  66.065  1.00  0.00     3.671 A  
HETATM   26  O   UNL     1     -10.052   7.731  67.529  1.00  0.00    -0.175 OA 
HETATM   27  C   UNL     1      -6.951  11.821  64.462  1.00  0.00     3.365 A  
HETATM   28  C   UNL     1      -8.661   7.723  67.193  1.00  0.00    -0.128 C  
HETATM   29  C   UNL     1      -6.823  13.176  64.884  1.00  0.00    11.592 A  
HETATM   30  C   UNL     1      -7.781   7.732  68.488  1.00  0.00    -0.118 C  
HETATM   31  C   UNL     1      -8.622  10.344  68.682  1.00  0.00    -0.133 C  
HETATM   32  C   UNL     1      -7.675  10.921  65.230  1.00  0.00     0.161 A  
HETATM   33  N   UNL     1      -7.833   9.494  65.145  1.00  0.00    -0.109 N  
HETATM   34  H   UNL     1     -10.331   6.913  67.922  1.00  0.00     0.000 HD 
HETATM   35  C   UNL     1      -7.956   9.067  69.402  1.00  0.00    -0.100 C  
HETATM   36  C   UNL     1      -6.973   8.747  64.353  1.00  0.00    -0.085 C  
HETATM   37  C   UNL     1      -8.194   9.089  66.536  1.00  0.00    -0.114 C  
HETATM   38  O   UNL     1      -6.135   9.149  63.557  1.00  0.00    -0.087 OA 
HETATM   39  C   UNL     1      -8.915  10.271  67.176  1.00  0.00    -0.145 C  
HETATM   40  C   UNL     1     -10.431  10.442  66.977  1.00  0.00    -0.309 C  
HETATM   41  C   UNL     1      -8.253  11.376  66.401  1.00  0.00    -0.124 A  
HETATM   42  C   UNL     1      -8.169  12.691  66.807  1.00  0.00     0.029 A  
HETATM   43  C   UNL     1     -10.999  10.636  68.373  1.00  0.00    -0.251 C  
HETATM   44  N   UNL     1      -9.852  10.960  69.202  1.00  0.00    -0.184 NA 
HETATM   45  C   UNL     1     -10.068  10.872  70.625  1.00  0.00     1.939 C  
HETATM   46  C   UNL     1      -9.730   9.527  71.164  1.00  0.00    -0.134 C  
HETATM   47  C   UNL     1      -8.764   8.746  70.657  1.00  0.00    -0.208 C  
BRANCH  29  48
HETATM   48  O   UNL     1      -6.021  14.056  64.208  1.00  0.00    18.264 OA 
HETATM   49  C   UNL     1      -5.786  13.745  62.837  1.00  0.00    14.276 C  
ENDBRANCH  29  48
BRANCH  35  50
HETATM   50  C   UNL     1      -6.437   9.414  69.706  1.00  0.00    -0.041 C  
HETATM   51  C   UNL     1      -5.458   9.797  68.610  1.00  0.00    -0.036 C  
ENDBRANCH  35  50
BRANCH  30  52
HETATM   52  O   UNL     1      -7.355   6.565  69.249  1.00  0.00    -0.087 OA 
BRANCH  52  53
HETATM   53  C   UNL     1      -8.108   5.537  69.669  1.00  0.00    -0.101 C  
HETATM   54  C   UNL     1      -7.203   4.509  70.315  1.00  0.00    -0.049 C  
HETATM   55  O   UNL     1      -9.329   5.533  69.676  1.00  0.00    -0.128 OA 
ENDBRANCH  52  53
ENDBRANCH  30  52
BRANCH  28  56
HETATM   56  C   UNL     1      -8.397   6.538  66.268  1.00  0.00    -0.124 C  
HETATM   57  O   UNL     1      -9.104   5.546  66.160  1.00  0.00    -0.142 OA 
BRANCH  56  58
HETATM   58  O   UNL     1      -7.187   6.704  65.648  1.00  0.00    -0.066 OA 
HETATM   59  C   UNL     1      -6.304   5.580  65.681  1.00  0.00    -0.039 C  
ENDBRANCH  56  58
ENDBRANCH  28  56
ENDBRANCH  15  25
BRANCH  15  60
HETATM   60  C   UNL     1      -7.464  14.910  68.219  1.00  0.00    -0.113 C  
HETATM   61  O   UNL     1      -8.355  15.254  68.998  1.00  0.00    -0.182 OA 
BRANCH  60  62
HETATM   62  O   UNL     1      -6.343  14.243  68.630  1.00  0.00    -0.080 OA 
HETATM   63  C   UNL     1      -5.165  15.054  68.824  1.00  0.00    -0.089 C  
ENDBRANCH  60  62
ENDBRANCH  15  60
ENDBRANCH   2   3
TORSDOF 10
ENDMDL
MODEL       46
REMARK 921   NORMALIZED FREE ENERGY PREDICTED BY IDOCK:   53.09 KCAL/MOL
REMARK 922        TOTAL FREE ENERGY PREDICTED BY IDOCK:   82.46 KCAL/MOL
REMARK 923 INTER-LIGAND FREE ENERGY PREDICTED BY IDOCK:   70.09 KCAL/MOL
REMARK 924 INTRA-LIGAND FREE ENERGY PREDICTED BY IDOCK:   12.37 KCAL/MOL
REMARK 927      BINDING AFFINITY PREDICTED BY RF-SCORE:    0.00 PKD
ROOT
HETATM    1  C   UNL     1     -10.941   2.816  67.026  1.00  0.00     6.019 C  
HETATM    2  C   UNL     1     -12.026   2.918  68.098  1.00  0.00    17.463 C  
ENDROOT
BRANCH   2   3
HETATM    3  C   UNL     1     -11.572   3.520  69.457  1.00  0.00    10.394 C  
HETATM    4  C   UNL     1     -11.423   5.071  69.421  1.00  0.00     3.053 C  
HETATM    5  O   UNL     1     -12.578   3.200  70.433  1.00  0.00    15.643 OA 
HETATM    6  C   UNL     1     -10.111   5.403  68.709  1.00  0.00    -0.255 C  
HETATM    7  H   UNL     1     -12.300   3.567  71.264  1.00  0.00     0.000 HD 
HETATM    8  C   UNL     1      -8.981   4.880  69.587  1.00  0.00    -0.099 C  
HETATM    9  N   UNL     1      -8.936   3.432  69.539  1.00  0.00    -0.100 NA 
HETATM   10  C   UNL     1      -8.322   2.844  68.332  1.00  0.00    -0.066 C  
HETATM   11  C   UNL     1     -10.228   2.843  69.944  1.00  0.00     1.252 C  
HETATM   12  C   UNL     1      -7.378   3.722  67.450  1.00  0.00    -0.067 C  
HETATM   13  C   UNL     1      -8.115   4.451  66.350  1.00  0.00    -0.102 A  
HETATM   14  C   UNL     1      -8.647   5.750  66.292  1.00  0.00    -0.130 A  
HETATM   15  C   UNL     1      -8.657   7.017  67.252  1.00  0.00    -0.121 C  
HETATM   16  N   UNL     1      -9.386   5.808  65.123  1.00  0.00    -0.344 NA 
HETATM   17  H   UNL     1      -9.982   6.593  64.859  1.00  0.00     0.000 HD 
HETATM   18  C   UNL     1      -9.889   6.851  68.237  1.00  0.00    -0.141 C  
HETATM   19  C   UNL     1      -8.424   3.815  65.096  1.00  0.00    -0.108 A  
HETATM   20  C   UNL     1      -8.114   2.558  64.530  1.00  0.00    -0.082 A  
HETATM   21  C   UNL     1      -9.216   4.686  64.367  1.00  0.00    -0.089 A  
HETATM   22  C   UNL     1      -8.600   2.228  63.264  1.00  0.00    -0.085 A  
HETATM   23  C   UNL     1      -9.396   3.129  62.566  1.00  0.00    -0.090 A  
HETATM   24  C   UNL     1      -9.728   4.367  63.097  1.00  0.00    -0.012 A  
BRANCH  15  25
HETATM   25  C   UNL     1      -8.693   8.288  66.330  1.00  0.00    -0.162 A  
HETATM   26  O   UNL     1      -8.531  14.850  67.184  1.00  0.00    -0.193 OA 
HETATM   27  C   UNL     1      -8.592   9.636  64.259  1.00  0.00    -0.207 A  
HETATM   28  C   UNL     1      -9.488  14.378  66.230  1.00  0.00    -0.271 C  
HETATM   29  C   UNL     1      -8.656   8.374  64.920  1.00  0.00    -0.080 A  
HETATM   30  C   UNL     1     -10.906  14.259  66.883  1.00  0.00    -0.298 C  
HETATM   31  C   UNL     1      -9.803  12.090  68.169  1.00  0.00    -0.201 C  
HETATM   32  C   UNL     1      -8.595  10.807  65.000  1.00  0.00    -0.110 A  
HETATM   33  N   UNL     1      -8.705  12.189  64.614  1.00  0.00     1.086 N  
HETATM   34  H   UNL     1      -8.678  15.757  67.421  1.00  0.00     0.000 HD 
HETATM   35  C   UNL     1     -10.992  13.175  68.094  1.00  0.00    -0.275 C  
HETATM   36  C   UNL     1      -9.127  12.520  63.335  1.00  0.00     1.822 C  
HETATM   37  C   UNL     1      -9.242  12.862  65.834  1.00  0.00     0.149 C  
HETATM   38  O   UNL     1      -9.301  11.777  62.378  1.00  0.00    -0.082 OA 
HETATM   39  C   UNL     1      -8.764  12.058  67.039  1.00  0.00    -0.188 C  
HETATM   40  C   UNL     1      -7.383  12.348  67.653  1.00  0.00    -0.132 C  
HETATM   41  C   UNL     1      -8.666  10.711  66.378  1.00  0.00    -0.155 A  
HETATM   42  C   UNL     1      -8.692   9.500  67.036  1.00  0.00    -0.135 A  
HETATM   43  C   UNL     1      -7.636  12.522  69.141  1.00  0.00     0.243 C  
HETATM   44  N   UNL     1      -8.958  11.964  69.365  1.00  0.00     0.736 NA 
HETATM   45  C   UNL     1      -9.568  12.297  70.628  1.00  0.00     6.743 C  
HETATM   46  C   UNL     1     -10.404  13.526  70.543  1.00  0.00     2.784 C  
HETATM   47  C   UNL     1     -11.074  13.892  69.440  1.00  0.00    -0.226 C  
BRANCH  29  48
HETATM   48  O   UNL     1      -8.771   7.208  64.212  1.00  0.00     0.315 OA 
HETATM   49  C   UNL     1      -8.745   7.345  62.793  1.00  0.00     0.486 C  
ENDBRANCH  29  48
BRANCH  35  50
HETATM   50  C   UNL     1     -12.328  12.411  67.709  1.00  0.00     0.514 C  
HETATM   51  C   UNL     1     -12.968  12.539  66.337  1.00  0.00     2.113 C  
ENDBRANCH  35  50
BRANCH  30  52
HETATM   52  O   UNL     1     -11.898  15.321  66.990  1.00  0.00    -0.133 OA 
BRANCH  52  53
HETATM   53  C   UNL     1     -12.018  16.240  67.960  1.00  0.00     0.531 C  
HETATM   54  C   UNL     1     -12.874  15.661  69.068  1.00  0.00     0.928 C  
HETATM   55  O   UNL     1     -11.392  17.287  68.002  1.00  0.00    -0.067 OA 
ENDBRANCH  52  53
ENDBRANCH  30  52
BRANCH  28  56
HETATM   56  C   UNL     1      -9.438  15.291  65.008  1.00  0.00     0.665 C  
HETATM   57  O   UNL     1     -10.186  15.231  64.043  1.00  0.00     0.914 OA 
BRANCH  56  58
HETATM   58  O   UNL     1      -8.357  16.125  65.106  1.00  0.00     1.484 OA 
HETATM   59  C   UNL     1      -8.420  17.119  66.132  1.00  0.00    -0.203 C  
ENDBRANCH  56  58
ENDBRANCH  28  56
ENDBRANCH  15  25
BRANCH  15  60
HETATM   60  C   UNL     1      -7.270   7.097  68.009  1.00  0.00    -0.091 C  
HETATM   61  O   UNL     1      -7.144   7.201  69.230  1.00  0.00    -0.074 OA 
BRANCH  60  62
HETATM   62  O   UNL     1      -6.202   6.953  67.167  1.00  0.00    -0.036 OA 
HETATM   63  C   UNL     1      -6.094   5.677  66.501  1.00  0.00    -0.030 C  
ENDBRANCH  60  62
ENDBRANCH  15  60
ENDBRANCH   2   3
TORSDOF 10
ENDMDL
MODEL       47
REMARK 921   NORMALIZED FREE ENERGY PREDICTED BY IDOCK:   55.77 KCAL/MOL
REMARK 922        TOTAL FREE ENERGY PREDICTED BY IDOCK:   86.70 KCAL/MOL
REMARK 923 INTER-LIGAND FREE ENERGY PREDICTED BY IDOCK:   65.77 KCAL/MOL
REMARK 924 INTRA-LIGAND FREE ENERGY PREDICTED BY IDOCK:   20.93 KCAL/MOL
REMARK 927      BINDING AFFINITY PREDICTED BY RF-SCORE:    0.00 PKD
ROOT
HETATM    1  C   UNL     1      -8.510  20.548  66.480  1.00  0.00    -0.092 C  
HETATM    2  C   UNL     1      -7.290  20.054  67.258  1.00  0.00    -0.292 C  
ENDROOT
BRANCH   2   3
HETATM    3  C   UNL     1      -7.288  20.380  68.778  1.00  0.00     0.108 C  
HETATM    4  C   UNL     1      -7.273  19.108  69.678  1.00  0.00    -0.018 C  
HETATM    5  O   UNL     1      -6.093  21.129  69.060  1.00  0.00    -0.170 OA 
HETATM    6  C   UNL     1      -8.686  18.524  69.694  1.00  0.00     0.817 C  
HETATM    7  H   UNL     1      -6.092  21.329  69.989  1.00  0.00     0.000 HD 
HETATM    8  C   UNL     1      -9.581  19.539  70.393  1.00  0.00     1.182 C  
HETATM    9  N   UNL     1      -9.794  20.693  69.542  1.00  0.00     0.656 NA 
HETATM   10  C   UNL     1     -10.774  20.521  68.452  1.00  0.00     0.419 C  
HETATM   11  C   UNL     1      -8.511  21.311  69.150  1.00  0.00     3.399 C  
HETATM   12  C   UNL     1     -11.824  19.368  68.543  1.00  0.00     3.378 C  
HETATM   13  C   UNL     1     -11.343  18.087  67.902  1.00  0.00     0.574 A  
HETATM   14  C   UNL     1     -10.711  16.957  68.448  1.00  0.00    -0.368 A  
HETATM   15  C   UNL     1     -10.301  16.478  69.908  1.00  0.00    -0.083 C  
HETATM   16  N   UNL     1     -10.319  16.182  67.371  1.00  0.00    -0.288 NA 
HETATM   17  H   UNL     1      -9.736  15.347  67.446  1.00  0.00     0.000 HD 
HETATM   18  C   UNL     1      -8.872  17.090  70.221  1.00  0.00     2.710 C  
HETATM   19  C   UNL     1     -11.459  17.859  66.486  1.00  0.00     1.471 A  
HETATM   20  C   UNL     1     -12.046  18.578  65.421  1.00  0.00     5.677 A  
HETATM   21  C   UNL     1     -10.808  16.671  66.197  1.00  0.00    -0.024 A  
HETATM   22  C   UNL     1     -11.964  18.081  64.120  1.00  0.00     7.030 A  
HETATM   23  C   UNL     1     -11.298  16.888  63.870  1.00  0.00     2.104 A  
HETATM   24  C   UNL     1     -10.702  16.161  64.891  1.00  0.00    -0.297 A  
BRANCH  15  25
HETATM   25  C   UNL     1     -10.383  14.910  69.914  1.00  0.00    -0.060 A  
HETATM   26  O   UNL     1      -7.238   9.921  66.910  1.00  0.00    -0.089 OA 
HETATM   27  C   UNL     1     -11.021  12.639  70.657  1.00  0.00     2.172 A  
HETATM   28  C   UNL     1      -8.662   9.796  66.980  1.00  0.00    -0.135 C  
HETATM   29  C   UNL     1     -11.160  14.056  70.730  1.00  0.00     0.759 A  
HETATM   30  C   UNL     1      -9.323  10.273  65.644  1.00  0.00    -0.192 C  
HETATM   31  C   UNL     1      -8.616  12.778  66.537  1.00  0.00     0.090 C  
HETATM   32  C   UNL     1     -10.133  12.075  69.755  1.00  0.00     1.318 A  
HETATM   33  N   UNL     1      -9.907  10.712  69.351  1.00  0.00    -0.184 N  
HETATM   34  H   UNL     1      -6.852   9.299  66.305  1.00  0.00     0.000 HD 
HETATM   35  C   UNL     1      -9.084  11.848  65.308  1.00  0.00     0.188 C  
HETATM   36  C   UNL     1     -10.837   9.733  69.668  1.00  0.00    -0.250 C  
HETATM   37  C   UNL     1      -9.306  10.835  67.991  1.00  0.00    -0.150 C  
HETATM   38  O   UNL     1     -11.813   9.823  70.401  1.00  0.00    -0.254 OA 
HETATM   39  C   UNL     1      -8.563  12.167  67.944  1.00  0.00    -0.167 C  
HETATM   40  C   UNL     1      -7.110  12.249  68.446  1.00  0.00    -0.094 C  
HETATM   41  C   UNL     1      -9.403  12.919  68.938  1.00  0.00     0.276 A  
HETATM   42  C   UNL     1      -9.499  14.292  69.018  1.00  0.00     0.009 A  
HETATM   43  C   UNL     1      -6.341  12.933  67.328  1.00  0.00    -0.008 C  
HETATM   44  N   UNL     1      -7.358  13.536  66.486  1.00  0.00     1.033 NA 
HETATM   45  C   UNL     1      -6.913  13.967  65.184  1.00  0.00    12.832 C  
HETATM   46  C   UNL     1      -7.082  12.907  64.153  1.00  0.00    12.250 C  
HETATM   47  C   UNL     1      -8.069  11.999  64.177  1.00  0.00     2.655 C  
BRANCH  29  48
HETATM   48  O   UNL     1     -12.110  14.635  71.528  1.00  0.00    -0.332 OA 
HETATM   49  C   UNL     1     -11.630  15.617  72.442  1.00  0.00    -0.425 C  
ENDBRANCH  29  48
BRANCH  35  50
HETATM   50  C   UNL     1     -10.552  12.286  64.894  1.00  0.00    -0.329 C  
HETATM   51  C   UNL     1     -11.771  11.918  65.723  1.00  0.00    -0.210 C  
ENDBRANCH  35  50
BRANCH  30  52
HETATM   52  O   UNL     1      -9.553   9.460  64.457  1.00  0.00    -0.051 OA 
BRANCH  52  53
HETATM   53  C   UNL     1      -8.832   8.416  64.023  1.00  0.00     0.416 C  
HETATM   54  C   UNL     1      -8.111   8.822  62.755  1.00  0.00    -0.176 C  
HETATM   55  O   UNL     1      -8.662   7.384  64.653  1.00  0.00     0.164 OA 
ENDBRANCH  52  53
ENDBRANCH  30  52
BRANCH  28  56
HETATM   56  C   UNL     1      -8.999   8.359  67.364  1.00  0.00    -0.134 C  
HETATM   57  O   UNL     1      -8.217   7.542  67.829  1.00  0.00    -0.117 OA 
BRANCH  56  58
HETATM   58  O   UNL     1     -10.293   8.083  67.010  1.00  0.00    -0.291 OA 
HETATM   59  C   UNL     1     -10.731   8.621  65.759  1.00  0.00     2.205 C  
ENDBRANCH  56  58
ENDBRANCH  28  56
ENDBRANCH  15  25
BRANCH  15  60
HETATM   60  C   UNL     1     -11.411  16.952  70.932  1.00  0.00     0.693 C  
HETATM   61  O   UNL     1     -11.375  18.009  71.564  1.00  0.00     2.096 OA 
BRANCH  60  62
HETATM   62  O   UNL     1     -12.477  16.096  70.986  1.00  0.00    -0.289 OA 
HETATM   63  C   UNL     1     -13.610  16.552  71.755  1.00  0.00     2.656 C  
ENDBRANCH  60  62
ENDBRANCH  15  60
ENDBRANCH   2   3
TORSDOF 10
ENDMDL
MODEL       48
REMARK 921   NORMALIZED FREE ENERGY PREDICTED BY IDOCK:   67.76 KCAL/MOL
REMARK 922        TOTAL FREE ENERGY PREDICTED BY IDOCK:  105.70 KCAL/MOL
REMARK 923 INTER-LIGAND FREE ENERGY PREDICTED BY IDOCK:   95.74 KCAL/MOL
REMARK 924 INTRA-LIGAND FREE ENERGY PREDICTED BY IDOCK:    9.97 KCAL/MOL
REMARK 927      BINDING AFFINITY PREDICTED BY RF-SCORE:    0.00 PKD
ROOT
HETATM    1  C   UNL     1     -10.088  19.838  63.338  1.00  0.00    13.497 C  
HETATM    2  C   UNL     1      -9.169  19.558  64.527  1.00  0.00     4.842 C  
ENDROOT
BRANCH   2   3
HETATM    3  C   UNL     1      -7.751  19.029  64.168  1.00  0.00     5.239 C  
HETATM    4  C   UNL     1      -7.742  17.523  63.766  1.00  0.00    13.273 C  
HETATM    5  O   UNL     1      -7.277  19.786  63.041  1.00  0.00     2.129 OA 
HETATM    6  C   UNL     1      -7.849  16.692  65.045  1.00  0.00     4.459 C  
HETATM    7  H   UNL     1      -6.411  19.463  62.822  1.00  0.00     0.000 HD 
HETATM    8  C   UNL     1      -6.575  16.935  65.843  1.00  0.00     0.664 C  
HETATM    9  N   UNL     1      -6.581  18.271  66.408  1.00  0.00    -0.195 NA 
HETATM   10  C   UNL     1      -7.416  18.460  67.610  1.00  0.00    -0.224 C  
HETATM   11  C   UNL     1      -6.741  19.294  65.356  1.00  0.00    -0.258 C  
HETATM   12  C   UNL     1      -7.838  17.214  68.452  1.00  0.00    -0.244 C  
HETATM   13  C   UNL     1      -9.154  16.621  68.003  1.00  0.00    -0.218 A  
HETATM   14  C   UNL     1      -9.443  15.569  67.119  1.00  0.00    -0.215 A  
HETATM   15  C   UNL     1      -8.591  14.515  66.289  1.00  0.00     0.326 C  
HETATM   16  N   UNL     1     -10.815  15.596  66.930  1.00  0.00    -0.308 NA 
HETATM   17  H   UNL     1     -11.312  15.019  66.252  1.00  0.00     0.000 HD 
HETATM   18  C   UNL     1      -8.204  15.201  64.913  1.00  0.00     6.732 C  
HETATM   19  C   UNL     1     -10.414  17.149  68.456  1.00  0.00    -0.377 A  
HETATM   20  C   UNL     1     -10.784  18.149  69.381  1.00  0.00     0.768 A  
HETATM   21  C   UNL     1     -11.418  16.491  67.764  1.00  0.00     0.132 A  
HETATM   22  C   UNL     1     -12.133  18.445  69.582  1.00  0.00     8.467 A  
HETATM   23  C   UNL     1     -13.110  17.765  68.865  1.00  0.00     9.561 A  
HETATM   24  C   UNL     1     -12.781  16.784  67.940  1.00  0.00     3.395 A  
BRANCH  15  25
HETATM   25  C   UNL     1      -9.460  13.212  66.176  1.00  0.00    -0.156 A  
HETATM   26  O   UNL     1      -9.498   7.204  68.954  1.00  0.00    -0.143 OA 
HETATM   27  C   UNL     1     -11.363  11.758  65.559  1.00  0.00    -0.283 A  
HETATM   28  C   UNL     1      -9.711   7.228  67.539  1.00  0.00    -0.145 C  
HETATM   29  C   UNL     1     -10.656  12.991  65.455  1.00  0.00    -0.282 A  
HETATM   30  C   UNL     1      -8.374   6.941  66.776  1.00  0.00    -0.116 C  
HETATM   31  C   UNL     1      -7.704   9.478  67.606  1.00  0.00    -0.095 C  
HETATM   32  C   UNL     1     -10.866  10.738  66.355  1.00  0.00    -0.104 A  
HETATM   33  N   UNL     1     -11.262   9.365  66.518  1.00  0.00     0.738 N  
HETATM   34  H   UNL     1      -9.310   6.330  69.274  1.00  0.00     0.000 HD 
HETATM   35  C   UNL     1      -7.217   8.060  67.017  1.00  0.00    -0.087 C  
HETATM   36  C   UNL     1     -12.119   8.777  65.600  1.00  0.00    11.160 C  
HETATM   37  C   UNL     1     -10.023   8.688  67.004  1.00  0.00    -0.249 C  
HETATM   38  O   UNL     1     -12.740   9.313  64.691  1.00  0.00    13.275 OA 
HETATM   39  C   UNL     1      -9.210   9.729  67.766  1.00  0.00    -0.141 C  
HETATM   40  C   UNL     1      -9.496   9.980  69.258  1.00  0.00    -0.227 C  
HETATM   41  C   UNL     1      -9.678  10.953  67.029  1.00  0.00    -0.203 A  
HETATM   42  C   UNL     1      -8.998  12.151  66.969  1.00  0.00    -0.201 A  
HETATM   43  C   UNL     1      -8.142   9.893  69.944  1.00  0.00    -0.188 C  
HETATM   44  N   UNL     1      -7.171  10.004  68.871  1.00  0.00    -0.074 NA 
HETATM   45  C   UNL     1      -5.821   9.627  69.211  1.00  0.00    -0.034 C  
HETATM   46  C   UNL     1      -5.552   8.190  68.934  1.00  0.00    -0.031 C  
HETATM   47  C   UNL     1      -6.129   7.506  67.935  1.00  0.00    -0.043 C  
BRANCH  29  48
HETATM   48  O   UNL     1     -11.062  13.970  64.588  1.00  0.00    -0.370 OA 
HETATM   49  C   UNL     1     -11.210  15.270  65.154  1.00  0.00    -0.370 C  
ENDBRANCH  29  48
BRANCH  35  50
HETATM   50  C   UNL     1      -6.720   8.294  65.528  1.00  0.00    -0.055 C  
HETATM   51  C   UNL     1      -7.398   9.281  64.593  1.00  0.00    -0.101 C  
ENDBRANCH  35  50
BRANCH  30  52
HETATM   52  O   UNL     1      -7.843   5.629  66.429  1.00  0.00    -0.098 OA 
BRANCH  52  53
HETATM   53  C   UNL     1      -8.465   4.444  66.508  1.00  0.00    -0.112 C  
HETATM   54  C   UNL     1      -8.673   4.106  67.969  1.00  0.00    -0.116 C  
HETATM   55  O   UNL     1      -8.931   3.843  65.553  1.00  0.00    -0.123 OA 
ENDBRANCH  52  53
ENDBRANCH  30  52
BRANCH  28  56
HETATM   56  C   UNL     1     -10.839   6.256  67.207  1.00  0.00    -0.375 C  
HETATM   57  O   UNL     1     -11.349   5.463  67.984  1.00  0.00     0.666 OA 
BRANCH  56  58
HETATM   58  O   UNL     1     -11.126   6.331  65.870  1.00  0.00     0.846 OA 
HETATM   59  C   UNL     1     -11.454   5.097  65.226  1.00  0.00     1.237 C  
ENDBRANCH  56  58
ENDBRANCH  28  56
ENDBRANCH  15  25
BRANCH  15  60
HETATM   60  C   UNL     1      -7.327  14.093  67.143  1.00  0.00     0.167 C  
HETATM   61  O   UNL     1      -6.261  13.699  66.667  1.00  0.00     0.961 OA 
BRANCH  60  62
HETATM   62  O   UNL     1      -7.508  14.291  68.484  1.00  0.00    -0.107 OA 
HETATM   63  C   UNL     1      -6.743  15.366  69.070  1.00  0.00    -0.128 C  
ENDBRANCH  60  62
ENDBRANCH  15  60
ENDBRANCH   2   3
TORSDOF 10
ENDMDL
MODEL       49
REMARK 921   NORMALIZED FREE ENERGY PREDICTED BY IDOCK:   73.45 KCAL/MOL
REMARK 922        TOTAL FREE ENERGY PREDICTED BY IDOCK:  114.71 KCAL/MOL
REMARK 923 INTER-LIGAND FREE ENERGY PREDICTED BY IDOCK:  102.08 KCAL/MOL
REMARK 924 INTRA-LIGAND FREE ENERGY PREDICTED BY IDOCK:   12.63 KCAL/MOL
REMARK 927      BINDING AFFINITY PREDICTED BY RF-SCORE:    0.00 PKD
ROOT
HETATM    1  C   UNL     1     -10.739  18.077  66.564  1.00  0.00    -0.144 C  
HETATM    2  C   UNL     1      -9.606  18.731  65.773  1.00  0.00     0.283 C  
ENDROOT
BRANCH   2   3
HETATM    3  C   UNL     1      -8.748  17.766  64.908  1.00  0.00     4.148 C  
HETATM    4  C   UNL     1      -9.005  16.263  65.230  1.00  0.00     1.290 C  
HETATM    5  O   UNL     1      -9.101  17.985  63.531  1.00  0.00    12.943 OA 
HETATM    6  C   UNL     1      -8.274  15.926  66.530  1.00  0.00    -0.307 C  
HETATM    7  H   UNL     1      -8.576  17.395  63.003  1.00  0.00     0.000 HD 
HETATM    8  C   UNL     1      -6.783  16.060  66.250  1.00  0.00     1.344 C  
HETATM    9  N   UNL     1      -6.420  17.457  66.110  1.00  0.00    -0.225 NA 
HETATM   10  C   UNL     1      -6.293  18.220  67.367  1.00  0.00    -0.177 C  
HETATM   11  C   UNL     1      -7.211  18.110  65.048  1.00  0.00     1.460 C  
HETATM   12  C   UNL     1      -6.084  17.451  68.711  1.00  0.00    -0.174 C  
HETATM   13  C   UNL     1      -7.386  17.117  69.402  1.00  0.00     0.009 A  
HETATM   14  C   UNL     1      -8.179  15.958  69.374  1.00  0.00    -0.174 A  
HETATM   15  C   UNL     1      -8.059  14.514  68.720  1.00  0.00    -0.146 C  
HETATM   16  N   UNL     1      -9.354  16.284  70.030  1.00  0.00     0.508 NA 
HETATM   17  H   UNL     1     -10.173  15.677  70.077  1.00  0.00     0.000 HD 
HETATM   18  C   UNL     1      -8.639  14.615  67.248  1.00  0.00    -0.231 C  
HETATM   19  C   UNL     1      -8.063  18.069  70.242  1.00  0.00     2.856 A  
HETATM   20  C   UNL     1      -7.751  19.367  70.704  1.00  0.00     1.689 A  
HETATM   21  C   UNL     1      -9.280  17.517  70.607  1.00  0.00     4.290 A  
HETATM   22  C   UNL     1      -8.659  20.053  71.512  1.00  0.00     2.461 A  
HETATM   23  C   UNL     1      -9.871  19.467  71.852  1.00  0.00     3.646 A  
HETATM   24  C   UNL     1     -10.214  18.198  71.407  1.00  0.00     3.918 A  
BRANCH  15  25
HETATM   25  C   UNL     1      -8.806  13.515  69.676  1.00  0.00     1.582 A  
HETATM   26  O   UNL     1      -8.939   6.967  70.632  1.00  0.00    -0.152 OA 
HETATM   27  C   UNL     1     -10.163  12.740  71.592  1.00  0.00    10.749 A  
HETATM   28  C   UNL     1     -10.215   7.615  70.640  1.00  0.00    -0.199 C  
HETATM   29  C   UNL     1      -9.655  13.789  70.772  1.00  0.00     4.879 A  
HETATM   30  C   UNL     1     -10.903   7.493  69.239  1.00  0.00    -0.117 C  
HETATM   31  C   UNL     1      -8.995   9.322  68.474  1.00  0.00    -0.129 C  
HETATM   32  C   UNL     1      -9.849  11.421  71.304  1.00  0.00     7.578 A  
HETATM   33  N   UNL     1     -10.337  10.177  71.838  1.00  0.00     2.103 N  
HETATM   34  H   UNL     1      -9.016   6.023  70.569  1.00  0.00     0.000 HD 
HETATM   35  C   UNL     1     -10.096   8.232  68.034  1.00  0.00    -0.243 C  
HETATM   36  C   UNL     1     -11.492  10.158  72.605  1.00  0.00     3.317 C  
HETATM   37  C   UNL     1     -10.086   9.193  70.745  1.00  0.00    -0.268 C  
HETATM   38  O   UNL     1     -12.128  11.109  73.042  1.00  0.00     3.606 OA 
HETATM   39  C   UNL     1      -8.876   9.690  69.959  1.00  0.00    -0.259 C  
HETATM   40  C   UNL     1      -7.457   9.325  70.430  1.00  0.00    -0.124 C  
HETATM   41  C   UNL     1      -9.045  11.163  70.209  1.00  0.00     2.364 A  
HETATM   42  C   UNL     1      -8.516  12.166  69.425  1.00  0.00     1.002 A  
HETATM   43  C   UNL     1      -6.759   8.769  69.199  1.00  0.00    -0.051 C  
HETATM   44  N   UNL     1      -7.584   9.185  68.080  1.00  0.00    -0.084 NA 
HETATM   45  C   UNL     1      -7.323   8.514  66.831  1.00  0.00    -0.083 C  
HETATM   46  C   UNL     1      -8.173   7.306  66.652  1.00  0.00    -0.118 C  
HETATM   47  C   UNL     1      -9.418   7.196  67.140  1.00  0.00    -0.180 C  
BRANCH  29  48
HETATM   48  O   UNL     1     -10.041  15.089  70.964  1.00  0.00     0.464 OA 
HETATM   49  C   UNL     1     -11.184  15.274  71.795  1.00  0.00    -0.289 C  
ENDBRANCH  29  48
BRANCH  35  50
HETATM   50  C   UNL     1     -11.283   8.999  67.313  1.00  0.00     0.637 C  
HETATM   51  C   UNL     1     -12.676   9.085  67.914  1.00  0.00     9.087 C  
ENDBRANCH  35  50
BRANCH  30  52
HETATM   52  O   UNL     1     -11.738   6.390  68.781  1.00  0.00    -0.030 OA 
BRANCH  52  53
HETATM   53  C   UNL     1     -11.707   5.113  69.189  1.00  0.00     4.145 C  
HETATM   54  C   UNL     1     -10.332   4.820  69.752  1.00  0.00    -0.096 C  
HETATM   55  O   UNL     1     -12.684   4.382  69.248  1.00  0.00    14.664 OA 
ENDBRANCH  52  53
ENDBRANCH  30  52
BRANCH  28  56
HETATM   56  C   UNL     1     -11.037   7.044  71.791  1.00  0.00    -0.239 C  
HETATM   57  O   UNL     1     -10.778   6.024  72.415  1.00  0.00    -0.208 OA 
BRANCH  56  58
HETATM   58  O   UNL     1     -12.174   7.789  71.954  1.00  0.00    -0.288 OA 
HETATM   59  C   UNL     1     -12.879   8.131  70.759  1.00  0.00     0.298 C  
ENDBRANCH  56  58
ENDBRANCH  28  56
ENDBRANCH  15  25
BRANCH  15  60
HETATM   60  C   UNL     1      -6.544  14.060  68.756  1.00  0.00    -0.096 C  
HETATM   61  O   UNL     1      -5.802  14.171  69.734  1.00  0.00    -0.100 OA 
BRANCH  60  62
HETATM   62  O   UNL     1      -6.151  13.445  67.599  1.00  0.00    -0.165 OA 
HETATM   63  C   UNL     1      -6.908  12.275  67.221  1.00  0.00    -0.140 C  
ENDBRANCH  60  62
ENDBRANCH  15  60
ENDBRANCH   2   3
TORSDOF 10
ENDMDL
MODEL       50
REMARK 921   NORMALIZED FREE ENERGY PREDICTED BY IDOCK:   92.81 KCAL/MOL
REMARK 922        TOTAL FREE ENERGY PREDICTED BY IDOCK:  145.39 KCAL/MOL
REMARK 923 INTER-LIGAND FREE ENERGY PREDICTED BY IDOCK:  133.26 KCAL/MOL
REMARK 924 INTRA-LIGAND FREE ENERGY PREDICTED BY IDOCK:   12.12 KCAL/MOL
REMARK 927      BINDING AFFINITY PREDICTED BY RF-SCORE:    0.00 PKD
ROOT
HETATM    1  C   UNL     1      -7.534  17.540  73.546  1.00  0.00    12.468 C  
HETATM    2  C   UNL     1      -7.867  18.615  72.511  1.00  0.00     9.029 C  
ENDROOT
BRANCH   2   3
HETATM    3  C   UNL     1      -9.310  19.189  72.583  1.00  0.00     6.200 C  
HETATM    4  C   UNL     1     -10.397  18.092  72.793  1.00  0.00     5.298 C  
HETATM    5  O   UNL     1      -9.368  20.083  73.708  1.00  0.00     2.288 OA 
HETATM    6  C   UNL     1     -10.624  17.389  71.454  1.00  0.00     2.508 C  
HETATM    7  H   UNL     1     -10.249  20.434  73.752  1.00  0.00     0.000 HD 
HETATM    8  C   UNL     1     -11.226  18.419  70.507  1.00  0.00     3.822 C  
HETATM    9  N   UNL     1     -10.223  19.390  70.116  1.00  0.00     0.587 NA 
HETATM   10  C   UNL     1      -9.262  18.949  69.087  1.00  0.00    -0.077 C  
HETATM   11  C   UNL     1      -9.631  20.051  71.296  1.00  0.00     2.246 C  
HETATM   12  C   UNL     1      -9.623  17.734  68.174  1.00  0.00    -0.303 C  
HETATM   13  C   UNL     1      -9.156  16.414  68.743  1.00  0.00    -0.244 A  
HETATM   14  C   UNL     1      -9.819  15.456  69.527  1.00  0.00    -0.260 A  
HETATM   15  C   UNL     1     -11.297  15.267  70.083  1.00  0.00    -0.313 C  
HETATM   16  N   UNL     1      -8.849  14.551  69.924  1.00  0.00     0.014 NA 
HETATM   17  H   UNL     1      -9.007  13.798  70.595  1.00  0.00     0.000 HD 
HETATM   18  C   UNL     1     -11.386  16.053  71.457  1.00  0.00    -0.342 C  
HETATM   19  C   UNL     1      -7.809  15.944  68.555  1.00  0.00    -0.142 A  
HETATM   20  C   UNL     1      -6.697  16.418  67.825  1.00  0.00    -0.156 A  
HETATM   21  C   UNL     1      -7.658  14.790  69.307  1.00  0.00    -0.144 A  
HETATM   22  C   UNL     1      -5.488  15.721  67.870  1.00  0.00    -0.148 A  
HETATM   23  C   UNL     1      -5.376  14.569  68.640  1.00  0.00    -0.095 A  
HETATM   24  C   UNL     1      -6.445  14.082  69.377  1.00  0.00    -0.118 A  
BRANCH  15  25
HETATM   25  C   UNL     1     -11.559  13.720  70.168  1.00  0.00    -0.230 A  
HETATM   26  O   UNL     1      -9.819   8.353  66.707  1.00  0.00    -0.211 OA 
HETATM   27  C   UNL     1     -12.266  11.553  71.125  1.00  0.00    -0.287 A  
HETATM   28  C   UNL     1     -11.191   8.406  67.111  1.00  0.00     0.888 C  
HETATM   29  C   UNL     1     -12.216  12.976  71.174  1.00  0.00    -0.042 A  
HETATM   30  C   UNL     1     -12.088   8.948  65.948  1.00  0.00     9.802 C  
HETATM   31  C   UNL     1     -10.901  11.355  66.556  1.00  0.00    -0.283 C  
HETATM   32  C   UNL     1     -11.688  10.875  70.063  1.00  0.00    -0.345 A  
HETATM   33  N   UNL     1     -11.726   9.491  69.670  1.00  0.00     0.133 N  
HETATM   34  H   UNL     1      -9.662   7.683  66.053  1.00  0.00     0.000 HD 
HETATM   35  C   UNL     1     -11.751  10.478  65.506  1.00  0.00     2.150 C  
HETATM   36  C   UNL     1     -12.663   8.637  70.232  1.00  0.00     1.018 C  
HETATM   37  C   UNL     1     -11.452   9.526  68.203  1.00  0.00     0.561 C  
HETATM   38  O   UNL     1     -13.422   8.853  71.168  1.00  0.00    -0.213 OA 
HETATM   39  C   UNL     1     -10.590  10.755  67.935  1.00  0.00    -0.258 C  
HETATM   40  C   UNL     1      -9.060  10.663  68.081  1.00  0.00    -0.148 C  
HETATM   41  C   UNL     1     -11.077  11.615  69.067  1.00  0.00    -0.297 A  
HETATM   42  C   UNL     1     -10.989  12.990  69.115  1.00  0.00    -0.190 A  
HETATM   43  C   UNL     1      -8.501  11.235  66.789  1.00  0.00    -0.161 C  
HETATM   44  N   UNL     1      -9.609  11.952  66.185  1.00  0.00    -0.231 NA 
HETATM   45  C   UNL     1      -9.437  12.312  64.800  1.00  0.00     0.219 C  
HETATM   46  C   UNL     1      -9.967  11.272  63.877  1.00  0.00    -0.368 C  
HETATM   47  C   UNL     1     -11.020  10.492  64.165  1.00  0.00     0.877 C  
BRANCH  29  48
HETATM   48  O   UNL     1     -12.876  13.675  72.149  1.00  0.00    -0.308 OA 
HETATM   49  C   UNL     1     -13.912  12.964  72.821  1.00  0.00     0.420 C  
ENDBRANCH  29  48
BRANCH  35  50
HETATM   50  C   UNL     1     -13.213  11.090  65.429  1.00  0.00     7.146 C  
HETATM   51  C   UNL     1     -13.634  12.048  64.328  1.00  0.00     1.268 C  
ENDBRANCH  35  50
BRANCH  30  52
HETATM   52  O   UNL     1     -12.685   8.159  64.879  1.00  0.00    17.033 OA 
BRANCH  52  53
HETATM   53  C   UNL     1     -13.203   6.924  64.960  1.00  0.00    14.147 C  
HETATM   54  C   UNL     1     -13.868   6.769  66.312  1.00  0.00    17.294 C  
HETATM   55  O   UNL     1     -13.270   6.140  64.027  1.00  0.00     7.476 OA 
ENDBRANCH  52  53
ENDBRANCH  30  52
BRANCH  28  56
HETATM   56  C   UNL     1     -11.595   7.025  67.618  1.00  0.00     0.758 C  
HETATM   57  O   UNL     1     -10.902   6.018  67.575  1.00  0.00    -0.283 OA 
BRANCH  56  58
HETATM   58  O   UNL     1     -12.899   7.055  68.034  1.00  0.00     5.573 OA 
HETATM   59  C   UNL     1     -13.128   7.566  69.349  1.00  0.00     4.772 C  
ENDBRANCH  56  58
ENDBRANCH  28  56
ENDBRANCH  15  25
BRANCH  15  60
HETATM   60  C   UNL     1     -12.322  15.798  69.002  1.00  0.00     0.146 C  
HETATM   61  O   UNL     1     -13.479  16.144  69.245  1.00  0.00     1.463 OA 
BRANCH  60  62
HETATM   62  O   UNL     1     -11.763  15.918  67.760  1.00  0.00    -0.141 OA 
HETATM   63  C   UNL     1     -12.628  15.607  66.647  1.00  0.00     2.001 C  
ENDBRANCH  60  62
ENDBRANCH  15  60
ENDBRANCH   2   3
TORSDOF 10
ENDMDL
MODEL       51
REMARK 921   NORMALIZED FREE ENERGY PREDICTED BY IDOCK:   95.58 KCAL/MOL
REMARK 922        TOTAL FREE ENERGY PREDICTED BY IDOCK:  149.78 KCAL/MOL
REMARK 923 INTER-LIGAND FREE ENERGY PREDICTED BY IDOCK:  129.64 KCAL/MOL
REMARK 924 INTRA-LIGAND FREE ENERGY PREDICTED BY IDOCK:   20.14 KCAL/MOL
REMARK 927      BINDING AFFINITY PREDICTED BY RF-SCORE:    0.00 PKD
ROOT
HETATM    1  C   UNL     1     -10.877   7.519  70.692  1.00  0.00    -0.251 C  
HETATM    2  C   UNL     1     -10.093   6.345  70.107  1.00  0.00    -0.209 C  
ENDROOT
BRANCH   2   3
HETATM    3  C   UNL     1     -10.553   5.865  68.701  1.00  0.00    -0.256 C  
HETATM    4  C   UNL     1      -9.974   6.728  67.539  1.00  0.00    -0.180 C  
HETATM    5  O   UNL     1     -10.080   4.519  68.524  1.00  0.00    -0.082 OA 
HETATM    6  C   UNL     1     -10.770   8.032  67.477  1.00  0.00    -0.238 C  
HETATM    7  H   UNL     1     -10.362   4.226  67.666  1.00  0.00     0.000 HD 
HETATM    8  C   UNL     1     -12.194   7.668  67.077  1.00  0.00     5.852 C  
HETATM    9  N   UNL     1     -12.872   7.009  68.177  1.00  0.00     6.522 NA 
HETATM   10  C   UNL     1     -13.359   7.890  69.256  1.00  0.00     6.846 C  
HETATM   11  C   UNL     1     -12.132   5.811  68.621  1.00  0.00     3.878 C  
HETATM   12  C   UNL     1     -13.552   9.414  68.971  1.00  0.00     6.681 C  
HETATM   13  C   UNL     1     -12.316  10.228  69.278  1.00  0.00     0.352 A  
HETATM   14  C   UNL     1     -11.262  10.659  68.457  1.00  0.00    -0.282 A  
HETATM   15  C   UNL     1     -10.924  10.579  66.905  1.00  0.00    -0.199 C  
HETATM   16  N   UNL     1     -10.308  11.192  69.308  1.00  0.00    -0.393 NA 
HETATM   17  H   UNL     1      -9.378  11.489  69.013  1.00  0.00     0.000 HD 
HETATM   18  C   UNL     1     -10.191   9.196  66.654  1.00  0.00    -0.328 C  
HETATM   19  C   UNL     1     -12.022  10.682  70.612  1.00  0.00    -0.466 A  
HETATM   20  C   UNL     1     -12.711  10.622  71.844  1.00  0.00    -0.410 A  
HETATM   21  C   UNL     1     -10.768  11.270  70.589  1.00  0.00     1.599 A  
HETATM   22  C   UNL     1     -12.124  11.153  72.994  1.00  0.00     6.156 A  
HETATM   23  C   UNL     1     -10.862  11.730  72.930  1.00  0.00    14.251 A  
HETATM   24  C   UNL     1     -10.154  11.797  71.738  1.00  0.00    11.627 A  
BRANCH  15  25
HETATM   25  C   UNL     1     -10.090  11.863  66.552  1.00  0.00    -0.229 A  
HETATM   26  O   UNL     1      -5.297  15.417  69.416  1.00  0.00    -0.093 OA 
HETATM   27  C   UNL     1      -9.157  13.700  65.185  1.00  0.00     1.361 A  
HETATM   28  C   UNL     1      -6.348  16.178  68.810  1.00  0.00    -0.119 C  
HETATM   29  C   UNL     1     -10.064  12.614  65.356  1.00  0.00    -0.261 A  
HETATM   30  C   UNL     1      -7.403  16.611  69.883  1.00  0.00     0.664 C  
HETATM   31  C   UNL     1      -8.104  13.950  69.833  1.00  0.00     1.311 C  
HETATM   32  C   UNL     1      -8.297  14.053  66.214  1.00  0.00     0.909 A  
HETATM   33  N   UNL     1      -7.414  15.175  66.387  1.00  0.00     0.926 N  
HETATM   34  H   UNL     1      -4.749  15.949  69.980  1.00  0.00     0.000 HD 
HETATM   35  C   UNL     1      -8.178  15.369  70.594  1.00  0.00     1.754 C  
HETATM   36  C   UNL     1      -7.534  16.285  65.564  1.00  0.00     2.818 C  
HETATM   37  C   UNL     1      -7.264  15.290  67.868  1.00  0.00    -0.143 C  
HETATM   38  O   UNL     1      -8.225  16.414  64.561  1.00  0.00     5.069 OA 
HETATM   39  C   UNL     1      -7.443  13.891  68.449  1.00  0.00    -0.117 C  
HETATM   40  C   UNL     1      -6.236  12.939  68.536  1.00  0.00    -0.077 C  
HETATM   41  C   UNL     1      -8.355  13.331  67.393  1.00  0.00    -0.193 A  
HETATM   42  C   UNL     1      -9.201  12.257  67.563  1.00  0.00    -0.181 A  
HETATM   43  C   UNL     1      -6.227  12.438  69.971  1.00  0.00    -0.075 C  
HETATM   44  N   UNL     1      -7.544  12.760  70.490  1.00  0.00     2.761 NA 
HETATM   45  C   UNL     1      -7.684  12.684  71.923  1.00  0.00    11.914 C  
HETATM   46  C   UNL     1      -7.408  13.988  72.585  1.00  0.00     5.384 C  
HETATM   47  C   UNL     1      -7.670  15.176  72.021  1.00  0.00     4.910 C  
BRANCH  29  48
HETATM   48  O   UNL     1     -11.001  12.318  64.402  1.00  0.00    -0.293 OA 
HETATM   49  C   UNL     1     -10.787  11.106  63.685  1.00  0.00    -0.242 C  
ENDBRANCH  29  48
BRANCH  35  50
HETATM   50  C   UNL     1      -9.678  15.882  70.526  1.00  0.00     0.940 C  
HETATM   51  C   UNL     1     -10.427  16.027  69.212  1.00  0.00    -0.257 C  
ENDBRANCH  35  50
BRANCH  30  52
HETATM   52  O   UNL     1      -7.347  17.806  70.714  1.00  0.00     2.832 OA 
BRANCH  52  53
HETATM   53  C   UNL     1      -7.559  19.077  70.343  1.00  0.00     1.586 C  
HETATM   54  C   UNL     1      -7.871  19.099  68.861  1.00  0.00    -0.351 C  
HETATM   55  O   UNL     1      -7.653  20.017  71.116  1.00  0.00     0.819 OA 
ENDBRANCH  52  53
ENDBRANCH  30  52
BRANCH  28  56
HETATM   56  C   UNL     1      -5.720  17.341  68.047  1.00  0.00    -0.120 C  
HETATM   57  O   UNL     1      -5.622  17.426  66.832  1.00  0.00    -0.134 OA 
BRANCH  56  58
HETATM   58  O   UNL     1      -5.184  18.233  68.937  1.00  0.00    -0.172 OA 
HETATM   59  C   UNL     1      -5.976  19.389  69.224  1.00  0.00    -0.262 C  
ENDBRANCH  56  58
ENDBRANCH  28  56
ENDBRANCH  15  25
BRANCH  15  60
HETATM   60  C   UNL     1     -12.267  10.723  66.081  1.00  0.00     3.428 C  
HETATM   61  O   UNL     1     -13.222  11.426  66.416  1.00  0.00     5.019 OA 
BRANCH  60  62
HETATM   62  O   UNL     1     -12.233  10.041  64.896  1.00  0.00     5.295 OA 
HETATM   63  C   UNL     1     -11.891   8.642  64.985  1.00  0.00    12.788 C  
ENDBRANCH  60  62
ENDBRANCH  15  60
ENDBRANCH   2   3
TORSDOF 10
ENDMDL
