MODEL        1
REMARK 921   NORMALIZED FREE ENERGY PREDICTED BY IDOCK:   -7.34 KCAL/MOL
REMARK 922        TOTAL FREE ENERGY PREDICTED BY IDOCK:  -11.61 KCAL/MOL
REMARK 923 INTER-LIGAND FREE ENERGY PREDICTED BY IDOCK:  -11.63 KCAL/MOL
REMARK 924 INTRA-LIGAND FREE ENERGY PREDICTED BY IDOCK:    0.02 KCAL/MOL
REMARK 927      BINDING AFFINITY PREDICTED BY RF-SCORE:    0.00 PKD
ROOT
HETATM    1  C   UNL     1     -11.475   5.957  70.863  1.00  0.00    -0.122 C  
HETATM    2  C   UNL     1     -10.352   4.891  70.655  1.00  0.00    -0.233 C  
ENDROOT
BRANCH   2   3
HETATM    3  C   UNL     1      -8.971   5.430  70.022  1.00  0.00    -0.152 C  
HETATM    4  C   UNL     1      -8.071   5.116  71.248  1.00  0.00    -0.113 C  
HETATM    5  C   UNL     1      -8.117   6.019  72.247  1.00  0.00    -0.110 C  
HETATM    6  C   UNL     1      -7.350   7.211  71.822  1.00  0.00    -0.084 C  
HETATM    7  N   UNL     1      -8.077   7.914  70.750  1.00  0.00    -0.099 NA 
HETATM    8  C   UNL     1      -7.107   8.784  70.092  1.00  0.00    -0.045 C  
HETATM    9  C   UNL     1      -7.061   8.412  68.639  1.00  0.00    -0.072 C  
HETATM   10  C   UNL     1      -8.393   7.682  68.329  1.00  0.00    -0.125 C  
HETATM   11  C   UNL     1      -8.887   7.112  69.735  1.00  0.00    -0.142 C  
HETATM   12  C   UNL     1      -8.359   6.585  67.222  1.00  0.00    -0.113 C  
HETATM   13  C   UNL     1      -7.661   5.285  67.648  1.00  0.00    -0.092 C  
HETATM   14  N   UNL     1      -7.893   7.287  65.984  1.00  0.00    -0.102 NA 
HETATM   15  C   UNL     1      -9.598  10.020  67.732  1.00  0.00    -0.168 A  
HETATM   16  O   UNL     1      -7.591   4.349  66.535  1.00  0.00    -0.084 OA 
HETATM   17  C   UNL     1      -8.469   4.567  68.786  1.00  0.00    -0.084 C  
HETATM   18  C   UNL     1      -7.974   6.701  64.651  1.00  0.00    -0.113 C  
HETATM   19  C   UNL     1      -8.653   8.505  66.105  1.00  0.00    -0.138 A  
HETATM   20  C   UNL     1      -9.820  10.994  66.691  1.00  0.00    -0.235 A  
HETATM   21  C   UNL     1      -9.043   8.773  67.438  1.00  0.00    -0.147 A  
HETATM   22  C   UNL     1      -9.500  10.628  65.344  1.00  0.00    -0.215 A  
HETATM   23  C   UNL     1      -8.904   9.401  65.073  1.00  0.00    -0.234 A  
HETATM   24  H   UNL     1      -7.159   3.545  66.798  1.00  0.00     0.000 HD 
BRANCH  13  25
HETATM   25  C   UNL     1      -6.182   5.527  68.028  1.00  0.00    -0.037 C  
HETATM   26  O   UNL     1      -5.334   6.052  67.317  1.00  0.00    -0.005 OA 
BRANCH  25  27
HETATM   27  O   UNL     1      -5.954   5.035  69.285  1.00  0.00    -0.016 OA 
HETATM   28  C   UNL     1      -5.420   3.711  69.411  1.00  0.00    -0.016 C  
ENDBRANCH  25  27
ENDBRANCH  13  25
BRANCH  17  29
HETATM   29  O   UNL     1      -9.464   3.606  68.261  1.00  0.00    -0.173 OA 
BRANCH  29  30
HETATM   30  C   UNL     1      -9.231   2.285  68.093  1.00  0.00    -0.198 C  
HETATM   31  C   UNL     1      -9.309   1.550  69.403  1.00  0.00    -0.167 C  
HETATM   32  O   UNL     1      -9.024   1.730  67.022  1.00  0.00    -0.123 OA 
ENDBRANCH  29  30
ENDBRANCH  17  29
BRANCH  22  33
HETATM   33  O   UNL     1      -9.806  11.480  64.324  1.00  0.00    -0.240 OA 
HETATM   34  C   UNL     1      -9.500  11.191  62.970  1.00  0.00    -0.369 C  
ENDBRANCH  22  33
BRANCH  20  35
HETATM   35  C   UNL     1     -10.416  12.430  67.068  1.00  0.00    -0.238 C  
HETATM   36  C   UNL     1      -7.947  15.208  68.207  1.00  0.00    -0.129 A  
HETATM   37  C   UNL     1     -11.353  12.182  68.339  1.00  0.00    -0.336 C  
HETATM   38  C   UNL     1     -11.653  13.460  69.103  1.00  0.00    -0.365 C  
HETATM   39  C   UNL     1      -7.296  16.355  68.725  1.00  0.00    -0.203 A  
HETATM   40  C   UNL     1      -5.919  16.333  68.978  1.00  0.00    -0.134 A  
HETATM   41  C   UNL     1      -5.171  15.195  68.704  1.00  0.00    -0.093 A  
HETATM   42  C   UNL     1     -12.306  13.499  70.488  1.00  0.00    -0.412 C  
HETATM   43  C   UNL     1     -12.893  14.924  70.750  1.00  0.00    -0.428 C  
HETATM   44  C   UNL     1      -5.772  14.067  68.143  1.00  0.00    -0.128 A  
HETATM   45  C   UNL     1     -12.248  16.077  69.903  1.00  0.00    -0.031 C  
HETATM   46  C   UNL     1      -7.153  14.111  67.909  1.00  0.00    -0.160 A  
HETATM   47  H   UNL     1      -7.645  12.322  66.897  1.00  0.00     0.000 HD 
HETATM   48  N   UNL     1     -11.832  15.730  68.545  1.00  0.00    -0.313 NA 
HETATM   49  N   UNL     1      -7.976  13.175  67.346  1.00  0.00    -0.177 NA 
HETATM   50  C   UNL     1     -10.425  15.988  68.144  1.00  0.00    -0.269 C  
HETATM   51  C   UNL     1     -12.356  14.452  68.187  1.00  0.00     0.034 C  
HETATM   52  C   UNL     1      -9.338  14.880  67.910  1.00  0.00    -0.191 A  
HETATM   53  C   UNL     1      -9.310  13.522  67.458  1.00  0.00    -0.220 A  
BRANCH  35  54
HETATM   54  C   UNL     1     -11.131  13.047  65.794  1.00  0.00    -0.278 C  
HETATM   55  O   UNL     1     -10.692  13.964  65.111  1.00  0.00    -0.319 OA 
BRANCH  54  56
HETATM   56  O   UNL     1     -12.347  12.425  65.561  1.00  0.00    -0.621 OA 
HETATM   57  C   UNL     1     -12.828  12.469  64.213  1.00  0.00    -0.255 C  
ENDBRANCH  54  56
ENDBRANCH  35  54
BRANCH  43  58
HETATM   58  C   UNL     1     -12.914  15.289  72.234  1.00  0.00    -0.369 C  
HETATM   59  C   UNL     1     -11.870  16.319  72.635  1.00  0.00    -0.596 C  
HETATM   60  F   UNL     1     -12.732  14.175  72.988  1.00  0.00    -0.455 F  
HETATM   61  F   UNL     1     -14.143  15.775  72.551  1.00  0.00    -0.581 F  
ENDBRANCH  43  58
ENDBRANCH  20  35
ENDBRANCH   2   3
TORSDOF 10
ENDMDL
MODEL        2
REMARK 921   NORMALIZED FREE ENERGY PREDICTED BY IDOCK:   -6.18 KCAL/MOL
REMARK 922        TOTAL FREE ENERGY PREDICTED BY IDOCK:   -9.78 KCAL/MOL
REMARK 923 INTER-LIGAND FREE ENERGY PREDICTED BY IDOCK:   -9.88 KCAL/MOL
REMARK 924 INTRA-LIGAND FREE ENERGY PREDICTED BY IDOCK:    0.10 KCAL/MOL
REMARK 927      BINDING AFFINITY PREDICTED BY RF-SCORE:    0.00 PKD
ROOT
HETATM    1  C   UNL     1      -5.125   5.896  71.023  1.00  0.00    -0.013 C  
HETATM    2  C   UNL     1      -6.137   7.086  71.001  1.00  0.00    -0.036 C  
ENDROOT
BRANCH   2   3
HETATM    3  C   UNL     1      -7.517   6.829  70.209  1.00  0.00    -0.090 C  
HETATM    4  C   UNL     1      -6.919   5.958  69.071  1.00  0.00    -0.068 C  
HETATM    5  C   UNL     1      -6.321   6.640  68.073  1.00  0.00    -0.044 C  
HETATM    6  C   UNL     1      -7.381   7.243  67.234  1.00  0.00    -0.098 C  
HETATM    7  N   UNL     1      -8.047   8.326  67.978  1.00  0.00    -0.126 NA 
HETATM    8  C   UNL     1      -9.318   8.573  67.302  1.00  0.00    -0.149 C  
HETATM    9  C   UNL     1     -10.420   8.375  68.301  1.00  0.00    -0.214 C  
HETATM   10  C   UNL     1      -9.778   8.533  69.703  1.00  0.00    -0.179 C  
HETATM   11  C   UNL     1      -8.232   8.203  69.488  1.00  0.00    -0.121 C  
HETATM   12  C   UNL     1     -10.405   7.708  70.868  1.00  0.00    -0.201 C  
HETATM   13  C   UNL     1     -10.091   6.207  70.813  1.00  0.00    -0.193 C  
HETATM   14  N   UNL     1     -11.835   8.148  70.938  1.00  0.00    -0.261 NA 
HETATM   15  C   UNL     1     -10.235  11.191  69.671  1.00  0.00     0.165 A  
HETATM   16  O   UNL     1     -10.784   5.496  71.878  1.00  0.00    -0.228 OA 
HETATM   17  C   UNL     1      -8.557   5.951  71.030  1.00  0.00    -0.131 C  
HETATM   18  C   UNL     1     -12.718   7.830  72.055  1.00  0.00    -0.258 C  
HETATM   19  C   UNL     1     -11.655   9.565  70.755  1.00  0.00    -0.308 A  
HETATM   20  C   UNL     1     -11.214  12.217  69.936  1.00  0.00     0.048 A  
HETATM   21  C   UNL     1     -10.441   9.879  70.101  1.00  0.00    -0.339 A  
HETATM   22  C   UNL     1     -12.377  11.863  70.693  1.00  0.00    -0.313 A  
HETATM   23  C   UNL     1     -12.591  10.542  71.073  1.00  0.00    -0.499 A  
HETATM   24  H   UNL     1     -10.589   4.566  71.844  1.00  0.00     0.000 HD 
BRANCH  13  25
HETATM   25  C   UNL     1     -10.626   5.556  69.517  1.00  0.00    -0.296 C  
HETATM   26  O   UNL     1     -11.535   5.988  68.819  1.00  0.00    -0.177 OA 
BRANCH  25  27
HETATM   27  O   UNL     1      -9.940   4.395  69.280  1.00  0.00    -0.183 OA 
HETATM   28  C   UNL     1      -9.708   4.008  67.919  1.00  0.00    -0.088 C  
ENDBRANCH  25  27
ENDBRANCH  13  25
BRANCH  17  29
HETATM   29  O   UNL     1      -8.206   5.753  72.454  1.00  0.00    -0.107 OA 
BRANCH  29  30
HETATM   30  C   UNL     1      -8.109   4.545  73.052  1.00  0.00    -0.096 C  
HETATM   31  C   UNL     1      -7.235   4.615  74.275  1.00  0.00    -0.077 C  
HETATM   32  O   UNL     1      -8.678   3.523  72.691  1.00  0.00    -0.085 OA 
ENDBRANCH  29  30
ENDBRANCH  17  29
BRANCH  22  33
HETATM   33  O   UNL     1     -13.262  12.832  71.060  1.00  0.00    -0.063 OA 
HETATM   34  C   UNL     1     -13.972  12.793  72.287  1.00  0.00    -0.167 C  
ENDBRANCH  22  33
BRANCH  20  35
HETATM   35  C   UNL     1     -10.969  13.702  69.392  1.00  0.00    -0.117 C  
HETATM   36  C   UNL     1     -11.706  14.434  65.645  1.00  0.00    -0.356 A  
HETATM   37  C   UNL     1      -9.399  13.959  69.548  1.00  0.00     0.844 C  
HETATM   38  C   UNL     1      -8.908  15.116  68.694  1.00  0.00    -0.186 C  
HETATM   39  C   UNL     1     -11.810  14.946  64.329  1.00  0.00    -0.312 A  
HETATM   40  C   UNL     1     -12.181  14.109  63.270  1.00  0.00     0.486 A  
HETATM   41  C   UNL     1     -12.473  12.771  63.500  1.00  0.00    -0.474 A  
HETATM   42  C   UNL     1      -7.430  15.432  68.446  1.00  0.00    -0.115 C  
HETATM   43  C   UNL     1      -7.286  16.911  67.956  1.00  0.00    -0.175 C  
HETATM   44  C   UNL     1     -12.432  12.246  64.793  1.00  0.00    -0.385 A  
HETATM   45  C   UNL     1      -8.576  17.526  67.308  1.00  0.00    -0.225 C  
HETATM   46  C   UNL     1     -12.049  13.103  65.834  1.00  0.00    -0.444 A  
HETATM   47  H   UNL     1     -12.292  12.011  67.627  1.00  0.00     0.000 HD 
HETATM   48  N   UNL     1      -9.855  17.096  67.871  1.00  0.00    -0.274 NA 
HETATM   49  N   UNL     1     -11.960  12.864  67.177  1.00  0.00    -0.372 NA 
HETATM   50  C   UNL     1     -10.874  16.513  66.961  1.00  0.00    -0.113 C  
HETATM   51  C   UNL     1      -9.636  16.392  69.093  1.00  0.00    -0.249 C  
HETATM   52  C   UNL     1     -11.284  14.999  66.923  1.00  0.00    -0.323 A  
HETATM   53  C   UNL     1     -11.368  13.914  67.854  1.00  0.00    -0.292 A  
BRANCH  35  54
HETATM   54  C   UNL     1     -11.914  14.706  70.174  1.00  0.00    -0.313 C  
HETATM   55  O   UNL     1     -12.999  15.111  69.777  1.00  0.00     0.001 OA 
BRANCH  54  56
HETATM   56  O   UNL     1     -11.336  15.093  71.373  1.00  0.00    -0.351 OA 
HETATM   57  C   UNL     1     -12.079  16.039  72.152  1.00  0.00    -0.526 C  
ENDBRANCH  54  56
ENDBRANCH  35  54
BRANCH  43  58
HETATM   58  C   UNL     1      -6.074  17.116  67.049  1.00  0.00    -0.178 C  
HETATM   59  C   UNL     1      -5.310  18.403  67.313  1.00  0.00    -0.140 C  
HETATM   60  F   UNL     1      -6.461  17.103  65.747  1.00  0.00    -0.164 F  
HETATM   61  F   UNL     1      -5.221  16.068  67.210  1.00  0.00    -0.138 F  
ENDBRANCH  43  58
ENDBRANCH  20  35
ENDBRANCH   2   3
TORSDOF 10
ENDMDL
MODEL        3
REMARK 921   NORMALIZED FREE ENERGY PREDICTED BY IDOCK:   -6.13 KCAL/MOL
REMARK 922        TOTAL FREE ENERGY PREDICTED BY IDOCK:   -9.69 KCAL/MOL
REMARK 923 INTER-LIGAND FREE ENERGY PREDICTED BY IDOCK:  -10.23 KCAL/MOL
REMARK 924 INTRA-LIGAND FREE ENERGY PREDICTED BY IDOCK:    0.55 KCAL/MOL
REMARK 927      BINDING AFFINITY PREDICTED BY RF-SCORE:    0.00 PKD
ROOT
HETATM    1  C   UNL     1      -7.843  15.342  68.880  1.00  0.00    -0.177 C  
HETATM    2  C   UNL     1      -9.356  15.659  69.106  1.00  0.00    -0.252 C  
ENDROOT
BRANCH   2   3
HETATM    3  C   UNL     1     -10.401  14.781  68.247  1.00  0.00    -0.238 C  
HETATM    4  C   UNL     1     -11.679  15.211  69.016  1.00  0.00    -0.358 C  
HETATM    5  C   UNL     1     -11.898  14.568  70.181  1.00  0.00    -0.371 C  
HETATM    6  C   UNL     1     -12.383  13.206  69.868  1.00  0.00    -0.135 C  
HETATM    7  N   UNL     1     -11.287  12.409  69.289  1.00  0.00    -0.264 NA 
HETATM    8  C   UNL     1     -11.911  11.272  68.618  1.00  0.00    -0.300 C  
HETATM    9  C   UNL     1     -11.499  11.303  67.175  1.00  0.00    -0.217 C  
HETATM   10  C   UNL     1     -10.202  12.149  67.105  1.00  0.00    -0.226 C  
HETATM   11  C   UNL     1     -10.251  13.086  68.395  1.00  0.00    -0.245 C  
HETATM   12  C   UNL     1      -9.951  12.956  65.795  1.00  0.00    -0.254 C  
HETATM   13  C   UNL     1     -10.851  14.189  65.636  1.00  0.00    -0.305 C  
HETATM   14  N   UNL     1      -9.921  11.934  64.701  1.00  0.00    -0.250 NA 
HETATM   15  C   UNL     1      -8.686   9.959  67.531  1.00  0.00    -0.121 A  
HETATM   16  O   UNL     1     -10.620  14.834  64.351  1.00  0.00    -0.562 OA 
HETATM   17  C   UNL     1     -10.528  15.260  66.737  1.00  0.00    -0.293 C  
HETATM   18  C   UNL     1      -9.446  12.217  63.351  1.00  0.00     0.234 C  
HETATM   19  C   UNL     1      -9.151  10.908  65.359  1.00  0.00    -0.198 A  
HETATM   20  C   UNL     1      -8.054   8.828  66.897  1.00  0.00    -0.101 A  
HETATM   21  C   UNL     1      -9.207  11.006  66.769  1.00  0.00    -0.174 A  
HETATM   22  C   UNL     1      -7.934   8.832  65.470  1.00  0.00    -0.102 A  
HETATM   23  C   UNL     1      -8.501   9.858  64.722  1.00  0.00    -0.179 A  
HETATM   24  H   UNL     1     -11.177  15.597  64.252  1.00  0.00     0.000 HD 
BRANCH  13  25
HETATM   25  C   UNL     1     -12.348  13.805  65.599  1.00  0.00    -0.482 C  
HETATM   26  O   UNL     1     -13.111  13.797  66.557  1.00  0.00     0.111 OA 
BRANCH  25  27
HETATM   27  O   UNL     1     -12.689  13.444  64.323  1.00  0.00    -0.644 OA 
HETATM   28  C   UNL     1     -13.111  12.094  64.088  1.00  0.00     0.000 C  
ENDBRANCH  25  27
ENDBRANCH  13  25
BRANCH  17  29
HETATM   29  O   UNL     1      -9.494  16.228  66.309  1.00  0.00    -0.272 OA 
BRANCH  29  30
HETATM   30  C   UNL     1      -9.727  17.539  66.080  1.00  0.00    -0.209 C  
HETATM   31  C   UNL     1      -8.696  18.399  66.758  1.00  0.00    -0.284 C  
HETATM   32  O   UNL     1     -10.626  17.991  65.384  1.00  0.00    -0.648 OA 
ENDBRANCH  29  30
ENDBRANCH  17  29
BRANCH  22  33
HETATM   33  O   UNL     1      -7.240   7.836  64.850  1.00  0.00    -0.061 OA 
HETATM   34  C   UNL     1      -7.139   7.741  63.438  1.00  0.00    -0.075 C  
ENDBRANCH  22  33
BRANCH  20  35
HETATM   35  C   UNL     1      -7.506   7.624  67.796  1.00  0.00    -0.108 C  
HETATM   36  C   UNL     1      -8.250   3.983  66.651  1.00  0.00    -0.101 A  
HETATM   37  C   UNL     1      -8.258   7.763  69.199  1.00  0.00    -0.129 C  
HETATM   38  C   UNL     1      -8.211   6.483  70.018  1.00  0.00    -0.130 C  
HETATM   39  C   UNL     1      -8.447   2.587  66.516  1.00  0.00    -0.099 A  
HETATM   40  C   UNL     1      -9.220   2.079  65.465  1.00  0.00    -0.027 A  
HETATM   41  C   UNL     1      -9.786   2.936  64.530  1.00  0.00    -0.071 A  
HETATM   42  C   UNL     1      -9.049   6.239  71.277  1.00  0.00    -0.148 C  
HETATM   43  C   UNL     1      -8.417   5.076  72.109  1.00  0.00    -0.125 C  
HETATM   44  C   UNL     1      -9.568   4.313  64.603  1.00  0.00    -0.160 A  
HETATM   45  C   UNL     1      -7.504   4.094  71.295  1.00  0.00    -0.055 C  
HETATM   46  C   UNL     1      -8.798   4.796  65.670  1.00  0.00    -0.135 A  
HETATM   47  H   UNL     1      -8.540   6.866  65.331  1.00  0.00     0.000 HD 
HETATM   48  N   UNL     1      -6.723   4.683  70.208  1.00  0.00    -0.035 NA 
HETATM   49  N   UNL     1      -8.406   6.074  65.958  1.00  0.00    -0.128 NA 
HETATM   50  C   UNL     1      -6.860   4.115  68.842  1.00  0.00    -0.047 C  
HETATM   51  C   UNL     1      -6.763   6.106  70.297  1.00  0.00    -0.050 C  
HETATM   52  C   UNL     1      -7.584   4.822  67.643  1.00  0.00    -0.079 A  
HETATM   53  C   UNL     1      -7.807   6.166  67.202  1.00  0.00    -0.102 A  
BRANCH  35  54
HETATM   54  C   UNL     1      -5.923   7.694  67.852  1.00  0.00    -0.040 C  
HETATM   55  O   UNL     1      -5.160   6.988  67.206  1.00  0.00    -0.011 OA 
BRANCH  54  56
HETATM   56  O   UNL     1      -5.504   8.656  68.758  1.00  0.00    -0.035 OA 
HETATM   57  C   UNL     1      -5.404   9.993  68.254  1.00  0.00    -0.035 C  
ENDBRANCH  54  56
ENDBRANCH  35  54
BRANCH  43  58
HETATM   58  C   UNL     1      -9.454   4.303  72.923  1.00  0.00    -0.123 C  
HETATM   59  C   UNL     1     -10.661   5.128  73.336  1.00  0.00    -0.331 C  
HETATM   60  F   UNL     1      -8.877   3.793  74.042  1.00  0.00    -0.088 F  
HETATM   61  F   UNL     1      -9.886   3.241  72.192  1.00  0.00    -0.190 F  
ENDBRANCH  43  58
ENDBRANCH  20  35
ENDBRANCH   2   3
TORSDOF 10
ENDMDL
MODEL        4
REMARK 921   NORMALIZED FREE ENERGY PREDICTED BY IDOCK:   -6.06 KCAL/MOL
REMARK 922        TOTAL FREE ENERGY PREDICTED BY IDOCK:   -9.58 KCAL/MOL
REMARK 923 INTER-LIGAND FREE ENERGY PREDICTED BY IDOCK:  -10.96 KCAL/MOL
REMARK 924 INTRA-LIGAND FREE ENERGY PREDICTED BY IDOCK:    1.37 KCAL/MOL
REMARK 927      BINDING AFFINITY PREDICTED BY RF-SCORE:    0.00 PKD
ROOT
HETATM    1  C   UNL     1     -10.831   6.071  69.729  1.00  0.00    -0.433 C  
HETATM    2  C   UNL     1      -9.904   5.126  68.900  1.00  0.00    -0.241 C  
ENDROOT
BRANCH   2   3
HETATM    3  C   UNL     1      -8.655   5.828  68.161  1.00  0.00    -0.108 C  
HETATM    4  C   UNL     1      -7.555   5.317  69.129  1.00  0.00    -0.074 C  
HETATM    5  C   UNL     1      -7.429   6.008  70.280  1.00  0.00    -0.090 C  
HETATM    6  C   UNL     1      -6.751   7.287  69.973  1.00  0.00    -0.051 C  
HETATM    7  N   UNL     1      -7.655   8.156  69.200  1.00  0.00    -0.094 NA 
HETATM    8  C   UNL     1      -6.817   9.173  68.571  1.00  0.00    -0.063 C  
HETATM    9  C   UNL     1      -7.024   9.091  67.087  1.00  0.00    -0.078 C  
HETATM   10  C   UNL     1      -8.387   8.385  66.870  1.00  0.00    -0.106 C  
HETATM   11  C   UNL     1      -8.627   7.536  68.200  1.00  0.00    -0.123 C  
HETATM   12  C   UNL     1      -8.543   7.524  65.580  1.00  0.00    -0.114 C  
HETATM   13  C   UNL     1      -7.778   6.194  65.617  1.00  0.00    -0.092 C  
HETATM   14  N   UNL     1      -8.302   8.469  64.444  1.00  0.00    -0.148 NA 
HETATM   15  C   UNL     1      -9.685  10.748  66.959  1.00  0.00    -0.205 A  
HETATM   16  O   UNL     1      -7.900   5.494  64.346  1.00  0.00    -0.095 OA 
HETATM   17  C   UNL     1      -8.374   5.240  66.712  1.00  0.00    -0.108 C  
HETATM   18  C   UNL     1      -8.612   8.149  63.054  1.00  0.00     0.164 C  
HETATM   19  C   UNL     1      -9.033   9.612  64.928  1.00  0.00    -0.217 A  
HETATM   20  C   UNL     1     -10.087  11.896  66.183  1.00  0.00    -0.257 A  
HETATM   21  C   UNL     1      -9.186   9.603  66.335  1.00  0.00    -0.205 A  
HETATM   22  C   UNL     1     -10.005  11.809  64.755  1.00  0.00    -0.243 A  
HETATM   23  C   UNL     1      -9.462  10.681  64.151  1.00  0.00    -0.327 A  
HETATM   24  H   UNL     1      -7.426   4.670  64.369  1.00  0.00     0.000 HD 
BRANCH  13  25
HETATM   25  C   UNL     1      -6.256   6.412  65.780  1.00  0.00    -0.038 C  
HETATM   26  O   UNL     1      -5.506   5.744  66.481  1.00  0.00    -0.012 OA 
BRANCH  25  27
HETATM   27  O   UNL     1      -5.874   7.496  65.037  1.00  0.00    -0.037 OA 
HETATM   28  C   UNL     1      -5.245   7.264  63.770  1.00  0.00    -0.029 C  
ENDBRANCH  25  27
ENDBRANCH  13  25
BRANCH  17  29
HETATM   29  O   UNL     1      -9.442   4.362  66.185  1.00  0.00    -0.146 OA 
BRANCH  29  30
HETATM   30  C   UNL     1      -9.219   3.216  65.504  1.00  0.00    -0.145 C  
HETATM   31  C   UNL     1      -8.219   2.347  66.217  1.00  0.00    -0.088 C  
HETATM   32  O   UNL     1      -9.774   2.887  64.464  1.00  0.00    -0.153 OA 
ENDBRANCH  29  30
ENDBRANCH  17  29
BRANCH  22  33
HETATM   33  O   UNL     1     -10.486  12.831  63.991  1.00  0.00    -0.406 OA 
HETATM   34  C   UNL     1     -11.435  12.628  62.956  1.00  0.00     0.168 C  
ENDBRANCH  22  33
BRANCH  20  35
HETATM   35  C   UNL     1     -10.613  13.208  66.930  1.00  0.00    -0.265 C  
HETATM   36  C   UNL     1      -7.987  15.637  68.455  1.00  0.00    -0.138 A  
HETATM   37  C   UNL     1     -11.445  12.678  68.188  1.00  0.00    -0.359 C  
HETATM   38  C   UNL     1     -11.646  13.747  69.249  1.00  0.00    -0.362 C  
HETATM   39  C   UNL     1      -7.266  16.629  69.163  1.00  0.00    -0.220 A  
HETATM   40  C   UNL     1      -5.873  16.543  69.281  1.00  0.00    -0.154 A  
HETATM   41  C   UNL     1      -5.180  15.496  68.688  1.00  0.00    -0.094 A  
HETATM   42  C   UNL     1     -12.179  13.468  70.657  1.00  0.00    -0.434 C  
HETATM   43  C   UNL     1     -12.706  14.797  71.291  1.00  0.00    -0.407 C  
HETATM   44  C   UNL     1      -5.855  14.530  67.939  1.00  0.00    -0.137 A  
HETATM   45  C   UNL     1     -12.106  16.111  70.678  1.00  0.00    -0.075 C  
HETATM   46  C   UNL     1      -7.249  14.634  67.844  1.00  0.00    -0.159 A  
HETATM   47  H   UNL     1      -7.870  13.130  66.495  1.00  0.00     0.000 HD 
HETATM   48  N   UNL     1     -11.815  16.085  69.245  1.00  0.00    -0.315 NA 
HETATM   49  N   UNL     1      -8.140  13.857  67.156  1.00  0.00    -0.132 NA 
HETATM   50  C   UNL     1     -10.441  16.422  68.791  1.00  0.00    -0.300 C  
HETATM   51  C   UNL     1     -12.400  14.928  68.651  1.00  0.00     0.058 C  
HETATM   52  C   UNL     1      -9.406  15.393  68.215  1.00  0.00    -0.193 A  
HETATM   53  C   UNL     1      -9.451  14.175  67.461  1.00  0.00    -0.210 A  
BRANCH  35  54
HETATM   54  C   UNL     1     -11.417  14.107  65.900  1.00  0.00    -0.338 C  
HETATM   55  O   UNL     1     -12.585  13.938  65.575  1.00  0.00    -0.489 OA 
BRANCH  54  56
HETATM   56  O   UNL     1     -10.610  15.109  65.386  1.00  0.00    -0.331 OA 
HETATM   57  C   UNL     1     -11.280  16.306  64.974  1.00  0.00    -0.176 C  
ENDBRANCH  54  56
ENDBRANCH  35  54
BRANCH  43  58
HETATM   58  C   UNL     1     -12.591  14.810  72.815  1.00  0.00    -0.366 C  
HETATM   59  C   UNL     1     -13.451  15.862  73.494  1.00  0.00    -0.384 C  
HETATM   60  F   UNL     1     -11.298  15.008  73.181  1.00  0.00    -0.448 F  
HETATM   61  F   UNL     1     -12.946  13.588  73.293  1.00  0.00    -0.337 F  
ENDBRANCH  43  58
ENDBRANCH  20  35
ENDBRANCH   2   3
TORSDOF 10
ENDMDL
MODEL        5
REMARK 921   NORMALIZED FREE ENERGY PREDICTED BY IDOCK:   -4.45 KCAL/MOL
REMARK 922        TOTAL FREE ENERGY PREDICTED BY IDOCK:   -7.04 KCAL/MOL
REMARK 923 INTER-LIGAND FREE ENERGY PREDICTED BY IDOCK:   -6.59 KCAL/MOL
REMARK 924 INTRA-LIGAND FREE ENERGY PREDICTED BY IDOCK:   -0.45 KCAL/MOL
REMARK 927      BINDING AFFINITY PREDICTED BY RF-SCORE:    0.00 PKD
ROOT
HETATM    1  C   UNL     1      -9.164   7.645  73.417  1.00  0.00    -0.311 C  
HETATM    2  C   UNL     1      -8.554   6.297  72.916  1.00  0.00    -0.122 C  
ENDROOT
BRANCH   2   3
HETATM    3  C   UNL     1      -8.097   6.256  71.371  1.00  0.00    -0.117 C  
HETATM    4  C   UNL     1      -6.723   5.571  71.602  1.00  0.00    -0.057 C  
HETATM    5  C   UNL     1      -5.730   6.388  72.009  1.00  0.00    -0.036 C  
HETATM    6  C   UNL     1      -5.286   7.185  70.844  1.00  0.00    -0.027 C  
HETATM    7  N   UNL     1      -6.335   8.151  70.474  1.00  0.00    -0.036 NA 
HETATM    8  C   UNL     1      -6.043   8.580  69.109  1.00  0.00    -0.042 C  
HETATM    9  C   UNL     1      -7.238   8.264  68.259  1.00  0.00    -0.093 C  
HETATM   10  C   UNL     1      -8.445   8.137  69.223  1.00  0.00    -0.134 C  
HETATM   11  C   UNL     1      -7.805   7.771  70.638  1.00  0.00    -0.096 C  
HETATM   12  C   UNL     1      -9.581   7.152  68.813  1.00  0.00    -0.144 C  
HETATM   13  C   UNL     1      -9.211   5.669  68.965  1.00  0.00    -0.122 C  
HETATM   14  N   UNL     1     -10.071   7.645  67.487  1.00  0.00    -0.183 NA 
HETATM   15  C   UNL     1      -8.952  10.779  69.021  1.00  0.00    -0.141 A  
HETATM   16  O   UNL     1     -10.286   4.817  68.478  1.00  0.00    -0.098 OA 
HETATM   17  C   UNL     1      -8.998   5.301  70.476  1.00  0.00    -0.136 C  
HETATM   18  C   UNL     1     -11.307   7.180  66.864  1.00  0.00     0.547 C  
HETATM   19  C   UNL     1     -10.079   9.061  67.750  1.00  0.00    -0.208 A  
HETATM   20  C   UNL     1      -9.611  11.790  68.232  1.00  0.00    -0.199 A  
HETATM   21  C   UNL     1      -9.204   9.423  68.801  1.00  0.00    -0.132 A  
HETATM   22  C   UNL     1     -10.565  11.367  67.251  1.00  0.00    -0.227 A  
HETATM   23  C   UNL     1     -10.770  10.013  67.010  1.00  0.00    -0.248 A  
HETATM   24  H   UNL     1     -10.057   3.900  68.571  1.00  0.00     0.000 HD 
BRANCH  13  25
HETATM   25  C   UNL     1      -8.000   5.288  68.082  1.00  0.00    -0.091 C  
HETATM   26  O   UNL     1      -6.859   5.082  68.478  1.00  0.00    -0.052 OA 
BRANCH  25  27
HETATM   27  O   UNL     1      -8.394   5.240  66.772  1.00  0.00    -0.108 OA 
HETATM   28  C   UNL     1      -8.551   3.956  66.155  1.00  0.00    -0.112 C  
ENDBRANCH  25  27
ENDBRANCH  13  25
BRANCH  17  29
HETATM   29  O   UNL     1     -10.241   4.835  71.131  1.00  0.00    -0.202 OA 
BRANCH  29  30
HETATM   30  C   UNL     1     -10.338   3.698  71.855  1.00  0.00     0.051 C  
HETATM   31  C   UNL     1      -9.680   2.546  71.147  1.00  0.00    -0.180 C  
HETATM   32  O   UNL     1     -10.851   3.602  72.963  1.00  0.00    -0.169 OA 
ENDBRANCH  29  30
ENDBRANCH  17  29
BRANCH  22  33
HETATM   33  O   UNL     1     -11.290  12.300  66.571  1.00  0.00    -0.311 OA 
HETATM   34  C   UNL     1     -11.523  12.217  65.174  1.00  0.00    -0.323 C  
ENDBRANCH  22  33
BRANCH  20  35
HETATM   35  C   UNL     1      -9.268  13.333  68.479  1.00  0.00    -0.073 C  
HETATM   36  C   UNL     1     -11.427  15.312  71.037  1.00  0.00    -0.396 A  
HETATM   37  C   UNL     1      -9.539  14.059  67.082  1.00  0.00    -0.245 C  
HETATM   38  C   UNL     1      -9.697  15.564  67.225  1.00  0.00    -0.218 C  
HETATM   39  C   UNL     1     -12.094  16.274  71.835  1.00  0.00    -0.447 A  
HETATM   40  C   UNL     1     -13.237  15.920  72.562  1.00  0.00    -0.521 A  
HETATM   41  C   UNL     1     -13.719  14.618  72.527  1.00  0.00    -0.572 A  
HETATM   42  C   UNL     1     -10.207  16.482  66.111  1.00  0.00    -0.360 C  
HETATM   43  C   UNL     1      -9.792  17.958  66.418  1.00  0.00    -0.339 C  
HETATM   44  C   UNL     1     -13.054  13.633  71.793  1.00  0.00    -0.468 A  
HETATM   45  C   UNL     1      -9.495  18.267  67.928  1.00  0.00    -0.282 C  
HETATM   46  C   UNL     1     -11.918  14.015  71.067  1.00  0.00    -0.233 A  
HETATM   47  H   UNL     1     -11.100  12.241  70.261  1.00  0.00     0.000 HD 
HETATM   48  N   UNL     1      -8.879  17.190  68.701  1.00  0.00    -0.270 NA 
HETATM   49  N   UNL     1     -11.071  13.259  70.305  1.00  0.00     0.490 NA 
HETATM   50  C   UNL     1      -9.546  16.737  69.949  1.00  0.00     0.693 C  
HETATM   51  C   UNL     1      -8.430  16.157  67.826  1.00  0.00    -0.158 C  
HETATM   52  C   UNL     1     -10.289  15.365  70.124  1.00  0.00    -0.258 A  
HETATM   53  C   UNL     1     -10.170  14.038  69.600  1.00  0.00     0.456 A  
BRANCH  35  54
HETATM   54  C   UNL     1      -7.792  13.454  69.046  1.00  0.00     0.187 C  
HETATM   55  O   UNL     1      -7.489  13.906  70.142  1.00  0.00     0.583 OA 
BRANCH  54  56
HETATM   56  O   UNL     1      -6.869  12.998  68.117  1.00  0.00    -0.081 OA 
HETATM   57  C   UNL     1      -5.681  13.785  67.973  1.00  0.00    -0.132 C  
ENDBRANCH  54  56
ENDBRANCH  35  54
BRANCH  43  58
HETATM   58  C   UNL     1     -10.771  18.979  65.840  1.00  0.00    -0.327 C  
HETATM   59  C   UNL     1     -10.134  20.305  65.458  1.00  0.00    -0.054 C  
HETATM   60  F   UNL     1     -11.768  19.221  66.730  1.00  0.00     0.147 F  
HETATM   61  F   UNL     1     -11.359  18.448  64.734  1.00  0.00     0.151 F  
ENDBRANCH  43  58
ENDBRANCH  20  35
ENDBRANCH   2   3
TORSDOF 10
ENDMDL
MODEL        6
REMARK 921   NORMALIZED FREE ENERGY PREDICTED BY IDOCK:   -3.78 KCAL/MOL
REMARK 922        TOTAL FREE ENERGY PREDICTED BY IDOCK:   -5.98 KCAL/MOL
REMARK 923 INTER-LIGAND FREE ENERGY PREDICTED BY IDOCK:   -6.76 KCAL/MOL
REMARK 924 INTRA-LIGAND FREE ENERGY PREDICTED BY IDOCK:    0.79 KCAL/MOL
REMARK 927      BINDING AFFINITY PREDICTED BY RF-SCORE:    0.00 PKD
ROOT
HETATM    1  C   UNL     1     -10.428   4.520  67.022  1.00  0.00     0.117 C  
HETATM    2  C   UNL     1     -10.744   5.966  67.521  1.00  0.00    -0.359 C  
ENDROOT
BRANCH   2   3
HETATM    3  C   UNL     1     -10.036   6.412  68.899  1.00  0.00    -0.168 C  
HETATM    4  C   UNL     1     -10.931   5.571  69.848  1.00  0.00    -0.192 C  
HETATM    5  C   UNL     1     -12.133   6.109  70.140  1.00  0.00     0.573 C  
HETATM    6  C   UNL     1     -11.918   7.212  71.103  1.00  0.00    -0.342 C  
HETATM    7  N   UNL     1     -11.242   8.335  70.430  1.00  0.00    -0.251 NA 
HETATM    8  C   UNL     1     -10.680   9.174  71.485  1.00  0.00    -0.367 C  
HETATM    9  C   UNL     1      -9.200   9.273  71.260  1.00  0.00    -0.161 C  
HETATM   10  C   UNL     1      -8.958   8.934  69.766  1.00  0.00    -0.149 C  
HETATM   11  C   UNL     1     -10.217   8.054  69.335  1.00  0.00    -0.210 C  
HETATM   12  C   UNL     1      -7.605   8.251  69.404  1.00  0.00    -0.096 C  
HETATM   13  C   UNL     1      -7.511   6.779  69.829  1.00  0.00    -0.091 C  
HETATM   14  N   UNL     1      -6.546   9.206  69.861  1.00  0.00    -0.045 NA 
HETATM   15  C   UNL     1      -9.276  11.521  69.072  1.00  0.00     0.110 A  
HETATM   16  O   UNL     1      -6.190   6.241  69.539  1.00  0.00    -0.031 OA 
HETATM   17  C   UNL     1      -8.536   5.902  69.026  1.00  0.00    -0.114 C  
HETATM   18  C   UNL     1      -5.142   9.092  69.478  1.00  0.00    -0.035 C  
HETATM   19  C   UNL     1      -7.142  10.444  69.427  1.00  0.00    -0.102 A  
HETATM   20  C   UNL     1      -8.609  12.794  68.954  1.00  0.00     0.316 A  
HETATM   21  C   UNL     1      -8.546  10.349  69.280  1.00  0.00    -0.159 A  
HETATM   22  C   UNL     1      -7.178  12.816  69.007  1.00  0.00     0.016 A  
HETATM   23  C   UNL     1      -6.468  11.647  69.263  1.00  0.00    -0.105 A  
HETATM   24  H   UNL     1      -6.132   5.330  69.801  1.00  0.00     0.000 HD 
BRANCH  13  25
HETATM   25  C   UNL     1      -7.655   6.613  71.359  1.00  0.00    -0.093 C  
HETATM   26  O   UNL     1      -8.640   6.179  71.945  1.00  0.00    -0.131 OA 
BRANCH  25  27
HETATM   27  O   UNL     1      -6.513   7.056  71.970  1.00  0.00    -0.051 OA 
HETATM   28  C   UNL     1      -6.613   7.579  73.301  1.00  0.00    -0.066 C  
ENDBRANCH  25  27
ENDBRANCH  13  25
BRANCH  17  29
HETATM   29  O   UNL     1      -7.964   5.353  67.777  1.00  0.00    -0.099 OA 
BRANCH  29  30
HETATM   30  C   UNL     1      -7.082   4.330  67.729  1.00  0.00    -0.064 C  
HETATM   31  C   UNL     1      -6.275   4.370  66.460  1.00  0.00    -0.032 C  
HETATM   32  O   UNL     1      -6.912   3.495  68.607  1.00  0.00    -0.048 OA 
ENDBRANCH  29  30
ENDBRANCH  17  29
BRANCH  22  33
HETATM   33  O   UNL     1      -6.513  13.985  68.782  1.00  0.00    -0.083 OA 
HETATM   34  C   UNL     1      -5.285  14.300  69.418  1.00  0.00    -0.086 C  
ENDBRANCH  22  33
BRANCH  20  35
HETATM   35  C   UNL     1      -9.476  14.125  68.760  1.00  0.00    -0.102 C  
HETATM   36  C   UNL     1     -11.526  14.523  65.480  1.00  0.00    -0.343 A  
HETATM   37  C   UNL     1      -8.417  15.321  68.717  1.00  0.00    -0.181 C  
HETATM   38  C   UNL     1      -8.991  16.589  68.106  1.00  0.00    -0.207 C  
HETATM   39  C   UNL     1     -12.285  14.958  64.365  1.00  0.00    -0.399 A  
HETATM   40  C   UNL     1     -12.355  14.173  63.208  1.00  0.00     0.516 A  
HETATM   41  C   UNL     1     -11.700  12.950  63.145  1.00  0.00    -0.210 A  
HETATM   42  C   UNL     1      -8.151  17.805  67.707  1.00  0.00    -0.226 C  
HETATM   43  C   UNL     1      -9.074  19.061  67.580  1.00  0.00    -0.327 C  
HETATM   44  C   UNL     1     -10.987  12.468  64.245  1.00  0.00    -0.401 A  
HETATM   45  C   UNL     1     -10.590  18.749  67.322  1.00  0.00    -0.442 C  
HETATM   46  C   UNL     1     -10.925  13.277  65.388  1.00  0.00    -0.284 A  
HETATM   47  H   UNL     1      -9.940  12.139  66.872  1.00  0.00     0.000 HD 
HETATM   48  N   UNL     1     -11.125  17.549  67.962  1.00  0.00    -0.126 NA 
HETATM   49  N   UNL     1     -10.335  13.038  66.598  1.00  0.00    -0.256 NA 
HETATM   50  C   UNL     1     -11.790  16.525  67.115  1.00  0.00     1.138 C  
HETATM   51  C   UNL     1     -10.192  17.052  68.920  1.00  0.00    -0.322 C  
HETATM   52  C   UNL     1     -11.192  15.115  66.771  1.00  0.00    -0.285 A  
HETATM   53  C   UNL     1     -10.336  14.160  67.408  1.00  0.00    -0.256 A  
BRANCH  35  54
HETATM   54  C   UNL     1     -10.566  14.208  69.908  1.00  0.00     0.330 C  
HETATM   55  O   UNL     1     -10.453  14.848  70.946  1.00  0.00     0.109 OA 
BRANCH  54  56
HETATM   56  O   UNL     1     -11.671  13.431  69.596  1.00  0.00    -0.294 OA 
HETATM   57  C   UNL     1     -12.303  12.766  70.696  1.00  0.00    -0.297 C  
ENDBRANCH  54  56
ENDBRANCH  35  54
BRANCH  43  58
HETATM   58  C   UNL     1      -8.550  20.078  66.567  1.00  0.00    -0.309 C  
HETATM   59  C   UNL     1      -7.331  19.609  65.789  1.00  0.00    -0.320 C  
HETATM   60  F   UNL     1      -8.239  21.241  67.196  1.00  0.00    -0.281 F  
HETATM   61  F   UNL     1      -9.540  20.368  65.682  1.00  0.00    -0.397 F  
ENDBRANCH  43  58
ENDBRANCH  20  35
ENDBRANCH   2   3
TORSDOF 10
ENDMDL
MODEL        7
REMARK 921   NORMALIZED FREE ENERGY PREDICTED BY IDOCK:   -3.78 KCAL/MOL
REMARK 922        TOTAL FREE ENERGY PREDICTED BY IDOCK:   -5.97 KCAL/MOL
REMARK 923 INTER-LIGAND FREE ENERGY PREDICTED BY IDOCK:   -5.36 KCAL/MOL
REMARK 924 INTRA-LIGAND FREE ENERGY PREDICTED BY IDOCK:   -0.61 KCAL/MOL
REMARK 927      BINDING AFFINITY PREDICTED BY RF-SCORE:    0.00 PKD
ROOT
HETATM    1  C   UNL     1      -5.809   7.932  71.648  1.00  0.00    -0.035 C  
HETATM    2  C   UNL     1      -6.254   6.514  71.166  1.00  0.00    -0.040 C  
ENDROOT
BRANCH   2   3
HETATM    3  C   UNL     1      -7.687   6.431  70.432  1.00  0.00    -0.098 C  
HETATM    4  C   UNL     1      -7.382   5.175  69.572  1.00  0.00    -0.057 C  
HETATM    5  C   UNL     1      -6.674   5.401  68.447  1.00  0.00    -0.054 C  
HETATM    6  C   UNL     1      -7.578   6.024  67.455  1.00  0.00    -0.090 C  
HETATM    7  N   UNL     1      -7.911   7.396  67.879  1.00  0.00    -0.116 NA 
HETATM    8  C   UNL     1      -9.103   7.784  67.132  1.00  0.00    -0.134 C  
HETATM    9  C   UNL     1     -10.175   8.139  68.120  1.00  0.00    -0.253 C  
HETATM   10  C   UNL     1      -9.454   8.477  69.450  1.00  0.00    -0.161 C  
HETATM   11  C   UNL     1      -8.055   7.713  69.366  1.00  0.00    -0.127 C  
HETATM   12  C   UNL     1     -10.220   8.167  70.772  1.00  0.00    -0.194 C  
HETATM   13  C   UNL     1     -10.305   6.673  71.112  1.00  0.00    -0.206 C  
HETATM   14  N   UNL     1     -11.484   8.966  70.691  1.00  0.00    -0.263 NA 
HETATM   15  C   UNL     1      -9.212  11.063  68.724  1.00  0.00    -0.167 A  
HETATM   16  O   UNL     1     -11.110   6.461  72.307  1.00  0.00    -0.240 OA 
HETATM   17  C   UNL     1      -8.880   6.092  71.426  1.00  0.00    -0.139 C  
HETATM   18  C   UNL     1     -12.370   9.184  71.830  1.00  0.00    -0.372 C  
HETATM   19  C   UNL     1     -10.954  10.193  70.155  1.00  0.00    -0.316 A  
HETATM   20  C   UNL     1      -9.882  12.341  68.692  1.00  0.00    -0.098 A  
HETATM   21  C   UNL     1      -9.730  10.004  69.472  1.00  0.00    -0.253 A  
HETATM   22  C   UNL     1     -11.063  12.505  69.486  1.00  0.00    -0.006 A  
HETATM   23  C   UNL     1     -11.593  11.427  70.187  1.00  0.00    -0.368 A  
HETATM   24  H   UNL     1     -11.162   5.536  72.518  1.00  0.00     0.000 HD 
BRANCH  13  25
HETATM   25  C   UNL     1     -11.045   5.875  70.014  1.00  0.00    -0.341 C  
HETATM   26  O   UNL     1     -12.170   6.112  69.590  1.00  0.00     0.559 OA 
BRANCH  25  27
HETATM   27  O   UNL     1     -10.256   4.836  69.603  1.00  0.00    -0.236 OA 
HETATM   28  C   UNL     1     -10.451   4.315  68.282  1.00  0.00     0.742 C  
ENDBRANCH  25  27
ENDBRANCH  13  25
BRANCH  17  29
HETATM   29  O   UNL     1      -8.530   6.179  72.861  1.00  0.00    -0.120 OA 
BRANCH  29  30
HETATM   30  C   UNL     1      -8.773   5.202  73.763  1.00  0.00    -0.116 C  
HETATM   31  C   UNL     1      -7.504   4.489  74.144  1.00  0.00    -0.074 C  
HETATM   32  O   UNL     1      -9.864   4.940  74.253  1.00  0.00    -0.145 OA 
ENDBRANCH  29  30
ENDBRANCH  17  29
BRANCH  22  33
HETATM   33  O   UNL     1     -11.653  13.732  69.570  1.00  0.00    -0.269 OA 
HETATM   34  C   UNL     1     -12.718  14.007  70.464  1.00  0.00    -0.280 C  
ENDBRANCH  22  33
BRANCH  20  35
HETATM   35  C   UNL     1      -9.288  13.521  67.791  1.00  0.00    -0.213 C  
HETATM   36  C   UNL     1      -6.582  15.841  69.346  1.00  0.00    -0.174 A  
HETATM   37  C   UNL     1     -10.522  14.492  67.493  1.00  0.00    -0.253 C  
HETATM   38  C   UNL     1     -10.083  15.874  67.038  1.00  0.00    -0.268 C  
HETATM   39  C   UNL     1      -5.665  16.867  69.683  1.00  0.00    -0.204 A  
HETATM   40  C   UNL     1      -5.136  16.946  70.976  1.00  0.00    -0.166 A  
HETATM   41  C   UNL     1      -5.485  16.007  71.939  1.00  0.00     0.486 A  
HETATM   42  C   UNL     1     -11.023  17.078  66.923  1.00  0.00     0.120 C  
HETATM   43  C   UNL     1     -10.378  18.159  65.995  1.00  0.00    -0.360 C  
HETATM   44  C   UNL     1      -6.344  14.952  71.625  1.00  0.00     0.736 A  
HETATM   45  C   UNL     1      -8.817  18.077  65.862  1.00  0.00     0.202 C  
HETATM   46  C   UNL     1      -6.868  14.902  70.325  1.00  0.00     0.012 A  
HETATM   47  H   UNL     1      -7.949  13.091  70.188  1.00  0.00     0.000 HD 
HETATM   48  N   UNL     1      -8.232  16.738  65.889  1.00  0.00    -0.411 NA 
HETATM   49  N   UNL     1      -7.691  13.974  69.749  1.00  0.00     0.465 NA 
HETATM   50  C   UNL     1      -7.173  16.442  66.888  1.00  0.00    -0.231 C  
HETATM   51  C   UNL     1      -9.259  15.756  65.763  1.00  0.00    -0.219 C  
HETATM   52  C   UNL     1      -7.356  15.526  68.149  1.00  0.00    -0.121 A  
HETATM   53  C   UNL     1      -8.132  14.375  68.501  1.00  0.00    -0.146 A  
BRANCH  35  54
HETATM   54  C   UNL     1      -8.577  12.898  66.519  1.00  0.00     0.121 C  
HETATM   55  O   UNL     1      -7.386  12.623  66.437  1.00  0.00     0.615 OA 
BRANCH  54  56
HETATM   56  O   UNL     1      -9.483  12.723  65.484  1.00  0.00    -0.065 OA 
HETATM   57  C   UNL     1      -9.358  11.506  64.739  1.00  0.00    -0.042 C  
ENDBRANCH  54  56
ENDBRANCH  35  54
BRANCH  43  58
HETATM   58  C   UNL     1     -10.818  19.579  66.351  1.00  0.00    -0.340 C  
HETATM   59  C   UNL     1      -9.704  20.456  66.899  1.00  0.00    -0.567 C  
HETATM   60  F   UNL     1     -11.823  19.538  67.263  1.00  0.00     0.036 F  
HETATM   61  F   UNL     1     -11.327  20.173  65.239  1.00  0.00    -0.305 F  
ENDBRANCH  43  58
ENDBRANCH  20  35
ENDBRANCH   2   3
TORSDOF 10
ENDMDL
MODEL        8
REMARK 921   NORMALIZED FREE ENERGY PREDICTED BY IDOCK:   -3.70 KCAL/MOL
REMARK 922        TOTAL FREE ENERGY PREDICTED BY IDOCK:   -5.84 KCAL/MOL
REMARK 923 INTER-LIGAND FREE ENERGY PREDICTED BY IDOCK:   -6.37 KCAL/MOL
REMARK 924 INTRA-LIGAND FREE ENERGY PREDICTED BY IDOCK:    0.54 KCAL/MOL
REMARK 927      BINDING AFFINITY PREDICTED BY RF-SCORE:    0.00 PKD
ROOT
HETATM    1  C   UNL     1      -8.854   4.273  62.330  1.00  0.00    -0.103 C  
HETATM    2  C   UNL     1      -8.377   5.369  63.337  1.00  0.00    -0.098 C  
ENDROOT
BRANCH   2   3
HETATM    3  C   UNL     1      -8.465   4.983  64.899  1.00  0.00    -0.147 C  
HETATM    4  C   UNL     1      -9.439   3.785  64.741  1.00  0.00    -0.166 C  
HETATM    5  C   UNL     1     -10.742   4.111  64.615  1.00  0.00    -0.155 C  
HETATM    6  C   UNL     1     -11.244   4.514  65.947  1.00  0.00     0.949 C  
HETATM    7  N   UNL     1     -10.649   5.806  66.332  1.00  0.00    -0.203 NA 
HETATM    8  C   UNL     1     -10.822   5.928  67.777  1.00  0.00    -0.235 C  
HETATM    9  C   UNL     1      -9.465   6.097  68.394  1.00  0.00    -0.119 C  
HETATM   10  C   UNL     1      -8.530   6.611  67.270  1.00  0.00    -0.120 C  
HETATM   11  C   UNL     1      -9.219   6.134  65.912  1.00  0.00    -0.045 C  
HETATM   12  C   UNL     1      -7.029   6.198  67.351  1.00  0.00    -0.069 C  
HETATM   13  C   UNL     1      -6.763   4.728  67.000  1.00  0.00    -0.051 C  
HETATM   14  N   UNL     1      -6.544   6.730  68.664  1.00  0.00    -0.049 NA 
HETATM   15  C   UNL     1      -9.153   9.171  67.848  1.00  0.00    -0.134 A  
HETATM   16  O   UNL     1      -5.357   4.399  67.187  1.00  0.00    -0.011 OA 
HETATM   17  C   UNL     1      -7.090   4.448  65.490  1.00  0.00    -0.067 C  
HETATM   18  C   UNL     1      -5.133   6.805  69.027  1.00  0.00    -0.013 C  
HETATM   19  C   UNL     1      -7.184   8.020  68.647  1.00  0.00    -0.081 A  
HETATM   20  C   UNL     1      -8.841  10.290  68.703  1.00  0.00    -0.137 A  
HETATM   21  C   UNL     1      -8.317   8.054  67.799  1.00  0.00    -0.129 A  
HETATM   22  C   UNL     1      -7.627  10.244  69.462  1.00  0.00    -0.150 A  
HETATM   23  C   UNL     1      -6.829   9.105  69.439  1.00  0.00    -0.048 A  
HETATM   24  H   UNL     1      -5.192   3.489  66.970  1.00  0.00     0.000 HD 
BRANCH  13  25
HETATM   25  C   UNL     1      -7.503   3.767  67.958  1.00  0.00    -0.062 C  
HETATM   26  O   UNL     1      -8.528   3.145  67.702  1.00  0.00    -0.084 OA 
BRANCH  25  27
HETATM   27  O   UNL     1      -6.849   3.736  69.160  1.00  0.00    -0.044 OA 
HETATM   28  C   UNL     1      -7.589   3.356  70.328  1.00  0.00    -0.044 C  
ENDBRANCH  25  27
ENDBRANCH  13  25
BRANCH  17  29
HETATM   29  O   UNL     1      -5.921   4.646  64.605  1.00  0.00    -0.017 OA 
BRANCH  29  30
HETATM   30  C   UNL     1      -5.465   3.723  63.730  1.00  0.00    -0.013 C  
HETATM   31  C   UNL     1      -5.296   2.383  64.393  1.00  0.00    -0.008 C  
HETATM   32  O   UNL     1      -5.250   3.915  62.540  1.00  0.00    -0.005 OA 
ENDBRANCH  29  30
ENDBRANCH  17  29
BRANCH  22  33
HETATM   33  O   UNL     1      -7.245  11.333  70.188  1.00  0.00     0.068 OA 
HETATM   34  C   UNL     1      -5.953  11.908  70.078  1.00  0.00    -0.159 C  
ENDBRANCH  22  33
BRANCH  20  35
HETATM   35  C   UNL     1      -9.842  11.536  68.770  1.00  0.00    -0.153 C  
HETATM   36  C   UNL     1     -11.542  12.710  65.476  1.00  0.00    -0.409 A  
HETATM   37  C   UNL     1      -8.946  12.779  69.222  1.00  0.00     0.973 C  
HETATM   38  C   UNL     1      -9.603  14.116  68.919  1.00  0.00    -0.053 C  
HETATM   39  C   UNL     1     -12.219  13.388  64.432  1.00  0.00    -0.444 A  
HETATM   40  C   UNL     1     -12.057  12.980  63.103  1.00  0.00    -0.324 A  
HETATM   41  C   UNL     1     -11.249  11.894  62.792  1.00  0.00     0.492 A  
HETATM   42  C   UNL     1      -8.884  15.465  69.007  1.00  0.00    -0.231 C  
HETATM   43  C   UNL     1      -9.939  16.615  69.108  1.00  0.00    -0.263 C  
HETATM   44  C   UNL     1     -10.611  11.171  63.801  1.00  0.00    -0.422 A  
HETATM   45  C   UNL     1     -11.364  16.262  68.555  1.00  0.00    -0.330 C  
HETATM   46  C   UNL     1     -10.781  11.606  65.123  1.00  0.00    -0.296 A  
HETATM   47  H   UNL     1      -9.834  10.169  66.350  1.00  0.00     0.000 HD 
HETATM   48  N   UNL     1     -11.811  14.883  68.744  1.00  0.00    -0.313 NA 
HETATM   49  N   UNL     1     -10.306  11.070  66.288  1.00  0.00    -0.245 NA 
HETATM   50  C   UNL     1     -12.240  14.104  67.554  1.00  0.00    -0.223 C  
HETATM   51  C   UNL     1     -10.937  14.208  69.647  1.00  0.00    -0.081 C  
HETATM   52  C   UNL     1     -11.434  12.918  66.916  1.00  0.00    -0.393 A  
HETATM   53  C   UNL     1     -10.541  11.896  67.373  1.00  0.00    -0.225 A  
BRANCH  35  54
HETATM   54  C   UNL     1     -11.057  11.177  69.724  1.00  0.00    -0.202 C  
HETATM   55  O   UNL     1     -12.234  11.419  69.492  1.00  0.00    -0.296 OA 
BRANCH  54  56
HETATM   56  O   UNL     1     -10.608  10.567  70.885  1.00  0.00     0.261 OA 
HETATM   57  C   UNL     1     -11.138   9.264  71.156  1.00  0.00    -0.341 C  
ENDBRANCH  54  56
ENDBRANCH  35  54
BRANCH  43  58
HETATM   58  C   UNL     1      -9.437  17.929  68.512  1.00  0.00    -0.313 C  
HETATM   59  C   UNL     1      -8.927  17.810  67.085  1.00  0.00    -0.249 C  
HETATM   60  F   UNL     1      -8.442  18.438  69.283  1.00  0.00    -0.159 F  
HETATM   61  F   UNL     1     -10.448  18.838  68.534  1.00  0.00    -0.386 F  
ENDBRANCH  43  58
ENDBRANCH  20  35
ENDBRANCH   2   3
TORSDOF 10
ENDMDL
MODEL        9
REMARK 921   NORMALIZED FREE ENERGY PREDICTED BY IDOCK:   -3.46 KCAL/MOL
REMARK 922        TOTAL FREE ENERGY PREDICTED BY IDOCK:   -5.47 KCAL/MOL
REMARK 923 INTER-LIGAND FREE ENERGY PREDICTED BY IDOCK:   -7.43 KCAL/MOL
REMARK 924 INTRA-LIGAND FREE ENERGY PREDICTED BY IDOCK:    1.96 KCAL/MOL
REMARK 927      BINDING AFFINITY PREDICTED BY RF-SCORE:    0.00 PKD
ROOT
HETATM    1  C   UNL     1     -12.373   6.117  72.221  1.00  0.00    -0.106 C  
HETATM    2  C   UNL     1     -11.286   5.027  72.485  1.00  0.00    -0.183 C  
ENDROOT
BRANCH   2   3
HETATM    3  C   UNL     1      -9.757   5.476  72.242  1.00  0.00    -0.181 C  
HETATM    4  C   UNL     1      -9.267   5.260  73.700  1.00  0.00    -0.129 C  
HETATM    5  C   UNL     1      -9.559   6.255  74.562  1.00  0.00    -0.277 C  
HETATM    6  C   UNL     1      -8.646   7.386  74.282  1.00  0.00    -0.218 C  
HETATM    7  N   UNL     1      -8.997   7.999  72.989  1.00  0.00    -0.220 NA 
HETATM    8  C   UNL     1      -7.838   8.784  72.573  1.00  0.00     0.167 C  
HETATM    9  C   UNL     1      -7.391   8.276  71.234  1.00  0.00    -0.078 C  
HETATM   10  C   UNL     1      -8.608   7.547  70.610  1.00  0.00    -0.137 C  
HETATM   11  C   UNL     1      -9.514   7.121  71.852  1.00  0.00    -0.146 C  
HETATM   12  C   UNL     1      -8.306   6.350  69.658  1.00  0.00    -0.126 C  
HETATM   13  C   UNL     1      -7.823   5.082  70.377  1.00  0.00    -0.073 C  
HETATM   14  N   UNL     1      -7.468   6.922  68.557  1.00  0.00    -0.093 NA 
HETATM   15  C   UNL     1      -9.477   9.842  69.491  1.00  0.00    -0.226 A  
HETATM   16  O   UNL     1      -7.477   4.045  69.417  1.00  0.00    -0.053 OA 
HETATM   17  C   UNL     1      -8.959   4.490  71.285  1.00  0.00    -0.127 C  
HETATM   18  C   UNL     1      -7.186   6.215  67.312  1.00  0.00    -0.075 C  
HETATM   19  C   UNL     1      -8.172   8.162  68.346  1.00  0.00    -0.129 A  
HETATM   20  C   UNL     1      -9.341  10.718  68.353  1.00  0.00    -0.167 A  
HETATM   21  C   UNL     1      -8.920   8.562  69.478  1.00  0.00    -0.149 A  
HETATM   22  C   UNL     1      -8.662  10.220  67.194  1.00  0.00    -0.129 A  
HETATM   23  C   UNL     1      -8.070   8.961  67.214  1.00  0.00    -0.104 A  
HETATM   24  H   UNL     1      -7.178   3.260  69.862  1.00  0.00     0.000 HD 
BRANCH  13  25
HETATM   25  C   UNL     1      -6.508   5.329  71.153  1.00  0.00    -0.035 C  
HETATM   26  O   UNL     1      -5.437   5.664  70.662  1.00  0.00    -0.008 OA 
BRANCH  25  27
HETATM   27  O   UNL     1      -6.718   5.087  72.484  1.00  0.00    -0.056 OA 
HETATM   28  C   UNL     1      -5.790   4.242  73.175  1.00  0.00    -0.012 C  
ENDBRANCH  25  27
ENDBRANCH  13  25
BRANCH  17  29
HETATM   29  O   UNL     1      -9.803   3.504  70.574  1.00  0.00    -0.162 OA 
BRANCH  29  30
HETATM   30  C   UNL     1      -9.608   2.168  70.614  1.00  0.00    -0.074 C  
HETATM   31  C   UNL     1      -9.909   1.617  71.981  1.00  0.00    -0.200 C  
HETATM   32  O   UNL     1      -9.273   1.468  69.667  1.00  0.00    -0.088 OA 
ENDBRANCH  29  30
ENDBRANCH  17  29
BRANCH  22  33
HETATM   33  O   UNL     1      -8.618  10.979  66.062  1.00  0.00    -0.171 OA 
HETATM   34  C   UNL     1      -7.548  10.905  65.135  1.00  0.00     0.233 C  
ENDBRANCH  22  33
BRANCH  20  35
HETATM   35  C   UNL     1      -9.954  12.194  68.415  1.00  0.00    -0.206 C  
HETATM   36  C   UNL     1     -11.850  13.535  65.296  1.00  0.00    -0.373 A  
HETATM   37  C   UNL     1      -8.697  13.170  68.569  1.00  0.00    -0.049 C  
HETATM   38  C   UNL     1      -9.026  14.609  68.206  1.00  0.00    -0.184 C  
HETATM   39  C   UNL     1     -12.502  14.290  64.292  1.00  0.00    -0.304 A  
HETATM   40  C   UNL     1     -12.693  13.752  63.014  1.00  0.00     1.024 A  
HETATM   41  C   UNL     1     -12.266  12.463  62.721  1.00  0.00     0.538 A  
HETATM   42  C   UNL     1      -7.975  15.707  68.016  1.00  0.00    -0.137 C  
HETATM   43  C   UNL     1      -8.657  17.109  68.133  1.00  0.00    -0.232 C  
HETATM   44  C   UNL     1     -11.669  11.672  63.704  1.00  0.00    -0.406 A  
HETATM   45  C   UNL     1     -10.201  17.125  67.850  1.00  0.00    -0.330 C  
HETATM   46  C   UNL     1     -11.480  12.238  64.973  1.00  0.00    -0.336 A  
HETATM   47  H   UNL     1     -10.737  10.695  66.210  1.00  0.00     0.000 HD 
HETATM   48  N   UNL     1     -10.951  15.944  68.274  1.00  0.00    -0.314 NA 
HETATM   49  N   UNL     1     -10.960  11.684  66.110  1.00  0.00    -0.293 NA 
HETATM   50  C   UNL     1     -11.775  15.225  67.268  1.00  0.00    -0.078 C  
HETATM   51  C   UNL     1     -10.136  15.125  69.111  1.00  0.00    -0.245 C  
HETATM   52  C   UNL     1     -11.435  13.816  66.667  1.00  0.00    -0.362 A  
HETATM   53  C   UNL     1     -10.773  12.624  67.107  1.00  0.00    -0.241 A  
BRANCH  35  54
HETATM   54  C   UNL     1     -11.028  12.263  69.579  1.00  0.00     0.056 C  
HETATM   55  O   UNL     1     -11.207  13.220  70.322  1.00  0.00     0.148 OA 
BRANCH  54  56
HETATM   56  O   UNL     1     -11.735  11.074  69.669  1.00  0.00    -0.269 OA 
HETATM   57  C   UNL     1     -12.819  11.056  70.604  1.00  0.00    -0.220 C  
ENDBRANCH  54  56
ENDBRANCH  35  54
BRANCH  43  58
HETATM   58  C   UNL     1      -7.945  18.181  67.309  1.00  0.00    -0.220 C  
HETATM   59  C   UNL     1      -7.062  17.630  66.202  1.00  0.00    -0.347 C  
HETATM   60  F   UNL     1      -7.183  18.959  68.121  1.00  0.00    -0.242 F  
HETATM   61  F   UNL     1      -8.876  19.000  66.751  1.00  0.00    -0.271 F  
ENDBRANCH  43  58
ENDBRANCH  20  35
ENDBRANCH   2   3
TORSDOF 10
ENDMDL
MODEL       10
REMARK 921   NORMALIZED FREE ENERGY PREDICTED BY IDOCK:   -3.31 KCAL/MOL
REMARK 922        TOTAL FREE ENERGY PREDICTED BY IDOCK:   -5.22 KCAL/MOL
REMARK 923 INTER-LIGAND FREE ENERGY PREDICTED BY IDOCK:   -6.88 KCAL/MOL
REMARK 924 INTRA-LIGAND FREE ENERGY PREDICTED BY IDOCK:    1.65 KCAL/MOL
REMARK 927      BINDING AFFINITY PREDICTED BY RF-SCORE:    0.00 PKD
ROOT
HETATM    1  C   UNL     1      -8.692   4.082  62.330  1.00  0.00    -0.090 C  
HETATM    2  C   UNL     1      -7.984   5.072  63.308  1.00  0.00    -0.089 C  
ENDROOT
BRANCH   2   3
HETATM    3  C   UNL     1      -8.226   4.811  64.881  1.00  0.00    -0.120 C  
HETATM    4  C   UNL     1      -9.230   3.639  64.722  1.00  0.00    -0.145 C  
HETATM    5  C   UNL     1     -10.502   3.998  64.453  1.00  0.00    -0.215 C  
HETATM    6  C   UNL     1     -11.103   4.519  65.701  1.00  0.00     0.382 C  
HETATM    7  N   UNL     1     -10.493   5.816  66.043  1.00  0.00     0.062 NA 
HETATM    8  C   UNL     1     -10.789   6.056  67.452  1.00  0.00    -0.303 C  
HETATM    9  C   UNL     1      -9.486   6.225  68.177  1.00  0.00    -0.113 C  
HETATM   10  C   UNL     1      -8.434   6.619  67.109  1.00  0.00    -0.113 C  
HETATM   11  C   UNL     1      -9.018   6.062  65.732  1.00  0.00    -0.104 C  
HETATM   12  C   UNL     1      -6.965   6.162  67.357  1.00  0.00    -0.069 C  
HETATM   13  C   UNL     1      -6.729   4.660  67.142  1.00  0.00    -0.051 C  
HETATM   14  N   UNL     1      -6.577   6.776  68.667  1.00  0.00    -0.049 NA 
HETATM   15  C   UNL     1      -9.001   9.235  67.437  1.00  0.00    -0.135 A  
HETATM   16  O   UNL     1      -5.360   4.300  67.480  1.00  0.00    -0.011 OA 
HETATM   17  C   UNL     1      -6.932   4.277  65.633  1.00  0.00    -0.062 C  
HETATM   18  C   UNL     1      -5.202   6.831  69.152  1.00  0.00    -0.013 C  
HETATM   19  C   UNL     1      -7.160   8.083  68.496  1.00  0.00    -0.080 A  
HETATM   20  C   UNL     1      -8.720  10.405  68.233  1.00  0.00    -0.128 A  
HETATM   21  C   UNL     1      -8.210   8.090  67.548  1.00  0.00    -0.123 A  
HETATM   22  C   UNL     1      -7.581  10.376  69.100  1.00  0.00    -0.117 A  
HETATM   23  C   UNL     1      -6.832   9.212  69.235  1.00  0.00    -0.049 A  
HETATM   24  H   UNL     1      -5.214   3.370  67.347  1.00  0.00     0.000 HD 
BRANCH  13  25
HETATM   25  C   UNL     1      -7.591   3.802  68.096  1.00  0.00    -0.065 C  
HETATM   26  O   UNL     1      -8.606   3.188  67.791  1.00  0.00    -0.088 OA 
BRANCH  25  27
HETATM   27  O   UNL     1      -7.057   3.855  69.355  1.00  0.00    -0.045 OA 
HETATM   28  C   UNL     1      -7.924   4.183  70.448  1.00  0.00    -0.051 C  
ENDBRANCH  25  27
ENDBRANCH  13  25
BRANCH  17  29
HETATM   29  O   UNL     1      -5.681   4.366  64.847  1.00  0.00    -0.013 OA 
BRANCH  29  30
HETATM   30  C   UNL     1      -5.393   3.582  63.785  1.00  0.00    -0.009 C  
HETATM   31  C   UNL     1      -5.332   2.132  64.182  1.00  0.00    -0.008 C  
HETATM   32  O   UNL     1      -5.239   3.970  62.634  1.00  0.00    -0.005 OA 
ENDBRANCH  29  30
ENDBRANCH  17  29
BRANCH  22  33
HETATM   33  O   UNL     1      -7.221  11.504  69.776  1.00  0.00     0.044 OA 
HETATM   34  C   UNL     1      -5.908  11.711  70.272  1.00  0.00    -0.161 C  
ENDBRANCH  22  33
BRANCH  20  35
HETATM   35  C   UNL     1      -9.672  11.686  68.115  1.00  0.00    -0.189 C  
HETATM   36  C   UNL     1      -8.014  15.197  67.894  1.00  0.00    -0.143 A  
HETATM   37  C   UNL     1     -10.506  11.723  69.478  1.00  0.00     0.244 C  
HETATM   38  C   UNL     1     -11.128  13.084  69.746  1.00  0.00     0.109 C  
HETATM   39  C   UNL     1      -7.685  16.574  67.885  1.00  0.00    -0.162 A  
HETATM   40  C   UNL     1      -6.350  16.983  67.985  1.00  0.00    -0.147 A  
HETATM   41  C   UNL     1      -5.331  16.045  68.072  1.00  0.00    -0.128 A  
HETATM   42  C   UNL     1     -11.764  13.488  71.079  1.00  0.00     0.338 C  
HETATM   43  C   UNL     1     -12.704  14.718  70.859  1.00  0.00    -0.405 C  
HETATM   44  C   UNL     1      -5.616  14.679  68.030  1.00  0.00    -0.134 A  
HETATM   45  C   UNL     1     -12.387  15.579  69.586  1.00  0.00    -0.191 C  
HETATM   46  C   UNL     1      -6.961  14.295  67.940  1.00  0.00    -0.164 A  
HETATM   47  H   UNL     1      -6.969  12.194  67.711  1.00  0.00     0.000 HD 
HETATM   48  N   UNL     1     -11.898  14.853  68.416  1.00  0.00    -0.307 NA 
HETATM   49  N   UNL     1      -7.511  13.047  67.847  1.00  0.00    -0.121 NA 
HETATM   50  C   UNL     1     -10.610  15.270  67.805  1.00  0.00    -0.266 C  
HETATM   51  C   UNL     1     -12.070  13.450  68.608  1.00  0.00    -0.246 C  
HETATM   52  C   UNL     1      -9.271  14.455  67.884  1.00  0.00    -0.195 A  
HETATM   53  C   UNL     1      -8.890  13.076  67.961  1.00  0.00    -0.191 A  
BRANCH  35  54
HETATM   54  C   UNL     1     -10.527  11.579  66.784  1.00  0.00    -0.239 C  
HETATM   55  O   UNL     1     -11.471  10.819  66.609  1.00  0.00    -0.169 OA 
BRANCH  54  56
HETATM   56  O   UNL     1     -10.048  12.451  65.819  1.00  0.00    -0.247 OA 
HETATM   57  C   UNL     1     -11.038  13.113  65.024  1.00  0.00    -0.301 C  
ENDBRANCH  54  56
ENDBRANCH  35  54
BRANCH  43  58
HETATM   58  C   UNL     1     -12.815  15.605  72.099  1.00  0.00    -0.439 C  
HETATM   59  C   UNL     1     -14.241  15.961  72.484  1.00  0.00    -0.283 C  
HETATM   60  F   UNL     1     -12.119  16.756  71.910  1.00  0.00    -0.354 F  
HETATM   61  F   UNL     1     -12.231  14.968  73.149  1.00  0.00    -0.412 F  
ENDBRANCH  43  58
ENDBRANCH  20  35
ENDBRANCH   2   3
TORSDOF 10
ENDMDL
MODEL       11
REMARK 921   NORMALIZED FREE ENERGY PREDICTED BY IDOCK:   -1.84 KCAL/MOL
REMARK 922        TOTAL FREE ENERGY PREDICTED BY IDOCK:   -2.89 KCAL/MOL
REMARK 923 INTER-LIGAND FREE ENERGY PREDICTED BY IDOCK:   -5.35 KCAL/MOL
REMARK 924 INTRA-LIGAND FREE ENERGY PREDICTED BY IDOCK:    2.47 KCAL/MOL
REMARK 927      BINDING AFFINITY PREDICTED BY RF-SCORE:    0.00 PKD
ROOT
HETATM    1  C   UNL     1      -5.141   5.496  70.515  1.00  0.00    -0.005 C  
HETATM    2  C   UNL     1      -6.096   6.726  70.637  1.00  0.00    -0.028 C  
ENDROOT
BRANCH   2   3
HETATM    3  C   UNL     1      -7.649   6.455  70.301  1.00  0.00    -0.096 C  
HETATM    4  C   UNL     1      -7.427   5.233  69.370  1.00  0.00    -0.065 C  
HETATM    5  C   UNL     1      -7.071   5.527  68.103  1.00  0.00    -0.067 C  
HETATM    6  C   UNL     1      -8.272   6.019  67.392  1.00  0.00    -0.106 C  
HETATM    7  N   UNL     1      -8.649   7.345  67.912  1.00  0.00    -0.125 NA 
HETATM    8  C   UNL     1     -10.033   7.571  67.508  1.00  0.00    -0.174 C  
HETATM    9  C   UNL     1     -10.845   7.807  68.748  1.00  0.00    -0.006 C  
HETATM   10  C   UNL     1      -9.849   8.252  69.849  1.00  0.00    -0.186 C  
HETATM   11  C   UNL     1      -8.438   7.665  69.389  1.00  0.00    -0.132 C  
HETATM   12  C   UNL     1     -10.200   7.871  71.319  1.00  0.00    -0.187 C  
HETATM   13  C   UNL     1     -10.008   6.383  71.644  1.00  0.00    -0.175 C  
HETATM   14  N   UNL     1     -11.530   8.506  71.585  1.00  0.00    -0.278 NA 
HETATM   15  C   UNL     1     -10.126  10.837  69.130  1.00  0.00    -0.224 A  
HETATM   16  O   UNL     1     -10.441   6.092  73.003  1.00  0.00    -0.202 OA 
HETATM   17  C   UNL     1      -8.491   5.988  71.565  1.00  0.00    -0.128 C  
HETATM   18  C   UNL     1     -12.108   8.631  72.919  1.00  0.00     0.225 C  
HETATM   19  C   UNL     1     -11.314   9.781  70.950  1.00  0.00    -0.365 A  
HETATM   20  C   UNL     1     -10.934  12.021  69.296  1.00  0.00    -0.189 A  
HETATM   21  C   UNL     1     -10.296   9.733  69.968  1.00  0.00    -0.307 A  
HETATM   22  C   UNL     1     -11.877  12.051  70.373  1.00  0.00    -0.212 A  
HETATM   23  C   UNL     1     -12.069  10.926  71.169  1.00  0.00    -0.386 A  
HETATM   24  H   UNL     1     -10.323   5.171  73.205  1.00  0.00     0.000 HD 
BRANCH  13  25
HETATM   25  C   UNL     1     -10.905   5.483  70.764  1.00  0.00    -0.179 C  
HETATM   26  O   UNL     1     -12.014   5.777  70.332  1.00  0.00     0.468 OA 
BRANCH  25  27
HETATM   27  O   UNL     1     -10.278   4.284  70.560  1.00  0.00    -0.135 OA 
HETATM   28  C   UNL     1     -10.524   3.221  71.490  1.00  0.00     0.576 C  
ENDBRANCH  25  27
ENDBRANCH  13  25
BRANCH  17  29
HETATM   29  O   UNL     1      -7.792   6.139  72.861  1.00  0.00    -0.104 OA 
BRANCH  29  30
HETATM   30  C   UNL     1      -7.484   7.328  73.424  1.00  0.00    -0.075 C  
HETATM   31  C   UNL     1      -6.304   7.199  74.350  1.00  0.00    -0.082 C  
HETATM   32  O   UNL     1      -8.046   8.391  73.197  1.00  0.00    -0.297 OA 
ENDBRANCH  29  30
ENDBRANCH  17  29
BRANCH  22  33
HETATM   33  O   UNL     1     -12.571  13.196  70.628  1.00  0.00    -0.290 OA 
HETATM   34  C   UNL     1     -12.210  14.091  71.667  1.00  0.00    -0.141 C  
ENDBRANCH  22  33
BRANCH  20  35
HETATM   35  C   UNL     1     -10.745  13.252  68.291  1.00  0.00    -0.267 C  
HETATM   36  C   UNL     1      -9.554  12.504  64.666  1.00  0.00     0.171 A  
HETATM   37  C   UNL     1      -9.576  14.140  68.921  1.00  0.00    -0.053 C  
HETATM   38  C   UNL     1      -8.956  15.093  67.911  1.00  0.00    -0.174 C  
HETATM   39  C   UNL     1      -9.058  12.525  63.340  1.00  0.00     1.770 A  
HETATM   40  C   UNL     1      -8.647  11.340  62.719  1.00  0.00    -0.104 A  
HETATM   41  C   UNL     1      -8.740  10.126  63.387  1.00  0.00    -0.216 A  
HETATM   42  C   UNL     1      -7.664  15.878  68.154  1.00  0.00    -0.135 C  
HETATM   43  C   UNL     1      -7.587  17.080  67.157  1.00  0.00    -0.205 C  
HETATM   44  C   UNL     1      -9.274  10.063  64.676  1.00  0.00    -0.310 A  
HETATM   45  C   UNL     1      -8.443  16.919  65.852  1.00  0.00     0.010 C  
HETATM   46  C   UNL     1      -9.669  11.265  65.278  1.00  0.00    -0.239 A  
HETATM   47  H   UNL     1     -10.584  10.741  67.110  1.00  0.00     0.000 HD 
HETATM   48  N   UNL     1      -9.711  16.205  65.991  1.00  0.00    -0.323 NA 
HETATM   49  N   UNL     1     -10.247  11.483  66.498  1.00  0.00    -0.212 NA 
HETATM   50  C   UNL     1      -9.966  15.029  65.120  1.00  0.00    -0.234 C  
HETATM   51  C   UNL     1     -10.024  16.034  67.373  1.00  0.00    -0.241 C  
HETATM   52  C   UNL     1      -9.983  13.536  65.605  1.00  0.00    -0.252 A  
HETATM   53  C   UNL     1     -10.319  12.831  66.805  1.00  0.00    -0.240 A  
BRANCH  35  54
HETATM   54  C   UNL     1     -12.139  13.983  68.096  1.00  0.00    -0.272 C  
HETATM   55  O   UNL     1     -12.456  15.050  68.606  1.00  0.00     0.008 OA 
BRANCH  54  56
HETATM   56  O   UNL     1     -12.977  13.236  67.283  1.00  0.00     0.678 OA 
HETATM   57  C   UNL     1     -13.020  13.621  65.904  1.00  0.00    -0.114 C  
ENDBRANCH  54  56
ENDBRANCH  35  54
BRANCH  43  58
HETATM   58  C   UNL     1      -6.149  17.472  66.816  1.00  0.00    -0.184 C  
HETATM   59  C   UNL     1      -5.566  18.543  67.721  1.00  0.00    -0.163 C  
HETATM   60  F   UNL     1      -6.080  17.908  65.531  1.00  0.00    -0.229 F  
HETATM   61  F   UNL     1      -5.362  16.366  66.892  1.00  0.00    -0.150 F  
ENDBRANCH  43  58
ENDBRANCH  20  35
ENDBRANCH   2   3
TORSDOF 10
ENDMDL
MODEL       12
REMARK 921   NORMALIZED FREE ENERGY PREDICTED BY IDOCK:   -1.18 KCAL/MOL
REMARK 922        TOTAL FREE ENERGY PREDICTED BY IDOCK:   -1.84 KCAL/MOL
REMARK 923 INTER-LIGAND FREE ENERGY PREDICTED BY IDOCK:   -3.35 KCAL/MOL
REMARK 924 INTRA-LIGAND FREE ENERGY PREDICTED BY IDOCK:    1.51 KCAL/MOL
REMARK 927      BINDING AFFINITY PREDICTED BY RF-SCORE:    0.00 PKD
ROOT
HETATM    1  C   UNL     1      -8.913   5.949  72.063  1.00  0.00    -0.137 C  
HETATM    2  C   UNL     1      -8.836   4.837  70.968  1.00  0.00    -0.147 C  
ENDROOT
BRANCH   2   3
HETATM    3  C   UNL     1      -7.794   5.097  69.765  1.00  0.00    -0.072 C  
HETATM    4  C   UNL     1      -6.561   4.443  70.443  1.00  0.00    -0.032 C  
HETATM    5  C   UNL     1      -5.916   5.215  71.342  1.00  0.00    -0.021 C  
HETATM    6  C   UNL     1      -5.135   6.228  70.598  1.00  0.00    -0.014 C  
HETATM    7  N   UNL     1      -6.050   7.199  69.972  1.00  0.00    -0.024 NA 
HETATM    8  C   UNL     1      -5.285   7.880  68.932  1.00  0.00    -0.023 C  
HETATM    9  C   UNL     1      -5.993   7.672  67.625  1.00  0.00    -0.040 C  
HETATM   10  C   UNL     1      -7.462   7.321  67.970  1.00  0.00    -0.102 C  
HETATM   11  C   UNL     1      -7.408   6.732  69.452  1.00  0.00    -0.092 C  
HETATM   12  C   UNL     1      -8.216   6.377  66.985  1.00  0.00    -0.113 C  
HETATM   13  C   UNL     1      -7.771   4.909  67.056  1.00  0.00    -0.092 C  
HETATM   14  N   UNL     1      -8.185   7.081  65.663  1.00  0.00    -0.129 NA 
HETATM   15  C   UNL     1      -8.144   9.930  67.967  1.00  0.00    -0.108 A  
HETATM   16  O   UNL     1      -8.455   4.114  66.047  1.00  0.00    -0.109 OA 
HETATM   17  C   UNL     1      -8.144   4.283  68.446  1.00  0.00    -0.081 C  
HETATM   18  C   UNL     1      -9.004   6.683  64.523  1.00  0.00     0.792 C  
HETATM   19  C   UNL     1      -8.460   8.424  66.105  1.00  0.00    -0.131 A  
HETATM   20  C   UNL     1      -8.541  11.038  67.134  1.00  0.00    -0.136 A  
HETATM   21  C   UNL     1      -8.129   8.628  67.465  1.00  0.00    -0.106 A  
HETATM   22  C   UNL     1      -8.965  10.759  65.794  1.00  0.00    -0.187 A  
HETATM   23  C   UNL     1      -8.899   9.463  65.294  1.00  0.00    -0.227 A  
HETATM   24  H   UNL     1      -8.179   3.205  66.091  1.00  0.00     0.000 HD 
BRANCH  13  25
HETATM   25  C   UNL     1      -6.273   4.747  66.712  1.00  0.00    -0.032 C  
HETATM   26  O   UNL     1      -5.561   5.594  66.186  1.00  0.00    -0.012 OA 
BRANCH  25  27
HETATM   27  O   UNL     1      -5.864   3.489  67.061  1.00  0.00    -0.022 OA 
HETATM   28  C   UNL     1      -5.688   2.518  66.022  1.00  0.00    -0.018 C  
ENDBRANCH  25  27
ENDBRANCH  13  25
BRANCH  17  29
HETATM   29  O   UNL     1      -9.482   3.652  68.449  1.00  0.00    -0.172 OA 
BRANCH  29  30
HETATM   30  C   UNL     1      -9.694   2.317  68.467  1.00  0.00     0.116 C  
HETATM   31  C   UNL     1      -9.413   1.742  69.828  1.00  0.00    -0.124 C  
HETATM   32  O   UNL     1     -10.101   1.648  67.526  1.00  0.00     0.542 OA 
ENDBRANCH  29  30
ENDBRANCH  17  29
BRANCH  22  33
HETATM   33  O   UNL     1      -9.457  11.768  65.020  1.00  0.00    -0.182 OA 
HETATM   34  C   UNL     1     -10.366  11.539  63.955  1.00  0.00    -0.355 C  
ENDBRANCH  22  33
BRANCH  20  35
HETATM   35  C   UNL     1      -8.506  12.524  67.726  1.00  0.00    -0.171 C  
HETATM   36  C   UNL     1     -11.287  13.574  70.232  1.00  0.00     0.131 A  
HETATM   37  C   UNL     1      -8.715  13.488  66.469  1.00  0.00     0.087 C  
HETATM   38  C   UNL     1      -9.149  14.888  66.871  1.00  0.00    -0.271 C  
HETATM   39  C   UNL     1     -12.208  14.235  71.081  1.00  0.00    -0.431 A  
HETATM   40  C   UNL     1     -13.356  13.574  71.531  1.00  0.00    -0.363 A  
HETATM   41  C   UNL     1     -13.596  12.255  71.169  1.00  0.00     0.779 A  
HETATM   42  C   UNL     1      -9.663  15.943  65.887  1.00  0.00    -0.386 C  
HETATM   43  C   UNL     1      -9.553  17.362  66.536  1.00  0.00    -0.292 C  
HETATM   44  C   UNL     1     -12.682  11.557  70.377  1.00  0.00    -0.138 A  
HETATM   45  C   UNL     1      -9.511  17.376  68.104  1.00  0.00    -0.288 C  
HETATM   46  C   UNL     1     -11.545  12.245  69.932  1.00  0.00    -0.203 A  
HETATM   47  H   UNL     1     -10.336  10.823  68.942  1.00  0.00     0.000 HD 
HETATM   48  N   UNL     1      -8.823  16.257  68.746  1.00  0.00    -0.232 NA 
HETATM   49  N   UNL     1     -10.489  11.800  69.186  1.00  0.00    -0.094 NA 
HETATM   50  C   UNL     1      -9.557  15.454  69.758  1.00  0.00    -0.181 C  
HETATM   51  C   UNL     1      -8.093  15.513  67.772  1.00  0.00    -0.141 C  
HETATM   52  C   UNL     1     -10.068  13.986  69.543  1.00  0.00     0.370 A  
HETATM   53  C   UNL     1      -9.654  12.833  68.800  1.00  0.00     0.101 A  
BRANCH  35  54
HETATM   54  C   UNL     1      -7.158  12.729  68.536  1.00  0.00    -0.101 C  
HETATM   55  O   UNL     1      -6.035  12.485  68.115  1.00  0.00    -0.060 OA 
BRANCH  54  56
HETATM   56  O   UNL     1      -7.419  13.203  69.812  1.00  0.00     0.557 OA 
HETATM   57  C   UNL     1      -6.281  13.639  70.565  1.00  0.00    -0.028 C  
ENDBRANCH  54  56
ENDBRANCH  35  54
BRANCH  43  58
HETATM   58  C   UNL     1     -10.612  18.332  66.014  1.00  0.00    -0.296 C  
HETATM   59  C   UNL     1     -10.058  19.677  65.570  1.00  0.00    -0.027 C  
HETATM   60  F   UNL     1     -11.554  18.548  66.968  1.00  0.00     0.213 F  
HETATM   61  F   UNL     1     -11.252  17.760  64.959  1.00  0.00    -0.298 F  
ENDBRANCH  43  58
ENDBRANCH  20  35
ENDBRANCH   2   3
TORSDOF 10
ENDMDL
MODEL       13
REMARK 921   NORMALIZED FREE ENERGY PREDICTED BY IDOCK:   -1.11 KCAL/MOL
REMARK 922        TOTAL FREE ENERGY PREDICTED BY IDOCK:   -1.74 KCAL/MOL
REMARK 923 INTER-LIGAND FREE ENERGY PREDICTED BY IDOCK:   -4.99 KCAL/MOL
REMARK 924 INTRA-LIGAND FREE ENERGY PREDICTED BY IDOCK:    3.25 KCAL/MOL
REMARK 927      BINDING AFFINITY PREDICTED BY RF-SCORE:    0.00 PKD
ROOT
HETATM    1  C   UNL     1      -9.875  17.203  69.376  1.00  0.00     0.004 C  
HETATM    2  C   UNL     1      -9.482  15.766  68.907  1.00  0.00    -0.229 C  
ENDROOT
BRANCH   2   3
HETATM    3  C   UNL     1     -10.675  14.864  68.305  1.00  0.00    -0.249 C  
HETATM    4  C   UNL     1     -11.843  15.795  68.729  1.00  0.00    -0.321 C  
HETATM    5  C   UNL     1     -12.234  15.684  70.015  1.00  0.00    -0.351 C  
HETATM    6  C   UNL     1     -13.007  14.430  70.151  1.00  0.00     0.028 C  
HETATM    7  N   UNL     1     -12.106  13.272  70.013  1.00  0.00    -0.328 NA 
HETATM    8  C   UNL     1     -12.953  12.119  69.722  1.00  0.00     0.993 C  
HETATM    9  C   UNL     1     -12.505  11.534  68.415  1.00  0.00     0.769 C  
HETATM   10  C   UNL     1     -11.048  12.014  68.192  1.00  0.00    -0.294 C  
HETATM   11  C   UNL     1     -10.919  13.350  69.056  1.00  0.00    -0.224 C  
HETATM   12  C   UNL     1     -10.585  12.215  66.717  1.00  0.00    -0.226 C  
HETATM   13  C   UNL     1     -11.176  13.457  66.037  1.00  0.00    -0.296 C  
HETATM   14  N   UNL     1     -10.758  10.878  66.064  1.00  0.00    -0.189 NA 
HETATM   15  C   UNL     1     -10.083   9.877  69.525  1.00  0.00    -0.240 A  
HETATM   16  O   UNL     1     -10.769  13.523  64.641  1.00  0.00    -0.373 OA 
HETATM   17  C   UNL     1     -10.648  14.769  66.719  1.00  0.00    -0.302 C  
HETATM   18  C   UNL     1     -10.195  10.543  64.761  1.00  0.00    -0.303 C  
HETATM   19  C   UNL     1     -10.260  10.034  67.120  1.00  0.00    -0.228 A  
HETATM   20  C   UNL     1      -9.708   8.490  69.403  1.00  0.00    -0.177 A  
HETATM   21  C   UNL     1     -10.331  10.652  68.390  1.00  0.00    -0.197 A  
HETATM   22  C   UNL     1      -9.551   7.944  68.087  1.00  0.00    -0.152 A  
HETATM   23  C   UNL     1      -9.849   8.715  66.968  1.00  0.00    -0.284 A  
HETATM   24  H   UNL     1     -11.135  14.292  64.219  1.00  0.00     0.000 HD 
BRANCH  13  25
HETATM   25  C   UNL     1     -12.720  13.397  65.975  1.00  0.00    -0.167 C  
HETATM   26  O   UNL     1     -13.491  14.153  66.553  1.00  0.00     1.011 OA 
BRANCH  25  27
HETATM   27  O   UNL     1     -13.098  12.341  65.190  1.00  0.00    -0.404 OA 
HETATM   28  C   UNL     1     -12.885  12.435  63.776  1.00  0.00    -0.266 C  
ENDBRANCH  25  27
ENDBRANCH  13  25
BRANCH  17  29
HETATM   29  O   UNL     1      -9.410  15.281  66.091  1.00  0.00    -0.290 OA 
BRANCH  29  30
HETATM   30  C   UNL     1      -9.143  16.591  65.894  1.00  0.00    -0.153 C  
HETATM   31  C   UNL     1      -7.669  16.868  66.019  1.00  0.00    -0.100 C  
HETATM   32  O   UNL     1      -9.966  17.451  65.609  1.00  0.00    -0.559 OA 
ENDBRANCH  29  30
ENDBRANCH  17  29
BRANCH  22  33
HETATM   33  O   UNL     1      -9.085   6.672  67.937  1.00  0.00    -0.117 OA 
HETATM   34  C   UNL     1      -9.785   5.685  67.198  1.00  0.00    -0.139 C  
ENDBRANCH  22  33
BRANCH  20  35
HETATM   35  C   UNL     1      -9.472   7.617  70.722  1.00  0.00    -0.162 C  
HETATM   36  C   UNL     1      -6.790   4.804  70.615  1.00  0.00    -0.037 A  
HETATM   37  C   UNL     1     -10.850   6.846  70.974  1.00  0.00    -0.272 C  
HETATM   38  C   UNL     1     -10.691   5.651  71.901  1.00  0.00    -0.299 C  
HETATM   39  C   UNL     1      -5.952   3.681  70.823  1.00  0.00    -0.018 A  
HETATM   40  C   UNL     1      -5.164   3.182  69.779  1.00  0.00    -0.008 A  
HETATM   41  C   UNL     1      -5.178   3.794  68.532  1.00  0.00    -0.012 A  
HETATM   42  C   UNL     1     -11.771   4.588  72.122  1.00  0.00     1.078 C  
HETATM   43  C   UNL     1     -11.480   3.816  73.450  1.00  0.00    -0.165 C  
HETATM   44  C   UNL     1      -5.952   4.935  68.309  1.00  0.00    -0.026 A  
HETATM   45  C   UNL     1      -9.988   3.859  73.933  1.00  0.00    -0.126 C  
HETATM   46  C   UNL     1      -6.739   5.408  69.368  1.00  0.00    -0.052 A  
HETATM   47  H   UNL     1      -7.597   7.223  68.709  1.00  0.00     0.000 HD 
HETATM   48  N   UNL     1      -9.255   5.095  73.667  1.00  0.00    -0.129 NA 
HETATM   49  N   UNL     1      -7.550   6.507  69.433  1.00  0.00    -0.094 NA 
HETATM   50  C   UNL     1      -7.974   5.017  72.918  1.00  0.00    -0.101 C  
HETATM   51  C   UNL     1     -10.159   6.116  73.249  1.00  0.00    -0.196 C  
HETATM   52  C   UNL     1      -7.764   5.509  71.442  1.00  0.00    -0.109 A  
HETATM   53  C   UNL     1      -8.300   6.532  70.595  1.00  0.00    -0.133 A  
BRANCH  35  54
HETATM   54  C   UNL     1      -8.988   8.567  71.896  1.00  0.00    -0.231 C  
HETATM   55  O   UNL     1      -9.701   9.010  72.787  1.00  0.00     0.035 OA 
BRANCH  54  56
HETATM   56  O   UNL     1      -7.639   8.858  71.769  1.00  0.00    -0.281 OA 
HETATM   57  C   UNL     1      -6.817   8.529  72.894  1.00  0.00    -0.031 C  
ENDBRANCH  54  56
ENDBRANCH  35  54
BRANCH  43  58
HETATM   58  C   UNL     1     -11.999   2.378  73.421  1.00  0.00     0.134 C  
HETATM   59  C   UNL     1     -13.513   2.265  73.352  1.00  0.00     0.738 C  
HETATM   60  F   UNL     1     -11.566   1.707  74.520  1.00  0.00    -0.100 F  
HETATM   61  F   UNL     1     -11.468   1.740  72.344  1.00  0.00    -0.047 F  
ENDBRANCH  43  58
ENDBRANCH  20  35
ENDBRANCH   2   3
TORSDOF 10
ENDMDL
MODEL       14
REMARK 921   NORMALIZED FREE ENERGY PREDICTED BY IDOCK:   -0.97 KCAL/MOL
REMARK 922        TOTAL FREE ENERGY PREDICTED BY IDOCK:   -1.51 KCAL/MOL
REMARK 923 INTER-LIGAND FREE ENERGY PREDICTED BY IDOCK:   -3.01 KCAL/MOL
REMARK 924 INTRA-LIGAND FREE ENERGY PREDICTED BY IDOCK:    1.50 KCAL/MOL
REMARK 927      BINDING AFFINITY PREDICTED BY RF-SCORE:    0.00 PKD
ROOT
HETATM    1  C   UNL     1      -9.845   3.209  68.383  1.00  0.00     0.215 C  
HETATM    2  C   UNL     1     -10.380   4.629  68.750  1.00  0.00     0.118 C  
ENDROOT
BRANCH   2   3
HETATM    3  C   UNL     1      -9.740   5.312  70.062  1.00  0.00    -0.263 C  
HETATM    4  C   UNL     1     -10.569   4.519  71.107  1.00  0.00     0.149 C  
HETATM    5  C   UNL     1     -11.820   4.975  71.322  1.00  0.00     1.971 C  
HETATM    6  C   UNL     1     -11.724   6.207  72.136  1.00  0.00    -0.309 C  
HETATM    7  N   UNL     1     -11.145   7.294  71.327  1.00  0.00    -0.244 NA 
HETATM    8  C   UNL     1     -10.681   8.310  72.267  1.00  0.00    -0.329 C  
HETATM    9  C   UNL     1      -9.213   8.518  72.038  1.00  0.00    -0.326 C  
HETATM   10  C   UNL     1      -8.916   8.015  70.602  1.00  0.00    -0.148 C  
HETATM   11  C   UNL     1     -10.080   6.972  70.281  1.00  0.00    -0.187 C  
HETATM   12  C   UNL     1      -7.499   7.422  70.337  1.00  0.00    -0.085 C  
HETATM   13  C   UNL     1      -7.276   6.031  70.949  1.00  0.00    -0.074 C  
HETATM   14  N   UNL     1      -6.541   8.523  70.671  1.00  0.00    -0.037 NA 
HETATM   15  C   UNL     1      -9.460  10.450  69.578  1.00  0.00    -0.164 A  
HETATM   16  O   UNL     1      -5.906   5.588  70.736  1.00  0.00    -0.022 OA 
HETATM   17  C   UNL     1      -8.202   4.966  70.261  1.00  0.00    -0.081 C  
HETATM   18  C   UNL     1      -5.127   8.493  70.313  1.00  0.00    -0.022 C  
HETATM   19  C   UNL     1      -7.242   9.633  70.079  1.00  0.00    -0.119 A  
HETATM   20  C   UNL     1      -8.912  11.755  69.300  1.00  0.00     0.598 A  
HETATM   21  C   UNL     1      -8.629   9.389  69.939  1.00  0.00    -0.201 A  
HETATM   22  C   UNL     1      -7.490  11.918  69.357  1.00  0.00     0.254 A  
HETATM   23  C   UNL     1      -6.679  10.864  69.765  1.00  0.00    -0.144 A  
HETATM   24  H   UNL     1      -5.768   4.727  71.114  1.00  0.00     0.000 HD 
BRANCH  13  25
HETATM   25  C   UNL     1      -7.430   6.050  72.487  1.00  0.00    -0.098 C  
HETATM   26  O   UNL     1      -8.240   5.399  73.135  1.00  0.00    -0.114 OA 
BRANCH  25  27
HETATM   27  O   UNL     1      -6.532   6.936  73.018  1.00  0.00    -0.061 OA 
HETATM   28  C   UNL     1      -6.275   6.881  74.427  1.00  0.00    -0.075 C  
ENDBRANCH  25  27
ENDBRANCH  13  25
BRANCH  17  29
HETATM   29  O   UNL     1      -7.561   4.318  69.095  1.00  0.00    -0.055 OA 
BRANCH  29  30
HETATM   30  C   UNL     1      -6.994   3.092  69.123  1.00  0.00    -0.041 C  
HETATM   31  C   UNL     1      -6.136   2.864  67.908  1.00  0.00    -0.028 C  
HETATM   32  O   UNL     1      -7.112   2.273  70.025  1.00  0.00    -0.033 OA 
ENDBRANCH  29  30
ENDBRANCH  17  29
BRANCH  22  33
HETATM   33  O   UNL     1      -6.933  13.106  68.986  1.00  0.00    -0.100 OA 
HETATM   34  C   UNL     1      -5.758  13.620  69.591  1.00  0.00    -0.102 C  
ENDBRANCH  22  33
BRANCH  20  35
HETATM   35  C   UNL     1      -9.896  12.962  68.932  1.00  0.00     0.136 C  
HETATM   36  C   UNL     1     -11.593  12.952  65.433  1.00  0.00    -0.386 A  
HETATM   37  C   UNL     1      -8.980  14.272  68.928  1.00  0.00    -0.025 C  
HETATM   38  C   UNL     1      -9.619  15.431  68.181  1.00  0.00    -0.203 C  
HETATM   39  C   UNL     1     -12.265  13.238  64.220  1.00  0.00    -0.454 A  
HETATM   40  C   UNL     1     -12.115  12.394  63.113  1.00  0.00    -0.353 A  
HETATM   41  C   UNL     1     -11.324  11.256  63.197  1.00  0.00     0.192 A  
HETATM   42  C   UNL     1      -8.881  16.717  67.799  1.00  0.00    -0.206 C  
HETATM   43  C   UNL     1      -9.919  17.846  67.496  1.00  0.00    -0.322 C  
HETATM   44  C   UNL     1     -10.691  10.916  64.394  1.00  0.00    -0.250 A  
HETATM   45  C   UNL     1     -11.352  17.346  67.098  1.00  0.00     0.636 C  
HETATM   46  C   UNL     1     -10.850  11.783  65.485  1.00  0.00    -0.297 A  
HETATM   47  H   UNL     1      -9.917  10.844  67.133  1.00  0.00     0.000 HD 
HETATM   48  N   UNL     1     -11.817  16.123  67.751  1.00  0.00     0.207 NA 
HETATM   49  N   UNL     1     -10.377  11.675  66.763  1.00  0.00    -0.217 NA 
HETATM   50  C   UNL     1     -12.263  14.988  66.903  1.00  0.00     0.300 C  
HETATM   51  C   UNL     1     -10.949  15.789  68.832  1.00  0.00    -0.283 C  
HETATM   52  C   UNL     1     -11.476  13.643  66.714  1.00  0.00    -0.370 A  
HETATM   53  C   UNL     1     -10.596  12.828  67.497  1.00  0.00    -0.229 A  
BRANCH  35  54
HETATM   54  C   UNL     1     -11.111  12.973  69.950  1.00  0.00     0.295 C  
HETATM   55  O   UNL     1     -11.237  13.743  70.894  1.00  0.00     0.463 OA 
BRANCH  54  56
HETATM   56  O   UNL     1     -12.015  11.967  69.648  1.00  0.00    -0.304 OA 
HETATM   57  C   UNL     1     -13.005  11.691  70.647  1.00  0.00     0.093 C  
ENDBRANCH  54  56
ENDBRANCH  35  54
BRANCH  43  58
HETATM   58  C   UNL     1      -9.401  18.867  66.483  1.00  0.00    -0.335 C  
HETATM   59  C   UNL     1      -9.228  20.268  67.045  1.00  0.00    -0.503 C  
HETATM   60  F   UNL     1     -10.242  18.930  65.418  1.00  0.00    -0.168 F  
HETATM   61  F   UNL     1      -8.201  18.443  66.004  1.00  0.00    -0.274 F  
ENDBRANCH  43  58
ENDBRANCH  20  35
ENDBRANCH   2   3
TORSDOF 10
ENDMDL
MODEL       15
REMARK 921   NORMALIZED FREE ENERGY PREDICTED BY IDOCK:   -0.87 KCAL/MOL
REMARK 922        TOTAL FREE ENERGY PREDICTED BY IDOCK:   -1.36 KCAL/MOL
REMARK 923 INTER-LIGAND FREE ENERGY PREDICTED BY IDOCK:   -3.29 KCAL/MOL
REMARK 924 INTRA-LIGAND FREE ENERGY PREDICTED BY IDOCK:    1.93 KCAL/MOL
REMARK 927      BINDING AFFINITY PREDICTED BY RF-SCORE:    0.00 PKD
ROOT
HETATM    1  C   UNL     1     -12.251  13.765  69.267  1.00  0.00    -0.307 C  
HETATM    2  C   UNL     1     -11.851  13.310  67.828  1.00  0.00    -0.394 C  
ENDROOT
BRANCH   2   3
HETATM    3  C   UNL     1     -10.275  13.328  67.490  1.00  0.00    -0.222 C  
HETATM    4  C   UNL     1     -10.414  13.611  65.971  1.00  0.00    -0.300 C  
HETATM    5  C   UNL     1     -10.697  12.537  65.205  1.00  0.00    -0.323 C  
HETATM    6  C   UNL     1      -9.465  11.728  65.077  1.00  0.00    -0.062 C  
HETATM    7  N   UNL     1      -9.148  11.097  66.370  1.00  0.00    -0.181 NA 
HETATM    8  C   UNL     1      -7.746  10.696  66.304  1.00  0.00    -0.143 C  
HETATM    9  C   UNL     1      -7.017  11.369  67.430  1.00  0.00    -0.106 C  
HETATM   10  C   UNL     1      -8.088  11.746  68.485  1.00  0.00    -0.140 C  
HETATM   11  C   UNL     1      -9.456  11.839  67.668  1.00  0.00    -0.180 C  
HETATM   12  C   UNL     1      -7.821  13.020  69.343  1.00  0.00     0.722 C  
HETATM   13  C   UNL     1      -8.002  14.340  68.580  1.00  0.00    -0.139 C  
HETATM   14  N   UNL     1      -6.523  12.759  70.043  1.00  0.00     0.023 NA 
HETATM   15  C   UNL     1      -7.819   9.349  69.693  1.00  0.00    -0.105 A  
HETATM   16  O   UNL     1      -7.648  15.474  69.421  1.00  0.00    -0.203 OA 
HETATM   17  C   UNL     1      -9.503  14.541  68.167  1.00  0.00    -0.208 C  
HETATM   18  C   UNL     1      -6.032  13.571  71.151  1.00  0.00     0.029 C  
HETATM   19  C   UNL     1      -6.726  11.381  70.410  1.00  0.00     0.534 A  
HETATM   20  C   UNL     1      -7.048   8.600  70.654  1.00  0.00    -0.056 A  
HETATM   21  C   UNL     1      -7.679  10.734  69.589  1.00  0.00    -0.020 A  
HETATM   22  C   UNL     1      -6.174   9.320  71.530  1.00  0.00    -0.046 A  
HETATM   23  C   UNL     1      -6.009  10.694  71.382  1.00  0.00     0.331 A  
HETATM   24  H   UNL     1      -7.760  16.291  68.949  1.00  0.00     0.000 HD 
BRANCH  13  25
HETATM   25  C   UNL     1      -7.034  14.446  67.379  1.00  0.00    -0.064 C  
HETATM   26  O   UNL     1      -6.014  13.787  67.220  1.00  0.00    -0.327 OA 
BRANCH  25  27
HETATM   27  O   UNL     1      -7.481  15.417  66.525  1.00  0.00     0.028 OA 
HETATM   28  C   UNL     1      -6.997  16.755  66.703  1.00  0.00    -0.232 C  
ENDBRANCH  25  27
ENDBRANCH  13  25
BRANCH  17  29
HETATM   29  O   UNL     1     -10.284  15.275  69.188  1.00  0.00    -0.220 OA 
BRANCH  29  30
HETATM   30  C   UNL     1     -10.526  16.604  69.151  1.00  0.00    -0.333 C  
HETATM   31  C   UNL     1     -10.741  17.076  67.739  1.00  0.00    -0.318 C  
HETATM   32  O   UNL     1     -10.606  17.341  70.125  1.00  0.00     0.106 OA 
ENDBRANCH  29  30
ENDBRANCH  17  29
BRANCH  22  33
HETATM   33  O   UNL     1      -5.520   8.656  72.525  1.00  0.00    -0.045 OA 
HETATM   34  C   UNL     1      -5.268   9.239  73.794  1.00  0.00    -0.114 C  
ENDBRANCH  22  33
BRANCH  20  35
HETATM   35  C   UNL     1      -7.199   7.008  70.719  1.00  0.00    -0.071 C  
HETATM   36  C   UNL     1      -9.123   5.224  67.849  1.00  0.00    -0.117 A  
HETATM   37  C   UNL     1      -8.070   6.716  72.026  1.00  0.00    -0.102 C  
HETATM   38  C   UNL     1      -8.688   5.327  72.019  1.00  0.00    -0.133 C  
HETATM   39  C   UNL     1      -9.835   4.344  66.997  1.00  0.00    -0.227 A  
HETATM   40  C   UNL     1     -10.546   4.843  65.899  1.00  0.00    -0.280 A  
HETATM   41  C   UNL     1     -10.544   6.203  65.619  1.00  0.00     1.290 A  
HETATM   42  C   UNL     1      -9.763   4.861  73.005  1.00  0.00    -0.166 C  
HETATM   43  C   UNL     1      -9.810   3.299  73.029  1.00  0.00    -0.193 C  
HETATM   44  C   UNL     1      -9.809   7.091  66.407  1.00  0.00    -0.103 A  
HETATM   45  C   UNL     1      -9.238   2.595  71.749  1.00  0.00    -0.099 C  
HETATM   46  C   UNL     1      -9.114   6.567  67.506  1.00  0.00    -0.115 A  
HETATM   47  H   UNL     1      -7.992   8.163  68.318  1.00  0.00     0.000 HD 
HETATM   48  N   UNL     1      -8.106   3.252  71.098  1.00  0.00    -0.061 NA 
HETATM   49  N   UNL     1      -8.301   7.196  68.408  1.00  0.00    -0.124 NA 
HETATM   50  C   UNL     1      -8.213   3.593  69.656  1.00  0.00    -0.052 C  
HETATM   51  C   UNL     1      -7.587   4.277  71.943  1.00  0.00    -0.071 C  
HETATM   52  C   UNL     1      -8.366   5.047  69.084  1.00  0.00    -0.086 A  
HETATM   53  C   UNL     1      -7.948   6.365  69.456  1.00  0.00    -0.113 A  
BRANCH  35  54
HETATM   54  C   UNL     1      -5.758   6.347  70.687  1.00  0.00    -0.023 C  
HETATM   55  O   UNL     1      -5.159   5.910  71.660  1.00  0.00    -0.015 OA 
BRANCH  54  56
HETATM   56  O   UNL     1      -5.244   6.349  69.400  1.00  0.00    -0.011 OA 
HETATM   57  C   UNL     1      -5.133   5.070  68.765  1.00  0.00     0.000 C  
ENDBRANCH  54  56
ENDBRANCH  35  54
BRANCH  43  58
HETATM   58  C   UNL     1     -11.197   2.756  73.372  1.00  0.00    -0.157 C  
HETATM   59  C   UNL     1     -11.179   1.487  74.209  1.00  0.00    -0.139 C  
HETATM   60  F   UNL     1     -11.893   2.510  72.232  1.00  0.00     0.893 F  
HETATM   61  F   UNL     1     -11.889   3.710  74.050  1.00  0.00    -0.003 F  
ENDBRANCH  43  58
ENDBRANCH  20  35
ENDBRANCH   2   3
TORSDOF 10
ENDMDL
MODEL       16
REMARK 921   NORMALIZED FREE ENERGY PREDICTED BY IDOCK:    0.32 KCAL/MOL
REMARK 922        TOTAL FREE ENERGY PREDICTED BY IDOCK:    0.53 KCAL/MOL
REMARK 923 INTER-LIGAND FREE ENERGY PREDICTED BY IDOCK:   -2.81 KCAL/MOL
REMARK 924 INTRA-LIGAND FREE ENERGY PREDICTED BY IDOCK:    3.34 KCAL/MOL
REMARK 927      BINDING AFFINITY PREDICTED BY RF-SCORE:    0.00 PKD
ROOT
HETATM    1  C   UNL     1      -5.150   3.295  68.591  1.00  0.00    -0.011 C  
HETATM    2  C   UNL     1      -5.836   4.575  69.165  1.00  0.00    -0.018 C  
ENDROOT
BRANCH   2   3
HETATM    3  C   UNL     1      -7.410   4.453  69.489  1.00  0.00    -0.051 C  
HETATM    4  C   UNL     1      -7.664   3.149  68.686  1.00  0.00    -0.054 C  
HETATM    5  C   UNL     1      -7.818   3.309  67.356  1.00  0.00    -0.077 C  
HETATM    6  C   UNL     1      -9.164   3.876  67.116  1.00  0.00    -0.176 C  
HETATM    7  N   UNL     1      -9.207   5.270  67.591  1.00  0.00    -0.113 NA 
HETATM    8  C   UNL     1     -10.619   5.616  67.733  1.00  0.00    -0.200 C  
HETATM    9  C   UNL     1     -10.854   6.030  69.156  1.00  0.00    -0.422 C  
HETATM   10  C   UNL     1      -9.474   6.442  69.729  1.00  0.00    -0.160 C  
HETATM   11  C   UNL     1      -8.407   5.672  68.827  1.00  0.00    -0.103 C  
HETATM   12  C   UNL     1      -9.241   6.210  71.253  1.00  0.00    -0.150 C  
HETATM   13  C   UNL     1      -9.043   4.738  71.640  1.00  0.00    -0.136 C  
HETATM   14  N   UNL     1     -10.307   7.005  71.941  1.00  0.00    -0.193 NA 
HETATM   15  C   UNL     1      -9.826   8.982  68.893  1.00  0.00    -0.181 A  
HETATM   16  O   UNL     1      -8.923   4.597  73.084  1.00  0.00    -0.116 OA 
HETATM   17  C   UNL     1      -7.714   4.174  71.024  1.00  0.00    -0.059 C  
HETATM   18  C   UNL     1     -10.299   7.290  73.372  1.00  0.00    -0.363 C  
HETATM   19  C   UNL     1     -10.268   8.198  71.135  1.00  0.00    -0.195 A  
HETATM   20  C   UNL     1     -10.414  10.257  69.227  1.00  0.00    -0.250 A  
HETATM   21  C   UNL     1      -9.729   7.968  69.848  1.00  0.00    -0.180 A  
HETATM   22  C   UNL     1     -10.850  10.469  70.575  1.00  0.00     0.008 A  
HETATM   23  C   UNL     1     -10.790   9.433  71.502  1.00  0.00    -0.398 A  
HETATM   24  H   UNL     1      -8.800   3.686  73.325  1.00  0.00     0.000 HD 
BRANCH  13  25
HETATM   25  C   UNL     1     -10.278   3.880  71.281  1.00  0.00     0.098 C  
HETATM   26  O   UNL     1     -11.446   4.244  71.337  1.00  0.00     1.592 OA 
BRANCH  25  27
HETATM   27  O   UNL     1      -9.865   2.628  70.914  1.00  0.00    -0.111 OA 
HETATM   28  C   UNL     1     -10.375   1.503  71.641  1.00  0.00     0.024 C  
ENDBRANCH  25  27
ENDBRANCH  13  25
BRANCH  17  29
HETATM   29  O   UNL     1      -6.550   4.342  71.923  1.00  0.00    -0.021 OA 
BRANCH  29  30
HETATM   30  C   UNL     1      -6.129   3.409  72.805  1.00  0.00    -0.009 C  
HETATM   31  C   UNL     1      -5.380   2.305  72.109  1.00  0.00     0.000 C  
HETATM   32  O   UNL     1      -6.287   3.453  74.018  1.00  0.00    -0.022 OA 
ENDBRANCH  29  30
ENDBRANCH  17  29
BRANCH  22  33
HETATM   33  O   UNL     1     -11.301  11.699  70.951  1.00  0.00     0.574 OA 
HETATM   34  C   UNL     1     -12.637  11.927  71.367  1.00  0.00    -0.240 C  
ENDBRANCH  22  33
BRANCH  20  35
HETATM   35  C   UNL     1     -10.551  11.383  68.099  1.00  0.00    -0.220 C  
HETATM   36  C   UNL     1      -8.674  10.855  64.734  1.00  0.00    -0.055 A  
HETATM   37  C   UNL     1      -9.888  12.695  68.724  1.00  0.00     0.016 C  
HETATM   38  C   UNL     1      -9.525  13.727  67.669  1.00  0.00    -0.217 C  
HETATM   39  C   UNL     1      -8.040  10.957  63.472  1.00  0.00     0.211 A  
HETATM   40  C   UNL     1      -7.141   9.970  63.050  1.00  0.00    -0.129 A  
HETATM   41  C   UNL     1      -6.875   8.869  63.854  1.00  0.00    -0.087 A  
HETATM   42  C   UNL     1      -8.658  14.961  67.939  1.00  0.00    -0.160 C  
HETATM   43  C   UNL     1      -8.887  16.018  66.810  1.00  0.00    -0.288 C  
HETATM   44  C   UNL     1      -7.524   8.711  65.080  1.00  0.00    -0.090 A  
HETATM   45  C   UNL     1      -9.434  15.441  65.457  1.00  0.00    -0.125 C  
HETATM   46  C   UNL     1      -8.412   9.718  65.484  1.00  0.00    -0.142 A  
HETATM   47  H   UNL     1      -9.319   9.035  67.266  1.00  0.00     0.000 HD 
HETATM   48  N   UNL     1     -10.358  14.313  65.558  1.00  0.00    -0.335 NA 
HETATM   49  N   UNL     1      -9.194   9.798  66.602  1.00  0.00    -0.147 NA 
HETATM   50  C   UNL     1     -10.041  13.063  64.822  1.00  0.00    -0.218 C  
HETATM   51  C   UNL     1     -10.777  14.148  66.912  1.00  0.00    -0.286 C  
HETATM   52  C   UNL     1      -9.577  11.719  65.487  1.00  0.00    -0.222 A  
HETATM   53  C   UNL     1      -9.796  11.037  66.728  1.00  0.00    -0.197 A  
BRANCH  35  54
HETATM   54  C   UNL     1     -12.073  11.513  67.675  1.00  0.00     0.259 C  
HETATM   55  O   UNL     1     -13.030  11.398  68.430  1.00  0.00     1.194 OA 
BRANCH  54  56
HETATM   56  O   UNL     1     -12.187  11.751  66.314  1.00  0.00    -0.344 OA 
HETATM   57  C   UNL     1     -13.032  12.843  65.936  1.00  0.00     0.770 C  
ENDBRANCH  54  56
ENDBRANCH  35  54
BRANCH  43  58
HETATM   58  C   UNL     1      -7.660  16.897  66.567  1.00  0.00    -0.293 C  
HETATM   59  C   UNL     1      -6.381  16.363  67.190  1.00  0.00    -0.215 C  
HETATM   60  F   UNL     1      -7.884  18.148  67.047  1.00  0.00    -0.208 F  
HETATM   61  F   UNL     1      -7.468  17.024  65.227  1.00  0.00     0.429 F  
ENDBRANCH  43  58
ENDBRANCH  20  35
ENDBRANCH   2   3
TORSDOF 10
ENDMDL
MODEL       17
REMARK 921   NORMALIZED FREE ENERGY PREDICTED BY IDOCK:    0.39 KCAL/MOL
REMARK 922        TOTAL FREE ENERGY PREDICTED BY IDOCK:    0.63 KCAL/MOL
REMARK 923 INTER-LIGAND FREE ENERGY PREDICTED BY IDOCK:   -1.97 KCAL/MOL
REMARK 924 INTRA-LIGAND FREE ENERGY PREDICTED BY IDOCK:    2.60 KCAL/MOL
REMARK 927      BINDING AFFINITY PREDICTED BY RF-SCORE:    0.00 PKD
ROOT
HETATM    1  C   UNL     1      -8.484   7.205  71.852  1.00  0.00    -0.112 C  
HETATM    2  C   UNL     1      -8.795   6.323  70.600  1.00  0.00    -0.144 C  
ENDROOT
BRANCH   2   3
HETATM    3  C   UNL     1      -7.910   6.621  69.286  1.00  0.00    -0.110 C  
HETATM    4  C   UNL     1      -6.623   5.894  69.761  1.00  0.00    -0.047 C  
HETATM    5  C   UNL     1      -5.839   6.596  70.605  1.00  0.00    -0.024 C  
HETATM    6  C   UNL     1      -5.127   7.627  69.818  1.00  0.00    -0.023 C  
HETATM    7  N   UNL     1      -6.080   8.657  69.370  1.00  0.00    -0.040 NA 
HETATM    8  C   UNL     1      -5.433   9.373  68.275  1.00  0.00    -0.037 C  
HETATM    9  C   UNL     1      -6.311   9.259  67.063  1.00  0.00    -0.066 C  
HETATM   10  C   UNL     1      -7.735   8.931  67.580  1.00  0.00    -0.101 C  
HETATM   11  C   UNL     1      -7.509   8.258  69.010  1.00  0.00    -0.091 C  
HETATM   12  C   UNL     1      -8.644   8.066  66.655  1.00  0.00    -0.136 C  
HETATM   13  C   UNL     1      -8.246   6.585  66.591  1.00  0.00    -0.112 C  
HETATM   14  N   UNL     1      -8.760   8.841  65.379  1.00  0.00    -0.180 NA 
HETATM   15  C   UNL     1      -8.318  11.555  67.803  1.00  0.00    -0.136 A  
HETATM   16  O   UNL     1      -9.083   5.866  65.641  1.00  0.00    -0.272 OA 
HETATM   17  C   UNL     1      -8.457   5.892  67.984  1.00  0.00    -0.110 C  
HETATM   18  C   UNL     1      -9.734   8.532  64.337  1.00  0.00     2.131 C  
HETATM   19  C   UNL     1      -8.927  10.165  65.923  1.00  0.00    -0.157 A  
HETATM   20  C   UNL     1      -8.781  12.719  67.087  1.00  0.00    -0.202 A  
HETATM   21  C   UNL     1      -8.415  10.282  67.236  1.00  0.00    -0.125 A  
HETATM   22  C   UNL     1      -9.385  12.527  65.803  1.00  0.00     0.024 A  
HETATM   23  C   UNL     1      -9.431  11.260  65.231  1.00  0.00    -0.248 A  
HETATM   24  H   UNL     1      -8.837   4.949  65.601  1.00  0.00     0.000 HD 
BRANCH  13  25
HETATM   25  C   UNL     1      -6.812   6.399  66.044  1.00  0.00    -0.057 C  
HETATM   26  O   UNL     1      -5.778   6.709  66.622  1.00  0.00    -0.013 OA 
BRANCH  25  27
HETATM   27  O   UNL     1      -6.876   5.856  64.789  1.00  0.00    -0.045 OA 
HETATM   28  C   UNL     1      -7.416   4.536  64.646  1.00  0.00    -0.072 C  
ENDBRANCH  25  27
ENDBRANCH  13  25
BRANCH  17  29
HETATM   29  O   UNL     1      -9.805   5.300  68.130  1.00  0.00    -0.136 OA 
BRANCH  29  30
HETATM   30  C   UNL     1     -10.058   3.972  68.125  1.00  0.00     0.270 C  
HETATM   31  C   UNL     1     -10.475   3.506  66.757  1.00  0.00     1.656 C  
HETATM   32  O   UNL     1      -9.932   3.220  69.082  1.00  0.00     0.161 OA 
ENDBRANCH  29  30
ENDBRANCH  17  29
BRANCH  22  33
HETATM   33  O   UNL     1      -9.937  13.591  65.153  1.00  0.00    -0.265 OA 
HETATM   34  C   UNL     1     -11.154  13.497  64.432  1.00  0.00    -0.380 C  
ENDBRANCH  22  33
BRANCH  20  35
HETATM   35  C   UNL     1      -8.616  14.167  67.746  1.00  0.00    -0.184 C  
HETATM   36  C   UNL     1     -11.231  15.295  70.393  1.00  0.00    -0.325 A  
HETATM   37  C   UNL     1      -8.792  15.204  66.543  1.00  0.00    -0.312 C  
HETATM   38  C   UNL     1      -9.107  16.611  67.025  1.00  0.00    -0.232 C  
HETATM   39  C   UNL     1     -12.073  15.980  71.303  1.00  0.00    -0.440 A  
HETATM   40  C   UNL     1     -13.253  15.383  71.762  1.00  0.00    -0.544 A  
HETATM   41  C   UNL     1     -13.602  14.104  71.348  1.00  0.00    -0.363 A  
HETATM   42  C   UNL     1      -9.571  17.748  66.109  1.00  0.00    -0.202 C  
HETATM   43  C   UNL     1      -9.335  19.121  66.818  1.00  0.00    -0.364 C  
HETATM   44  C   UNL     1     -12.768  13.381  70.494  1.00  0.00    -0.194 A  
HETATM   45  C   UNL     1      -9.243  19.056  68.383  1.00  0.00    -0.352 C  
HETATM   46  C   UNL     1     -11.597  14.005  70.041  1.00  0.00    -0.232 A  
HETATM   47  H   UNL     1     -10.529  12.547  68.946  1.00  0.00     0.000 HD 
HETATM   48  N   UNL     1      -8.621  17.860  68.948  1.00  0.00    -0.182 NA 
HETATM   49  N   UNL     1     -10.601  13.521  69.239  1.00  0.00    -0.021 NA 
HETATM   50  C   UNL     1      -9.381  17.064  69.946  1.00  0.00     1.094 C  
HETATM   51  C   UNL     1      -7.979  17.112  67.916  1.00  0.00    -0.192 C  
HETATM   52  C   UNL     1     -10.006  15.649  69.682  1.00  0.00    -0.290 A  
HETATM   53  C   UNL     1      -9.703  14.507  68.873  1.00  0.00    -0.169 A  
BRANCH  35  54
HETATM   54  C   UNL     1      -7.232  14.234  68.518  1.00  0.00    -0.118 C  
HETATM   55  O   UNL     1      -7.085  14.066  69.721  1.00  0.00     0.013 OA 
BRANCH  54  56
HETATM   56  O   UNL     1      -6.197  14.535  67.647  1.00  0.00    -0.244 OA 
HETATM   57  C   UNL     1      -5.199  15.434  68.145  1.00  0.00    -0.121 C  
ENDBRANCH  54  56
ENDBRANCH  35  54
BRANCH  43  58
HETATM   58  C   UNL     1     -10.334  20.191  66.378  1.00  0.00    -0.389 C  
HETATM   59  C   UNL     1     -11.339  20.580  67.449  1.00  0.00     1.697 C  
HETATM   60  F   UNL     1     -11.015  19.767  65.282  1.00  0.00    -0.581 F  
HETATM   61  F   UNL     1      -9.650  21.305  66.003  1.00  0.00     0.478 F  
ENDBRANCH  43  58
ENDBRANCH  20  35
ENDBRANCH   2   3
TORSDOF 10
ENDMDL
MODEL       18
REMARK 921   NORMALIZED FREE ENERGY PREDICTED BY IDOCK:    0.72 KCAL/MOL
REMARK 922        TOTAL FREE ENERGY PREDICTED BY IDOCK:    1.16 KCAL/MOL
REMARK 923 INTER-LIGAND FREE ENERGY PREDICTED BY IDOCK:   -3.01 KCAL/MOL
REMARK 924 INTRA-LIGAND FREE ENERGY PREDICTED BY IDOCK:    4.17 KCAL/MOL
REMARK 927      BINDING AFFINITY PREDICTED BY RF-SCORE:    0.00 PKD
ROOT
HETATM    1  C   UNL     1      -8.785   5.112  63.914  1.00  0.00    -0.044 C  
HETATM    2  C   UNL     1      -8.007   6.182  64.743  1.00  0.00    -0.124 C  
ENDROOT
BRANCH   2   3
HETATM    3  C   UNL     1      -8.196   6.116  66.343  1.00  0.00    -0.113 C  
HETATM    4  C   UNL     1      -9.165   4.904  66.364  1.00  0.00    -0.138 C  
HETATM    5  C   UNL     1     -10.455   5.188  66.093  1.00  0.00    -0.301 C  
HETATM    6  C   UNL     1     -11.039   5.845  67.283  1.00  0.00    -0.029 C  
HETATM    7  N   UNL     1     -10.463   7.192  67.440  1.00  0.00    -0.251 NA 
HETATM    8  C   UNL     1     -10.728   7.600  68.816  1.00  0.00    -0.077 C  
HETATM    9  C   UNL     1      -9.412   7.899  69.473  1.00  0.00    -0.160 C  
HETATM   10  C   UNL     1      -8.404   8.185  68.330  1.00  0.00    -0.126 C  
HETATM   11  C   UNL     1      -9.007   7.441  67.054  1.00  0.00    -0.130 C  
HETATM   12  C   UNL     1      -6.914   7.808  68.588  1.00  0.00    -0.067 C  
HETATM   13  C   UNL     1      -6.634   6.299  68.556  1.00  0.00    -0.059 C  
HETATM   14  N   UNL     1      -6.511   8.595  69.797  1.00  0.00    -0.038 NA 
HETATM   15  C   UNL     1      -9.049  10.804  68.344  1.00  0.00    -0.164 A  
HETATM   16  O   UNL     1      -5.245   6.025  68.894  1.00  0.00    -0.004 OA 
HETATM   17  C   UNL     1      -6.865   5.720  67.115  1.00  0.00    -0.064 C  
HETATM   18  C   UNL     1      -5.126   8.752  70.227  1.00  0.00    -0.021 C  
HETATM   19  C   UNL     1      -7.142   9.851  69.481  1.00  0.00    -0.082 A  
HETATM   20  C   UNL     1      -8.786  12.074  68.976  1.00  0.00     0.345 A  
HETATM   21  C   UNL     1      -8.218   9.706  68.573  1.00  0.00    -0.105 A  
HETATM   22  C   UNL     1      -7.623  12.189  69.805  1.00  0.00     1.091 A  
HETATM   23  C   UNL     1      -6.832  11.074  70.061  1.00  0.00    -0.046 A  
HETATM   24  H   UNL     1      -5.071   5.091  68.874  1.00  0.00     0.000 HD 
BRANCH  13  25
HETATM   25  C   UNL     1      -7.440   5.543  69.638  1.00  0.00    -0.070 C  
HETATM   26  O   UNL     1      -8.109   4.532  69.460  1.00  0.00    -0.061 OA 
BRANCH  25  27
HETATM   27  O   UNL     1      -7.313   6.198  70.833  1.00  0.00    -0.076 OA 
HETATM   28  C   UNL     1      -7.422   5.435  72.042  1.00  0.00    -0.098 C  
ENDBRANCH  25  27
ENDBRANCH  13  25
BRANCH  17  29
HETATM   29  O   UNL     1      -5.640   5.746  66.285  1.00  0.00    -0.012 OA 
BRANCH  29  30
HETATM   30  C   UNL     1      -5.568   5.274  65.021  1.00  0.00    -0.013 C  
HETATM   31  C   UNL     1      -5.209   3.813  65.008  1.00  0.00    -0.009 C  
HETATM   32  O   UNL     1      -5.801   5.917  64.006  1.00  0.00    -0.021 OA 
ENDBRANCH  29  30
ENDBRANCH  17  29
BRANCH  22  33
HETATM   33  O   UNL     1      -7.283  13.404  70.321  1.00  0.00     0.808 OA 
HETATM   34  C   UNL     1      -5.935  13.825  70.457  1.00  0.00    -0.161 C  
ENDBRANCH  22  33
BRANCH  20  35
HETATM   35  C   UNL     1      -9.783  13.300  68.729  1.00  0.00     0.024 C  
HETATM   36  C   UNL     1     -11.733  13.437  65.367  1.00  0.00    -0.354 A  
HETATM   37  C   UNL     1      -8.858  14.603  68.707  1.00  0.00    -0.166 C  
HETATM   38  C   UNL     1      -9.540  15.795  68.055  1.00  0.00    -0.210 C  
HETATM   39  C   UNL     1     -12.489  13.774  64.218  1.00  0.00    -0.308 A  
HETATM   40  C   UNL     1     -12.429  12.974  63.071  1.00  0.00     0.071 A  
HETATM   41  C   UNL     1     -11.644  11.828  63.053  1.00  0.00     0.016 A  
HETATM   42  C   UNL     1      -8.820  17.090  67.669  1.00  0.00    -0.220 C  
HETATM   43  C   UNL     1      -9.867  18.237  67.488  1.00  0.00    -0.324 C  
HETATM   44  C   UNL     1     -10.928  11.438  64.186  1.00  0.00    -0.411 A  
HETATM   45  C   UNL     1     -11.330  17.761  67.177  1.00  0.00     0.727 C  
HETATM   46  C   UNL     1     -10.998  12.262  65.318  1.00  0.00    -0.307 A  
HETATM   47  H   UNL     1      -9.956  11.254  66.856  1.00  0.00     0.000 HD 
HETATM   48  N   UNL     1     -11.757  16.517  67.815  1.00  0.00     0.274 NA 
HETATM   49  N   UNL     1     -10.434  12.102  66.553  1.00  0.00    -0.221 NA 
HETATM   50  C   UNL     1     -12.274  15.418  66.959  1.00  0.00     0.763 C  
HETATM   51  C   UNL     1     -10.815  16.135  68.816  1.00  0.00    -0.310 C  
HETATM   52  C   UNL     1     -11.516  14.077  66.661  1.00  0.00    -0.377 A  
HETATM   53  C   UNL     1     -10.588  13.227  67.345  1.00  0.00    -0.246 A  
BRANCH  35  54
HETATM   54  C   UNL     1     -10.920  13.278  69.833  1.00  0.00     0.393 C  
HETATM   55  O   UNL     1     -11.085  14.131  70.696  1.00  0.00     0.113 OA 
BRANCH  54  56
HETATM   56  O   UNL     1     -11.702  12.140  69.713  1.00  0.00    -0.310 OA 
HETATM   57  C   UNL     1     -11.465  11.110  70.680  1.00  0.00     0.063 C  
ENDBRANCH  54  56
ENDBRANCH  35  54
BRANCH  43  58
HETATM   58  C   UNL     1      -9.416  19.293  66.479  1.00  0.00    -0.357 C  
HETATM   59  C   UNL     1     -10.495  19.716  65.497  1.00  0.00    -0.298 C  
HETATM   60  F   UNL     1      -8.348  18.835  65.775  1.00  0.00    -0.215 F  
HETATM   61  F   UNL     1      -8.991  20.394  67.154  1.00  0.00    -0.399 F  
ENDBRANCH  43  58
ENDBRANCH  20  35
ENDBRANCH   2   3
TORSDOF 10
ENDMDL
MODEL       19
REMARK 921   NORMALIZED FREE ENERGY PREDICTED BY IDOCK:    2.66 KCAL/MOL
REMARK 922        TOTAL FREE ENERGY PREDICTED BY IDOCK:    4.24 KCAL/MOL
REMARK 923 INTER-LIGAND FREE ENERGY PREDICTED BY IDOCK:   -6.75 KCAL/MOL
REMARK 924 INTRA-LIGAND FREE ENERGY PREDICTED BY IDOCK:   10.99 KCAL/MOL
REMARK 927      BINDING AFFINITY PREDICTED BY RF-SCORE:    0.00 PKD
ROOT
HETATM    1  C   UNL     1     -10.344   5.728  74.187  1.00  0.00    -0.295 C  
HETATM    2  C   UNL     1      -8.940   6.398  74.327  1.00  0.00    -0.171 C  
ENDROOT
BRANCH   2   3
HETATM    3  C   UNL     1      -8.056   6.481  72.981  1.00  0.00    -0.107 C  
HETATM    4  C   UNL     1      -6.668   6.350  73.663  1.00  0.00    -0.074 C  
HETATM    5  C   UNL     1      -6.180   7.483  74.208  1.00  0.00    -0.081 C  
HETATM    6  C   UNL     1      -5.706   8.352  73.109  1.00  0.00    -0.068 C  
HETATM    7  N   UNL     1      -6.859   8.861  72.345  1.00  0.00    -0.308 NA 
HETATM    8  C   UNL     1      -6.335   9.327  71.064  1.00  0.00    -0.076 C  
HETATM    9  C   UNL     1      -7.041   8.575  69.974  1.00  0.00    -0.046 C  
HETATM   10  C   UNL     1      -8.363   8.046  70.587  1.00  0.00    -0.123 C  
HETATM   11  C   UNL     1      -8.090   7.978  72.158  1.00  0.00    -0.134 C  
HETATM   12  C   UNL     1      -8.920   6.704  70.023  1.00  0.00    -0.144 C  
HETATM   13  C   UNL     1      -8.133   5.462  70.465  1.00  0.00    -0.106 C  
HETATM   14  N   UNL     1      -9.128   6.947  68.560  1.00  0.00    -0.128 NA 
HETATM   15  C   UNL     1      -9.649  10.316  69.905  1.00  0.00    -0.082 A  
HETATM   16  O   UNL     1      -8.658   4.264  69.826  1.00  0.00    -0.067 OA 
HETATM   17  C   UNL     1      -8.270   5.239  72.013  1.00  0.00    -0.118 C  
HETATM   18  C   UNL     1      -9.887   6.048  67.697  1.00  0.00    -0.123 C  
HETATM   19  C   UNL     1      -9.694   8.271  68.620  1.00  0.00    -0.156 A  
HETATM   20  C   UNL     1     -10.344  10.996  68.839  1.00  0.00    -0.223 A  
HETATM   21  C   UNL     1      -9.349   8.956  69.808  1.00  0.00    -0.169 A  
HETATM   22  C   UNL     1     -10.759  10.228  67.704  1.00  0.00    -0.288 A  
HETATM   23  C   UNL     1     -10.411   8.885  67.601  1.00  0.00    -0.320 A  
HETATM   24  H   UNL     1      -8.171   3.496  70.100  1.00  0.00     0.000 HD 
BRANCH  13  25
HETATM   25  C   UNL     1      -6.659   5.521  70.000  1.00  0.00    -0.043 C  
HETATM   26  O   UNL     1      -5.691   5.759  70.711  1.00  0.00    -0.012 OA 
BRANCH  25  27
HETATM   27  O   UNL     1      -6.604   5.292  68.652  1.00  0.00    -0.045 OA 
HETATM   28  C   UNL     1      -5.318   5.103  68.047  1.00  0.00    -0.011 C  
ENDBRANCH  25  27
ENDBRANCH  13  25
BRANCH  17  29
HETATM   29  O   UNL     1      -9.416   4.373  72.367  1.00  0.00    -0.132 OA 
BRANCH  29  30
HETATM   30  C   UNL     1      -9.393   3.023  72.314  1.00  0.00    -0.107 C  
HETATM   31  C   UNL     1      -8.086   2.482  72.824  1.00  0.00    -0.055 C  
HETATM   32  O   UNL     1     -10.316   2.309  71.943  1.00  0.00    -0.112 OA 
ENDBRANCH  29  30
ENDBRANCH  17  29
BRANCH  22  33
HETATM   33  O   UNL     1     -11.519  10.814  66.735  1.00  0.00    -0.235 OA 
HETATM   34  C   UNL     1     -11.368  10.510  65.358  1.00  0.00     1.038 C  
ENDBRANCH  22  33
BRANCH  20  35
HETATM   35  C   UNL     1     -10.635  12.565  68.961  1.00  0.00    -0.083 C  
HETATM   36  C   UNL     1     -11.886  14.456  65.802  1.00  0.00    -0.365 A  
HETATM   37  C   UNL     1      -9.223  13.234  69.294  1.00  0.00     0.820 C  
HETATM   38  C   UNL     1      -9.202  14.728  69.014  1.00  0.00    -0.145 C  
HETATM   39  C   UNL     1     -12.261  15.390  64.805  1.00  0.00     0.048 A  
HETATM   40  C   UNL     1     -12.434  14.977  63.479  1.00  0.00     0.917 A  
HETATM   41  C   UNL     1     -12.262  13.645  63.127  1.00  0.00     0.107 A  
HETATM   42  C   UNL     1      -7.930  15.581  68.998  1.00  0.00    -0.205 C  
HETATM   43  C   UNL     1      -8.309  17.089  69.161  1.00  0.00    -0.026 C  
HETATM   44  C   UNL     1     -11.945  12.689  64.095  1.00  0.00    -0.501 A  
HETATM   45  C   UNL     1      -9.779  17.455  68.750  1.00  0.00    -0.282 C  
HETATM   46  C   UNL     1     -11.768  13.130  65.414  1.00  0.00    -0.350 A  
HETATM   47  H   UNL     1     -11.494  11.396  66.590  1.00  0.00     0.000 HD 
HETATM   48  N   UNL     1     -10.799  16.444  69.018  1.00  0.00    -0.311 NA 
HETATM   49  N   UNL     1     -11.492  12.414  66.546  1.00  0.00    -0.350 NA 
HETATM   50  C   UNL     1     -11.653  15.978  67.895  1.00  0.00    -0.054 C  
HETATM   51  C   UNL     1     -10.263  15.422  69.857  1.00  0.00    -0.266 C  
HETATM   52  C   UNL     1     -11.559  14.564  67.220  1.00  0.00    -0.405 A  
HETATM   53  C   UNL     1     -11.211  13.234  67.624  1.00  0.00    -0.280 A  
BRANCH  35  54
HETATM   54  C   UNL     1     -11.781  12.801  70.031  1.00  0.00    -0.209 C  
HETATM   55  O   UNL     1     -12.075  12.029  70.934  1.00  0.00    -0.308 OA 
BRANCH  54  56
HETATM   56  O   UNL     1     -12.435  14.000  69.796  1.00  0.00    -0.325 OA 
HETATM   57  C   UNL     1     -13.486  14.332  70.710  1.00  0.00    -0.027 C  
ENDBRANCH  54  56
ENDBRANCH  35  54
BRANCH  43  58
HETATM   58  C   UNL     1      -7.308  18.025  68.484  1.00  0.00    -0.273 C  
HETATM   59  C   UNL     1      -7.402  19.471  68.942  1.00  0.00    -0.398 C  
HETATM   60  F   UNL     1      -7.476  17.987  67.137  1.00  0.00    -0.195 F  
HETATM   61  F   UNL     1      -6.049  17.575  68.731  1.00  0.00    -0.161 F  
ENDBRANCH  43  58
ENDBRANCH  20  35
ENDBRANCH   2   3
TORSDOF 10
ENDMDL
MODEL       20
REMARK 921   NORMALIZED FREE ENERGY PREDICTED BY IDOCK:    2.82 KCAL/MOL
REMARK 922        TOTAL FREE ENERGY PREDICTED BY IDOCK:    4.49 KCAL/MOL
REMARK 923 INTER-LIGAND FREE ENERGY PREDICTED BY IDOCK:   -8.21 KCAL/MOL
REMARK 924 INTRA-LIGAND FREE ENERGY PREDICTED BY IDOCK:   12.70 KCAL/MOL
REMARK 927      BINDING AFFINITY PREDICTED BY RF-SCORE:    0.00 PKD
ROOT
HETATM    1  C   UNL     1      -8.468  18.024  68.817  1.00  0.00    -0.217 C  
HETATM    2  C   UNL     1      -8.225  16.588  68.251  1.00  0.00    -0.185 C  
ENDROOT
BRANCH   2   3
HETATM    3  C   UNL     1      -9.544  15.726  67.912  1.00  0.00    -0.214 C  
HETATM    4  C   UNL     1     -10.542  16.583  68.737  1.00  0.00    -0.322 C  
HETATM    5  C   UNL     1     -10.562  16.333  70.062  1.00  0.00    -0.239 C  
HETATM    6  C   UNL     1     -11.275  15.055  70.277  1.00  0.00    -0.252 C  
HETATM    7  N   UNL     1     -10.456  13.938  69.775  1.00  0.00     0.338 NA 
HETATM    8  C   UNL     1     -11.359  12.802  69.612  1.00  0.00    -0.099 C  
HETATM    9  C   UNL     1     -11.295  12.362  68.178  1.00  0.00    -0.341 C  
HETATM   10  C   UNL     1      -9.954  12.895  67.612  1.00  0.00    -0.218 C  
HETATM   11  C   UNL     1      -9.581  14.138  68.540  1.00  0.00    -0.214 C  
HETATM   12  C   UNL     1      -9.917  13.254  66.096  1.00  0.00    -0.293 C  
HETATM   13  C   UNL     1     -10.665  14.546  65.738  1.00  0.00    -0.315 C  
HETATM   14  N   UNL     1     -10.274  11.988  65.381  1.00  0.00    -0.256 NA 
HETATM   15  C   UNL     1      -8.671  10.656  68.396  1.00  0.00    -0.141 A  
HETATM   16  O   UNL     1     -10.661  14.762  64.299  1.00  0.00    -0.539 OA 
HETATM   17  C   UNL     1      -9.960  15.793  66.380  1.00  0.00    -0.277 C  
HETATM   18  C   UNL     1     -10.097  11.799  63.945  1.00  0.00    -0.368 C  
HETATM   19  C   UNL     1      -9.508  11.052  66.165  1.00  0.00    -0.203 A  
HETATM   20  C   UNL     1      -8.354   9.296  68.032  1.00  0.00    -0.120 A  
HETATM   21  C   UNL     1      -9.220  11.536  67.462  1.00  0.00    -0.166 A  
HETATM   22  C   UNL     1      -8.573   8.891  66.676  1.00  0.00    -0.123 A  
HETATM   23  C   UNL     1      -9.164   9.765  65.769  1.00  0.00    -0.242 A  
HETATM   24  H   UNL     1     -11.124  15.562  64.077  1.00  0.00     0.000 HD 
BRANCH  13  25
HETATM   25  C   UNL     1     -12.166  14.458  66.101  1.00  0.00    -0.340 C  
HETATM   26  O   UNL     1     -12.678  14.858  67.139  1.00  0.00     0.524 OA 
BRANCH  25  27
HETATM   27  O   UNL     1     -12.838  13.833  65.086  1.00  0.00    -0.695 OA 
HETATM   28  C   UNL     1     -12.524  14.198  63.736  1.00  0.00     0.044 C  
ENDBRANCH  25  27
ENDBRANCH  13  25
BRANCH  17  29
HETATM   29  O   UNL     1      -8.941  16.394  65.491  1.00  0.00    -0.352 OA 
BRANCH  29  30
HETATM   30  C   UNL     1      -8.022  17.300  65.891  1.00  0.00    -0.007 C  
HETATM   31  C   UNL     1      -6.692  16.646  66.149  1.00  0.00     0.478 C  
HETATM   32  O   UNL     1      -8.209  18.505  65.996  1.00  0.00    -0.466 OA 
ENDBRANCH  29  30
ENDBRANCH  17  29
BRANCH  22  33
HETATM   33  O   UNL     1      -8.175   7.651  66.271  1.00  0.00    -0.109 OA 
HETATM   34  C   UNL     1      -9.082   6.571  66.119  1.00  0.00    -0.124 C  
ENDBRANCH  22  33
BRANCH  20  35
HETATM   35  C   UNL     1      -7.768   8.299  69.137  1.00  0.00    -0.097 C  
HETATM   36  C   UNL     1      -5.984   5.060  67.934  1.00  0.00    -0.022 A  
HETATM   37  C   UNL     1      -9.038   7.776  69.955  1.00  0.00    -0.147 C  
HETATM   38  C   UNL     1      -8.746   6.507  70.739  1.00  0.00    -0.143 C  
HETATM   39  C   UNL     1      -5.375   3.791  67.779  1.00  0.00    -0.016 A  
HETATM   40  C   UNL     1      -5.209   3.237  66.505  1.00  0.00    -0.012 A  
HETATM   41  C   UNL     1      -5.619   3.932  65.375  1.00  0.00    -0.014 A  
HETATM   42  C   UNL     1      -9.822   5.645  71.406  1.00  0.00    -0.221 C  
HETATM   43  C   UNL     1      -9.163   4.736  72.495  1.00  0.00    -0.146 C  
HETATM   44  C   UNL     1      -6.175   5.208  65.488  1.00  0.00    -0.034 A  
HETATM   45  C   UNL     1      -7.629   4.470  72.302  1.00  0.00    -0.083 C  
HETATM   46  C   UNL     1      -6.339   5.737  66.776  1.00  0.00    -0.038 A  
HETATM   47  H   UNL     1      -7.019   7.722  66.524  1.00  0.00     0.000 HD 
HETATM   48  N   UNL     1      -6.845   5.568  71.739  1.00  0.00    -0.064 NA 
HETATM   49  N   UNL     1      -6.817   6.957  67.167  1.00  0.00    -0.070 NA 
HETATM   50  C   UNL     1      -6.036   5.314  70.519  1.00  0.00    -0.021 C  
HETATM   51  C   UNL     1      -7.621   6.765  71.732  1.00  0.00    -0.095 C  
HETATM   52  C   UNL     1      -6.367   5.867  69.088  1.00  0.00    -0.041 A  
HETATM   53  C   UNL     1      -6.993   7.031  68.537  1.00  0.00    -0.075 A  
BRANCH  35  54
HETATM   54  C   UNL     1      -6.663   9.055  69.987  1.00  0.00    -0.044 C  
HETATM   55  O   UNL     1      -5.515   8.667  70.160  1.00  0.00    -0.025 OA 
BRANCH  54  56
HETATM   56  O   UNL     1      -7.177  10.218  70.539  1.00  0.00    -0.297 OA 
HETATM   57  C   UNL     1      -6.248  11.294  70.715  1.00  0.00     0.262 C  
ENDBRANCH  54  56
ENDBRANCH  35  54
BRANCH  43  58
HETATM   58  C   UNL     1      -9.918   3.423  72.702  1.00  0.00    -0.154 C  
HETATM   59  C   UNL     1     -11.233   3.574  73.449  1.00  0.00    -0.258 C  
HETATM   60  F   UNL     1      -9.137   2.541  73.378  1.00  0.00    -0.080 F  
HETATM   61  F   UNL     1     -10.172   2.865  71.488  1.00  0.00    -0.222 F  
ENDBRANCH  43  58
ENDBRANCH  20  35
ENDBRANCH   2   3
TORSDOF 10
ENDMDL
MODEL       21
REMARK 921   NORMALIZED FREE ENERGY PREDICTED BY IDOCK:    3.93 KCAL/MOL
REMARK 922        TOTAL FREE ENERGY PREDICTED BY IDOCK:    6.25 KCAL/MOL
REMARK 923 INTER-LIGAND FREE ENERGY PREDICTED BY IDOCK:    3.73 KCAL/MOL
REMARK 924 INTRA-LIGAND FREE ENERGY PREDICTED BY IDOCK:    2.52 KCAL/MOL
REMARK 927      BINDING AFFINITY PREDICTED BY RF-SCORE:    0.00 PKD
ROOT
HETATM    1  C   UNL     1      -8.638  14.991  71.660  1.00  0.00     4.677 C  
HETATM    2  C   UNL     1      -8.611  15.701  70.269  1.00  0.00     1.008 C  
ENDROOT
BRANCH   2   3
HETATM    3  C   UNL     1      -9.859  15.400  69.294  1.00  0.00    -0.262 C  
HETATM    4  C   UNL     1     -10.949  16.061  70.180  1.00  0.00    -0.369 C  
HETATM    5  C   UNL     1     -11.400  15.308  71.203  1.00  0.00    -0.402 C  
HETATM    6  C   UNL     1     -12.294  14.268  70.647  1.00  0.00    -0.361 C  
HETATM    7  N   UNL     1     -11.502  13.289  69.882  1.00  0.00    -0.164 NA 
HETATM    8  C   UNL     1     -12.443  12.574  69.023  1.00  0.00     0.446 C  
HETATM    9  C   UNL     1     -12.001  12.754  67.601  1.00  0.00    -0.331 C  
HETATM   10  C   UNL     1     -10.497  13.127  67.650  1.00  0.00    -0.225 C  
HETATM   11  C   UNL     1     -10.276  13.754  69.100  1.00  0.00     0.079 C  
HETATM   12  C   UNL     1      -9.958  14.051  66.516  1.00  0.00    -0.284 C  
HETATM   13  C   UNL     1     -10.401  15.516  66.636  1.00  0.00    -0.286 C  
HETATM   14  N   UNL     1     -10.231  13.313  65.242  1.00  0.00    -0.304 NA 
HETATM   15  C   UNL     1      -9.793  10.525  67.580  1.00  0.00    -0.192 A  
HETATM   16  O   UNL     1      -9.934  16.291  65.495  1.00  0.00    -0.491 OA 
HETATM   17  C   UNL     1      -9.779  16.183  67.913  1.00  0.00    -0.225 C  
HETATM   18  C   UNL     1      -9.651  13.687  63.957  1.00  0.00     2.265 C  
HETATM   19  C   UNL     1      -9.859  11.984  65.655  1.00  0.00    -0.243 A  
HETATM   20  C   UNL     1      -9.547   9.399  66.713  1.00  0.00    -0.234 A  
HETATM   21  C   UNL     1      -9.921  11.813  67.058  1.00  0.00    -0.224 A  
HETATM   22  C   UNL     1      -9.390   9.646  65.311  1.00  0.00    -0.260 A  
HETATM   23  C   UNL     1      -9.569  10.928  64.800  1.00  0.00    -0.301 A  
HETATM   24  H   UNL     1     -10.208  17.198  65.569  1.00  0.00     0.000 HD 
BRANCH  13  25
HETATM   25  C   UNL     1     -11.940  15.656  66.580  1.00  0.00     0.720 C  
HETATM   26  O   UNL     1     -12.617  16.418  67.260  1.00  0.00     2.110 OA 
BRANCH  25  27
HETATM   27  O   UNL     1     -12.440  14.770  65.665  1.00  0.00    -0.153 OA 
HETATM   28  C   UNL     1     -12.458  15.156  64.284  1.00  0.00    -0.052 C  
ENDBRANCH  25  27
ENDBRANCH  13  25
BRANCH  17  29
HETATM   29  O   UNL     1      -8.473  16.825  67.645  1.00  0.00    -0.187 OA 
BRANCH  29  30
HETATM   30  C   UNL     1      -8.284  18.161  67.568  1.00  0.00    -0.236 C  
HETATM   31  C   UNL     1      -8.556  18.823  68.892  1.00  0.00    -0.234 C  
HETATM   32  O   UNL     1      -7.903  18.771  66.578  1.00  0.00    -0.250 OA 
ENDBRANCH  29  30
ENDBRANCH  17  29
BRANCH  22  33
HETATM   33  O   UNL     1      -9.042   8.622  64.481  1.00  0.00     0.089 OA 
HETATM   34  C   UNL     1      -8.299   8.823  63.290  1.00  0.00    -0.161 C  
ENDBRANCH  22  33
BRANCH  20  35
HETATM   35  C   UNL     1      -9.449   7.929  67.336  1.00  0.00    -0.179 C  
HETATM   36  C   UNL     1      -7.170   7.395  70.442  1.00  0.00    -0.068 A  
HETATM   37  C   UNL     1      -8.788   7.026  66.196  1.00  0.00    -0.165 C  
HETATM   38  C   UNL     1      -8.212   5.727  66.737  1.00  0.00    -0.105 C  
HETATM   39  C   UNL     1      -6.363   6.910  71.500  1.00  0.00    -0.041 A  
HETATM   40  C   UNL     1      -5.486   7.770  72.172  1.00  0.00    -0.036 A  
HETATM   41  C   UNL     1      -5.411   9.112  71.824  1.00  0.00    -0.061 A  
HETATM   42  C   UNL     1      -7.306   4.790  65.934  1.00  0.00    -0.077 C  
HETATM   43  C   UNL     1      -7.304   3.372  66.594  1.00  0.00    -0.075 C  
HETATM   44  C   UNL     1      -6.231   9.634  70.822  1.00  0.00    -0.092 A  
HETATM   45  C   UNL     1      -7.699   3.342  68.112  1.00  0.00    -0.063 C  
HETATM   46  C   UNL     1      -7.094   8.751  70.158  1.00  0.00    -0.045 A  
HETATM   47  H   UNL     1      -8.282   9.932  68.870  1.00  0.00     0.000 HD 
HETATM   48  N   UNL     1      -8.705   4.313  68.540  1.00  0.00    -0.094 NA 
HETATM   49  N   UNL     1      -8.014   8.997  69.177  1.00  0.00    -0.099 NA 
HETATM   50  C   UNL     1      -8.378   5.232  69.660  1.00  0.00    -0.098 C  
HETATM   51  C   UNL     1      -9.316   4.915  67.400  1.00  0.00    -0.132 C  
HETATM   52  C   UNL     1      -8.105   6.770  69.512  1.00  0.00    -0.126 A  
HETATM   53  C   UNL     1      -8.539   7.830  68.652  1.00  0.00    -0.129 A  
BRANCH  35  54
HETATM   54  C   UNL     1     -10.886   7.475  67.830  1.00  0.00    -0.086 C  
HETATM   55  O   UNL     1     -11.830   7.201  67.101  1.00  0.00     0.976 OA 
BRANCH  54  56
HETATM   56  O   UNL     1     -10.946   7.452  69.214  1.00  0.00    -0.180 OA 
HETATM   57  C   UNL     1     -11.766   6.429  69.791  1.00  0.00    -0.191 C  
ENDBRANCH  54  56
ENDBRANCH  35  54
BRANCH  43  58
HETATM   58  C   UNL     1      -5.997   2.615  66.360  1.00  0.00    -0.023 C  
HETATM   59  C   UNL     1      -5.303   2.164  67.634  1.00  0.00    -0.017 C  
HETATM   60  F   UNL     1      -5.134   3.388  65.650  1.00  0.00    -0.007 F  
HETATM   61  F   UNL     1      -6.253   1.519  65.597  1.00  0.00    -0.019 F  
ENDBRANCH  43  58
ENDBRANCH  20  35
ENDBRANCH   2   3
TORSDOF 10
ENDMDL
MODEL       22
REMARK 921   NORMALIZED FREE ENERGY PREDICTED BY IDOCK:    4.64 KCAL/MOL
REMARK 922        TOTAL FREE ENERGY PREDICTED BY IDOCK:    7.37 KCAL/MOL
REMARK 923 INTER-LIGAND FREE ENERGY PREDICTED BY IDOCK:   -3.45 KCAL/MOL
REMARK 924 INTRA-LIGAND FREE ENERGY PREDICTED BY IDOCK:   10.83 KCAL/MOL
REMARK 927      BINDING AFFINITY PREDICTED BY RF-SCORE:    0.00 PKD
ROOT
HETATM    1  C   UNL     1      -5.344   8.156  62.386  1.00  0.00    -0.065 C  
HETATM    2  C   UNL     1      -6.374   9.290  62.692  1.00  0.00    -0.093 C  
ENDROOT
BRANCH   2   3
HETATM    3  C   UNL     1      -7.402   9.008  63.901  1.00  0.00    -0.097 C  
HETATM    4  C   UNL     1      -8.659   8.766  63.023  1.00  0.00    -0.095 C  
HETATM    5  C   UNL     1      -9.281   9.878  62.582  1.00  0.00    -0.297 C  
HETATM    6  C   UNL     1     -10.024  10.467  63.717  1.00  0.00    -0.258 C  
HETATM    7  N   UNL     1      -9.075  11.025  64.697  1.00  0.00    -0.164 NA 
HETATM    8  C   UNL     1      -9.813  11.183  65.946  1.00  0.00    -0.232 C  
HETATM    9  C   UNL     1      -9.109  10.387  67.006  1.00  0.00    -0.153 C  
HETATM   10  C   UNL     1      -7.653  10.188  66.512  1.00  0.00    -0.109 C  
HETATM   11  C   UNL     1      -7.732  10.334  64.925  1.00  0.00    -0.124 C  
HETATM   12  C   UNL     1      -6.927   8.880  66.952  1.00  0.00    -0.078 C  
HETATM   13  C   UNL     1      -7.421   7.617  66.233  1.00  0.00    -0.083 C  
HETATM   14  N   UNL     1      -6.930   8.911  68.449  1.00  0.00    -0.065 NA 
HETATM   15  C   UNL     1      -6.885  12.495  67.680  1.00  0.00    -0.136 A  
HETATM   16  O   UNL     1      -6.762   6.432  66.762  1.00  0.00    -0.056 OA 
HETATM   17  C   UNL     1      -7.075   7.675  64.703  1.00  0.00    -0.065 C  
HETATM   18  C   UNL     1      -6.122   8.019  69.272  1.00  0.00    -0.034 C  
HETATM   19  C   UNL     1      -6.612  10.301  68.656  1.00  0.00    -0.052 A  
HETATM   20  C   UNL     1      -6.447  13.095  68.917  1.00  0.00    -0.097 A  
HETATM   21  C   UNL     1      -6.941  11.107  67.541  1.00  0.00    -0.088 A  
HETATM   22  C   UNL     1      -6.028  12.229  69.978  1.00  0.00    -0.153 A  
HETATM   23  C   UNL     1      -6.136  10.849  69.841  1.00  0.00    -0.105 A  
HETATM   24  H   UNL     1      -7.067   5.649  66.318  1.00  0.00     0.000 HD 
BRANCH  13  25
HETATM   25  C   UNL     1      -8.923   7.359  66.495  1.00  0.00    -0.159 C  
HETATM   26  O   UNL     1      -9.843   8.111  66.198  1.00  0.00    -0.169 OA 
BRANCH  25  27
HETATM   27  O   UNL     1      -9.068   6.161  67.141  1.00  0.00    -0.114 OA 
HETATM   28  C   UNL     1      -9.804   5.119  66.486  1.00  0.00    -0.192 C  
ENDBRANCH  25  27
ENDBRANCH  13  25
BRANCH  17  29
HETATM   29  O   UNL     1      -5.758   7.076  64.392  1.00  0.00    -0.031 OA 
BRANCH  29  30
HETATM   30  C   UNL     1      -5.554   5.757  64.180  1.00  0.00    -0.017 C  
HETATM   31  C   UNL     1      -5.477   5.450  62.709  1.00  0.00    -0.014 C  
HETATM   32  O   UNL     1      -5.405   4.911  65.052  1.00  0.00    -0.012 OA 
ENDBRANCH  29  30
ENDBRANCH  17  29
BRANCH  22  33
HETATM   33  O   UNL     1      -5.501  12.764  71.116  1.00  0.00    -0.230 OA 
HETATM   34  C   UNL     1      -5.232  11.988  72.272  1.00  0.00     0.373 C  
ENDBRANCH  22  33
BRANCH  20  35
HETATM   35  C   UNL     1      -6.436  14.688  69.061  1.00  0.00    -0.097 C  
HETATM   36  C   UNL     1      -9.847  16.544  69.262  1.00  0.00    -0.218 A  
HETATM   37  C   UNL     1      -5.764  15.231  67.716  1.00  0.00    -0.127 C  
HETATM   38  C   UNL     1      -6.059  16.701  67.467  1.00  0.00    -0.180 C  
HETATM   39  C   UNL     1     -10.924  17.463  69.271  1.00  0.00     0.367 A  
HETATM   40  C   UNL     1     -12.243  17.008  69.145  1.00  0.00     2.362 A  
HETATM   41  C   UNL     1     -12.511  15.650  69.032  1.00  0.00     0.216 A  
HETATM   42  C   UNL     1      -5.765  17.424  66.149  1.00  0.00    -0.172 C  
HETATM   43  C   UNL     1      -5.734  18.968  66.395  1.00  0.00    -0.175 C  
HETATM   44  C   UNL     1     -11.476  14.715  69.074  1.00  0.00    -0.317 A  
HETATM   45  C   UNL     1      -6.516  19.457  67.664  1.00  0.00    -0.212 C  
HETATM   46  C   UNL     1     -10.165  15.196  69.191  1.00  0.00    -0.249 A  
HETATM   47  H   UNL     1      -8.924  13.500  69.410  1.00  0.00     0.000 HD 
HETATM   48  N   UNL     1      -6.499  18.563  68.821  1.00  0.00    -0.220 NA 
HETATM   49  N   UNL     1      -8.986  14.510  69.289  1.00  0.00     0.035 NA 
HETATM   50  C   UNL     1      -7.794  18.131  69.407  1.00  0.00     0.306 C  
HETATM   51  C   UNL     1      -5.530  17.534  68.627  1.00  0.00    -0.150 C  
HETATM   52  C   UNL     1      -8.394  16.685  69.296  1.00  0.00    -0.019 A  
HETATM   53  C   UNL     1      -7.889  15.348  69.204  1.00  0.00    -0.212 A  
BRANCH  35  54
HETATM   54  C   UNL     1      -5.701  15.084  70.409  1.00  0.00    -0.143 C  
HETATM   55  O   UNL     1      -5.266  14.294  71.236  1.00  0.00    -0.125 OA 
BRANCH  54  56
HETATM   56  O   UNL     1      -5.633  16.462  70.546  1.00  0.00    -0.171 OA 
HETATM   57  C   UNL     1      -5.188  16.945  71.819  1.00  0.00     0.427 C  
ENDBRANCH  54  56
ENDBRANCH  35  54
BRANCH  43  58
HETATM   58  C   UNL     1      -6.149  19.769  65.161  1.00  0.00    -0.237 C  
HETATM   59  C   UNL     1      -5.255  20.962  64.864  1.00  0.00    -0.233 C  
HETATM   60  F   UNL     1      -7.425  20.213  65.304  1.00  0.00    -0.334 F  
HETATM   61  F   UNL     1      -6.144  18.946  64.079  1.00  0.00    -0.310 F  
ENDBRANCH  43  58
ENDBRANCH  20  35
ENDBRANCH   2   3
TORSDOF 10
ENDMDL
MODEL       23
REMARK 921   NORMALIZED FREE ENERGY PREDICTED BY IDOCK:    4.68 KCAL/MOL
REMARK 922        TOTAL FREE ENERGY PREDICTED BY IDOCK:    7.44 KCAL/MOL
REMARK 923 INTER-LIGAND FREE ENERGY PREDICTED BY IDOCK:    6.42 KCAL/MOL
REMARK 924 INTRA-LIGAND FREE ENERGY PREDICTED BY IDOCK:    1.02 KCAL/MOL
REMARK 927      BINDING AFFINITY PREDICTED BY RF-SCORE:    0.00 PKD
ROOT
HETATM    1  C   UNL     1     -11.860   9.689  70.022  1.00  0.00    -0.009 C  
HETATM    2  C   UNL     1     -10.418   9.217  70.393  1.00  0.00    -0.268 C  
ENDROOT
BRANCH   2   3
HETATM    3  C   UNL     1      -9.290   9.424  69.261  1.00  0.00    -0.167 C  
HETATM    4  C   UNL     1      -8.146   8.679  70.000  1.00  0.00    -0.112 C  
HETATM    5  C   UNL     1      -7.509   9.393  70.950  1.00  0.00    -0.097 C  
HETATM    6  C   UNL     1      -6.619  10.362  70.273  1.00  0.00    -0.141 C  
HETATM    7  N   UNL     1      -7.428  11.401  69.611  1.00  0.00     0.129 NA 
HETATM    8  C   UNL     1      -6.557  12.044  68.632  1.00  0.00    -0.075 C  
HETATM    9  C   UNL     1      -7.194  11.902  67.281  1.00  0.00    -0.147 C  
HETATM   10  C   UNL     1      -8.703  11.645  67.530  1.00  0.00    -0.156 C  
HETATM   11  C   UNL     1      -8.778  11.033  69.002  1.00  0.00    -0.064 C  
HETATM   12  C   UNL     1      -9.455  10.768  66.484  1.00  0.00    -0.169 C  
HETATM   13  C   UNL     1      -9.113   9.273  66.555  1.00  0.00    -0.154 C  
HETATM   14  N   UNL     1      -9.296  11.487  65.179  1.00  0.00    -0.165 NA 
HETATM   15  C   UNL     1      -9.209  14.294  67.534  1.00  0.00    -0.197 A  
HETATM   16  O   UNL     1      -9.784   8.539  65.492  1.00  0.00    -0.421 OA 
HETATM   17  C   UNL     1      -9.611   8.653  67.909  1.00  0.00    -0.149 C  
HETATM   18  C   UNL     1     -10.068  11.161  63.985  1.00  0.00    -0.336 C  
HETATM   19  C   UNL     1      -9.509  12.839  65.628  1.00  0.00     0.052 A  
HETATM   20  C   UNL     1      -9.481  15.438  66.698  1.00  0.00    -0.281 A  
HETATM   21  C   UNL     1      -9.249  13.001  67.010  1.00  0.00    -0.232 A  
HETATM   22  C   UNL     1      -9.839  15.207  65.331  1.00  0.00    -0.274 A  
HETATM   23  C   UNL     1      -9.828  13.917  64.811  1.00  0.00     0.075 A  
HETATM   24  H   UNL     1      -9.572   7.614  65.536  1.00  0.00     0.000 HD 
BRANCH  13  25
HETATM   25  C   UNL     1      -7.610   9.016  66.299  1.00  0.00    -0.092 C  
HETATM   26  O   UNL     1      -6.769   8.762  67.153  1.00  0.00    -0.064 OA 
BRANCH  25  27
HETATM   27  O   UNL     1      -7.353   9.144  64.961  1.00  0.00    -0.097 OA 
HETATM   28  C   UNL     1      -6.133   9.780  64.560  1.00  0.00    -0.096 C  
ENDBRANCH  25  27
ENDBRANCH  13  25
BRANCH  17  29
HETATM   29  O   UNL     1     -10.986   8.113  67.819  1.00  0.00    -0.057 OA 
BRANCH  29  30
HETATM   30  C   UNL     1     -11.280   6.824  67.542  1.00  0.00    -0.167 C  
HETATM   31  C   UNL     1     -10.680   5.899  68.566  1.00  0.00    -0.327 C  
HETATM   32  O   UNL     1     -11.975   6.436  66.611  1.00  0.00     1.130 OA 
ENDBRANCH  29  30
ENDBRANCH  17  29
BRANCH  22  33
HETATM   33  O   UNL     1     -10.214  16.257  64.546  1.00  0.00     0.008 OA 
HETATM   34  C   UNL     1     -11.560  16.694  64.449  1.00  0.00     0.396 C  
ENDBRANCH  22  33
BRANCH  20  35
HETATM   35  C   UNL     1      -9.384  16.909  67.318  1.00  0.00    -0.238 C  
HETATM   36  C   UNL     1      -7.094  19.506  65.548  1.00  0.00    -0.262 A  
HETATM   37  C   UNL     1      -8.729  16.720  68.764  1.00  0.00    -0.258 C  
HETATM   38  C   UNL     1      -8.155  18.012  69.321  1.00  0.00     0.211 C  
HETATM   39  C   UNL     1      -6.284  20.602  65.162  1.00  0.00    -0.304 A  
HETATM   40  C   UNL     1      -5.402  20.485  64.081  1.00  0.00    -0.232 A  
HETATM   41  C   UNL     1      -5.325  19.300  63.361  1.00  0.00    -0.337 A  
HETATM   42  C   UNL     1      -7.255  18.088  70.557  1.00  0.00     2.434 C  
HETATM   43  C   UNL     1      -7.254  19.549  71.114  1.00  0.00     1.533 C  
HETATM   44  C   UNL     1      -6.148  18.218  63.682  1.00  0.00     2.439 A  
HETATM   45  C   UNL     1      -7.643  20.659  70.076  1.00  0.00     1.658 C  
HETATM   46  C   UNL     1      -7.015  18.358  64.774  1.00  0.00     1.497 A  
HETATM   47  H   UNL     1      -8.205  16.613  64.819  1.00  0.00     0.000 HD 
HETATM   48  N   UNL     1      -8.645  20.291  69.077  1.00  0.00     0.401 NA 
HETATM   49  N   UNL     1      -7.939  17.484  65.276  1.00  0.00     0.796 NA 
HETATM   50  C   UNL     1      -8.311  20.455  67.639  1.00  0.00    -0.228 C  
HETATM   51  C   UNL     1      -9.259  19.055  69.437  1.00  0.00     0.142 C  
HETATM   52  C   UNL     1      -8.035  19.276  66.640  1.00  0.00    -0.288 A  
HETATM   53  C   UNL     1      -8.469  17.921  66.476  1.00  0.00    -0.258 A  
BRANCH  35  54
HETATM   54  C   UNL     1     -10.820  17.581  67.293  1.00  0.00    -0.131 C  
HETATM   55  O   UNL     1     -11.066  18.710  66.890  1.00  0.00    -0.151 OA 
BRANCH  54  56
HETATM   56  O   UNL     1     -11.774  16.723  67.817  1.00  0.00     0.254 OA 
HETATM   57  C   UNL     1     -11.576  16.318  69.176  1.00  0.00    -0.213 C  
ENDBRANCH  54  56
ENDBRANCH  35  54
BRANCH  43  58
HETATM   58  C   UNL     1      -5.949  19.908  71.827  1.00  0.00    -0.217 C  
HETATM   59  C   UNL     1      -5.144  20.997  71.138  1.00  0.00    -0.089 C  
HETATM   60  F   UNL     1      -5.168  18.803  71.945  1.00  0.00    -0.362 F  
HETATM   61  F   UNL     1      -6.236  20.317  73.091  1.00  0.00     1.353 F  
ENDBRANCH  43  58
ENDBRANCH  20  35
ENDBRANCH   2   3
TORSDOF 10
ENDMDL
MODEL       24
REMARK 921   NORMALIZED FREE ENERGY PREDICTED BY IDOCK:    6.01 KCAL/MOL
REMARK 922        TOTAL FREE ENERGY PREDICTED BY IDOCK:    9.55 KCAL/MOL
REMARK 923 INTER-LIGAND FREE ENERGY PREDICTED BY IDOCK:    1.97 KCAL/MOL
REMARK 924 INTRA-LIGAND FREE ENERGY PREDICTED BY IDOCK:    7.58 KCAL/MOL
REMARK 927      BINDING AFFINITY PREDICTED BY RF-SCORE:    0.00 PKD
ROOT
HETATM    1  C   UNL     1      -7.281   7.904  63.855  1.00  0.00    -0.088 C  
HETATM    2  C   UNL     1      -7.788   9.352  64.147  1.00  0.00    -0.124 C  
ENDROOT
BRANCH   2   3
HETATM    3  C   UNL     1      -8.665   9.539  65.487  1.00  0.00    -0.180 C  
HETATM    4  C   UNL     1     -10.045   9.224  64.851  1.00  0.00     0.941 C  
HETATM    5  C   UNL     1     -10.619  10.242  64.178  1.00  0.00     0.720 C  
HETATM    6  C   UNL     1     -11.147  11.206  65.169  1.00  0.00    -0.009 C  
HETATM    7  N   UNL     1     -10.029  11.887  65.844  1.00  0.00    -0.228 NA 
HETATM    8  C   UNL     1     -10.575  12.470  67.066  1.00  0.00    -0.232 C  
HETATM    9  C   UNL     1      -9.807  11.912  68.229  1.00  0.00    -0.199 C  
HETATM   10  C   UNL     1      -8.455  11.408  67.664  1.00  0.00    -0.130 C  
HETATM   11  C   UNL     1      -8.734  11.125  66.119  1.00  0.00    -0.186 C  
HETATM   12  C   UNL     1      -7.796  10.190  68.380  1.00  0.00    -0.093 C  
HETATM   13  C   UNL     1      -8.494   8.850  68.108  1.00  0.00    -0.129 C  
HETATM   14  N   UNL     1      -7.594  10.628  69.798  1.00  0.00    -0.104 NA 
HETATM   15  C   UNL     1      -7.333  13.832  68.038  1.00  0.00    -0.134 A  
HETATM   16  O   UNL     1      -7.877   7.782  68.882  1.00  0.00    -0.117 OA 
HETATM   17  C   UNL     1      -8.353   8.446  66.598  1.00  0.00    -0.110 C  
HETATM   18  C   UNL     1      -6.765   9.901  70.753  1.00  0.00    -0.047 C  
HETATM   19  C   UNL     1      -7.128  11.971  69.565  1.00  0.00     0.165 A  
HETATM   20  C   UNL     1      -6.681  14.688  68.999  1.00  0.00    -0.103 A  
HETATM   21  C   UNL     1      -7.532  12.477  68.307  1.00  0.00    -0.122 A  
HETATM   22  C   UNL     1      -6.202  14.099  70.213  1.00  0.00    -0.146 A  
HETATM   23  C   UNL     1      -6.450  12.758  70.488  1.00  0.00     0.604 A  
HETATM   24  H   UNL     1      -8.308   6.952  68.713  1.00  0.00     0.000 HD 
BRANCH  13  25
HETATM   25  C   UNL     1      -9.963   8.860  68.588  1.00  0.00    -0.177 C  
HETATM   26  O   UNL     1     -10.954   8.854  67.867  1.00  0.00    -0.093 OA 
BRANCH  25  27
HETATM   27  O   UNL     1      -9.990   8.906  69.956  1.00  0.00    -0.179 OA 
HETATM   28  C   UNL     1     -11.254   9.097  70.605  1.00  0.00    -0.270 C  
ENDBRANCH  25  27
ENDBRANCH  13  25
BRANCH  17  29
HETATM   29  O   UNL     1      -7.149   7.627  66.335  1.00  0.00    -0.068 OA 
BRANCH  29  30
HETATM   30  C   UNL     1      -6.980   6.360  66.774  1.00  0.00    -0.067 C  
HETATM   31  C   UNL     1      -8.191   5.518  66.477  1.00  0.00    -0.105 C  
HETATM   32  O   UNL     1      -5.970   5.920  67.308  1.00  0.00    -0.017 OA 
ENDBRANCH  29  30
ENDBRANCH  17  29
BRANCH  22  33
HETATM   33  O   UNL     1      -5.480  14.855  71.089  1.00  0.00    -0.135 OA 
HETATM   34  C   UNL     1      -5.283  14.477  72.441  1.00  0.00    -0.162 C  
ENDBRANCH  22  33
BRANCH  20  35
HETATM   35  C   UNL     1      -6.508  16.246  68.679  1.00  0.00    -0.126 C  
HETATM   36  C   UNL     1      -9.714  18.398  68.216  1.00  0.00    -0.366 A  
HETATM   37  C   UNL     1      -5.775  16.310  67.261  1.00  0.00    -0.142 C  
HETATM   38  C   UNL     1      -5.917  17.666  66.589  1.00  0.00    -0.217 C  
HETATM   39  C   UNL     1     -10.692  19.378  67.921  1.00  0.00    -0.427 A  
HETATM   40  C   UNL     1     -12.049  19.035  67.884  1.00  0.00     3.254 A  
HETATM   41  C   UNL     1     -12.454  17.735  68.156  1.00  0.00     4.525 A  
HETATM   42  C   UNL     1      -5.541  17.945  65.131  1.00  0.00     0.062 C  
HETATM   43  C   UNL     1      -5.355  19.484  64.924  1.00  0.00    -0.205 C  
HETATM   44  C   UNL     1     -11.520  16.757  68.502  1.00  0.00     0.065 A  
HETATM   45  C   UNL     1      -6.092  20.392  65.971  1.00  0.00    -0.197 C  
HETATM   46  C   UNL     1     -10.167  17.124  68.523  1.00  0.00    -0.346 A  
HETATM   47  H   UNL     1      -9.107  15.453  69.265  1.00  0.00     0.000 HD 
HETATM   48  N   UNL     1      -6.175  19.873  67.335  1.00  0.00    -0.188 NA 
HETATM   49  N   UNL     1      -9.065  16.386  68.857  1.00  0.00    -0.249 NA 
HETATM   50  C   UNL     1      -7.511  19.755  67.973  1.00  0.00    -0.294 C  
HETATM   51  C   UNL     1      -5.315  18.745  67.480  1.00  0.00    -0.159 C  
HETATM   52  C   UNL     1      -8.255  18.403  68.260  1.00  0.00    -0.317 A  
HETATM   53  C   UNL     1      -7.887  17.055  68.575  1.00  0.00    -0.251 A  
BRANCH  35  54
HETATM   54  C   UNL     1      -5.746  16.943  69.882  1.00  0.00    -0.223 C  
HETATM   55  O   UNL     1      -5.131  16.357  70.764  1.00  0.00    -0.191 OA 
BRANCH  54  56
HETATM   56  O   UNL     1      -5.888  18.320  69.823  1.00  0.00    -0.228 OA 
HETATM   57  C   UNL     1      -5.305  19.059  70.903  1.00  0.00    -0.254 C  
ENDBRANCH  54  56
ENDBRANCH  35  54
BRANCH  43  58
HETATM   58  C   UNL     1      -5.678  19.930  63.498  1.00  0.00    -0.276 C  
HETATM   59  C   UNL     1      -5.138  19.005  62.420  1.00  0.00    -0.310 C  
HETATM   60  F   UNL     1      -5.187  21.178  63.281  1.00  0.00    -0.213 F  
HETATM   61  F   UNL     1      -7.028  20.015  63.358  1.00  0.00     0.564 F  
ENDBRANCH  43  58
ENDBRANCH  20  35
ENDBRANCH   2   3
TORSDOF 10
ENDMDL
MODEL       25
REMARK 921   NORMALIZED FREE ENERGY PREDICTED BY IDOCK:   13.12 KCAL/MOL
REMARK 922        TOTAL FREE ENERGY PREDICTED BY IDOCK:   20.81 KCAL/MOL
REMARK 923 INTER-LIGAND FREE ENERGY PREDICTED BY IDOCK:   14.93 KCAL/MOL
REMARK 924 INTRA-LIGAND FREE ENERGY PREDICTED BY IDOCK:    5.88 KCAL/MOL
REMARK 927      BINDING AFFINITY PREDICTED BY RF-SCORE:    0.00 PKD
ROOT
HETATM    1  C   UNL     1     -12.630  15.017  64.665  1.00  0.00     0.014 C  
HETATM    2  C   UNL     1     -12.976  14.819  66.176  1.00  0.00     0.827 C  
ENDROOT
BRANCH   2   3
HETATM    3  C   UNL     1     -11.723  14.770  67.190  1.00  0.00    -0.351 C  
HETATM    4  C   UNL     1     -10.850  15.823  66.456  1.00  0.00    -0.230 C  
HETATM    5  C   UNL     1     -10.167  15.366  65.386  1.00  0.00    -0.408 C  
HETATM    6  C   UNL     1      -9.025  14.566  65.881  1.00  0.00     0.382 C  
HETATM    7  N   UNL     1      -9.517  13.313  66.479  1.00  0.00    -0.259 NA 
HETATM    8  C   UNL     1      -8.434  12.797  67.311  1.00  0.00    -0.194 C  
HETATM    9  C   UNL     1      -8.951  12.662  68.713  1.00  0.00     0.170 C  
HETATM   10  C   UNL     1     -10.496  12.590  68.609  1.00  0.00    -0.220 C  
HETATM   11  C   UNL     1     -10.848  13.304  67.226  1.00  0.00    -0.264 C  
HETATM   12  C   UNL     1     -11.316  13.169  69.801  1.00  0.00    -0.049 C  
HETATM   13  C   UNL     1     -11.319  14.703  69.874  1.00  0.00    -0.259 C  
HETATM   14  N   UNL     1     -10.876  12.387  71.000  1.00  0.00     3.440 NA 
HETATM   15  C   UNL     1     -10.407   9.907  68.342  1.00  0.00    -0.226 A  
HETATM   16  O   UNL     1     -12.026  15.161  71.061  1.00  0.00    -0.284 OA 
HETATM   17  C   UNL     1     -12.071  15.317  68.641  1.00  0.00    -0.130 C  
HETATM   18  C   UNL     1     -11.578  12.414  72.278  1.00  0.00     4.833 C  
HETATM   19  C   UNL     1     -10.829  11.070  70.417  1.00  0.00     0.437 A  
HETATM   20  C   UNL     1     -10.337   8.658  69.061  1.00  0.00    -0.226 A  
HETATM   21  C   UNL     1     -10.678  11.102  69.011  1.00  0.00    -0.265 A  
HETATM   22  C   UNL     1     -10.601   8.672  70.468  1.00  0.00    -0.217 A  
HETATM   23  C   UNL     1     -10.822   9.877  71.129  1.00  0.00    -0.226 A  
HETATM   24  H   UNL     1     -12.028  16.110  71.106  1.00  0.00     0.000 HD 
BRANCH  13  25
HETATM   25  C   UNL     1      -9.891  15.272  70.045  1.00  0.00    -0.054 C  
HETATM   26  O   UNL     1      -9.039  14.853  70.820  1.00  0.00     1.253 OA 
BRANCH  25  27
HETATM   27  O   UNL     1      -9.730  16.344  69.209  1.00  0.00    -0.256 OA 
HETATM   28  C   UNL     1      -8.421  16.613  68.692  1.00  0.00    -0.253 C  
ENDBRANCH  25  27
ENDBRANCH  13  25
BRANCH  17  29
HETATM   29  O   UNL     1     -13.515  15.518  68.894  1.00  0.00     2.014 OA 
BRANCH  29  30
HETATM   30  C   UNL     1     -14.119  15.286  70.080  1.00  0.00     1.505 C  
HETATM   31  C   UNL     1     -14.395  13.820  70.271  1.00  0.00     3.453 C  
HETATM   32  O   UNL     1     -14.379  16.134  70.924  1.00  0.00     0.733 OA 
ENDBRANCH  29  30
ENDBRANCH  17  29
BRANCH  22  33
HETATM   33  O   UNL     1     -10.658   7.495  71.154  1.00  0.00    -0.220 OA 
HETATM   34  C   UNL     1     -11.297   7.377  72.415  1.00  0.00    -0.297 C  
ENDBRANCH  22  33
BRANCH  20  35
HETATM   35  C   UNL     1      -9.981   7.313  68.272  1.00  0.00    -0.177 C  
HETATM   36  C   UNL     1      -7.173   5.032  69.697  1.00  0.00    -0.056 A  
HETATM   37  C   UNL     1      -9.428   7.787  66.850  1.00  0.00    -0.238 C  
HETATM   38  C   UNL     1      -8.636   6.702  66.138  1.00  0.00    -0.148 C  
HETATM   39  C   UNL     1      -6.154   4.079  69.941  1.00  0.00    -0.023 A  
HETATM   40  C   UNL     1      -5.273   4.245  71.016  1.00  0.00     0.000 A  
HETATM   41  C   UNL     1      -5.400   5.334  71.869  1.00  0.00    -0.009 A  
HETATM   42  C   UNL     1      -7.783   6.941  64.890  1.00  0.00    -0.113 C  
HETATM   43  C   UNL     1      -7.521   5.580  64.166  1.00  0.00    -0.062 C  
HETATM   44  C   UNL     1      -6.426   6.263  71.688  1.00  0.00    -0.053 A  
HETATM   45  C   UNL     1      -7.652   4.307  65.073  1.00  0.00    -0.077 C  
HETATM   46  C   UNL     1      -7.289   6.079  70.598  1.00  0.00    -0.085 A  
HETATM   47  H   UNL     1      -8.793   7.553  70.773  1.00  0.00     0.000 HD 
HETATM   48  N   UNL     1      -8.669   4.358  66.121  1.00  0.00    -0.113 NA 
HETATM   49  N   UNL     1      -8.381   6.807  70.214  1.00  0.00    -0.132 NA 
HETATM   50  C   UNL     1      -8.259   4.104  67.526  1.00  0.00    -0.098 C  
HETATM   51  C   UNL     1      -9.522   5.483  65.917  1.00  0.00    -0.096 C  
HETATM   52  C   UNL     1      -8.179   5.195  68.652  1.00  0.00    -0.085 A  
HETATM   53  C   UNL     1      -8.860   6.412  68.978  1.00  0.00    -0.129 A  
BRANCH  35  54
HETATM   54  C   UNL     1     -11.260   6.375  68.238  1.00  0.00    -0.176 C  
HETATM   55  O   UNL     1     -11.969   6.181  67.260  1.00  0.00     1.286 OA 
BRANCH  54  56
HETATM   56  O   UNL     1     -11.492   5.814  69.484  1.00  0.00    -0.141 OA 
HETATM   57  C   UNL     1     -10.899   4.531  69.716  1.00  0.00     1.570 C  
ENDBRANCH  54  56
ENDBRANCH  35  54
BRANCH  43  58
HETATM   58  C   UNL     1      -6.198   5.565  63.399  1.00  0.00    -0.022 C  
HETATM   59  C   UNL     1      -5.866   6.877  62.708  1.00  0.00    -0.040 C  
HETATM   60  F   UNL     1      -6.215   4.578  62.466  1.00  0.00    -0.016 F  
HETATM   61  F   UNL     1      -5.192   5.266  64.263  1.00  0.00    -0.009 F  
ENDBRANCH  43  58
ENDBRANCH  20  35
ENDBRANCH   2   3
TORSDOF 10
ENDMDL
MODEL       26
REMARK 921   NORMALIZED FREE ENERGY PREDICTED BY IDOCK:   13.79 KCAL/MOL
REMARK 922        TOTAL FREE ENERGY PREDICTED BY IDOCK:   21.87 KCAL/MOL
REMARK 923 INTER-LIGAND FREE ENERGY PREDICTED BY IDOCK:   19.28 KCAL/MOL
REMARK 924 INTRA-LIGAND FREE ENERGY PREDICTED BY IDOCK:    2.59 KCAL/MOL
REMARK 927      BINDING AFFINITY PREDICTED BY RF-SCORE:    0.00 PKD
ROOT
HETATM    1  C   UNL     1     -11.079   8.204  72.147  1.00  0.00    -0.386 C  
HETATM    2  C   UNL     1     -10.288   6.990  71.563  1.00  0.00    -0.218 C  
ENDROOT
BRANCH   2   3
HETATM    3  C   UNL     1      -9.104   7.346  70.529  1.00  0.00    -0.157 C  
HETATM    4  C   UNL     1      -7.922   7.054  71.492  1.00  0.00    -0.103 C  
HETATM    5  C   UNL     1      -7.630   8.038  72.367  1.00  0.00    -0.139 C  
HETATM    6  C   UNL     1      -6.935   9.115  71.628  1.00  0.00     0.077 C  
HETATM    7  N   UNL     1      -7.883   9.790  70.724  1.00  0.00    -0.277 NA 
HETATM    8  C   UNL     1      -7.079  10.510  69.742  1.00  0.00    -0.150 C  
HETATM    9  C   UNL     1      -7.462  10.017  68.377  1.00  0.00    -0.082 C  
HETATM   10  C   UNL     1      -8.872   9.389  68.516  1.00  0.00    -0.128 C  
HETATM   11  C   UNL     1      -8.993   8.984  70.055  1.00  0.00    -0.175 C  
HETATM   12  C   UNL     1      -9.218   8.205  67.562  1.00  0.00    -0.137 C  
HETATM   13  C   UNL     1      -8.516   6.887  67.918  1.00  0.00    -0.120 C  
HETATM   14  N   UNL     1      -9.069   8.756  66.178  1.00  0.00    -0.188 NA 
HETATM   15  C   UNL     1     -10.040  11.769  68.025  1.00  0.00    -0.198 A  
HETATM   16  O   UNL     1      -8.819   5.860  66.932  1.00  0.00    -0.114 OA 
HETATM   17  C   UNL     1      -9.022   6.342  69.300  1.00  0.00    -0.125 C  
HETATM   18  C   UNL     1      -9.555   8.072  64.985  1.00  0.00     1.383 C  
HETATM   19  C   UNL     1      -9.684  10.045  66.371  1.00  0.00    -0.210 A  
HETATM   20  C   UNL     1     -10.478  12.670  66.986  1.00  0.00    -0.244 A  
HETATM   21  C   UNL     1      -9.671  10.457  67.724  1.00  0.00    -0.181 A  
HETATM   22  C   UNL     1     -10.568  12.167  65.648  1.00  0.00    -0.262 A  
HETATM   23  C   UNL     1     -10.152  10.872  65.357  1.00  0.00    -0.336 A  
HETATM   24  H   UNL     1      -8.384   5.043  67.151  1.00  0.00     0.000 HD 
BRANCH  13  25
HETATM   25  C   UNL     1      -6.977   7.023  67.858  1.00  0.00    -0.083 C  
HETATM   26  O   UNL     1      -6.289   7.723  68.591  1.00  0.00    -0.041 OA 
BRANCH  25  27
HETATM   27  O   UNL     1      -6.497   6.256  66.831  1.00  0.00    -0.043 OA 
HETATM   28  C   UNL     1      -5.135   6.442  66.423  1.00  0.00    -0.013 C  
ENDBRANCH  25  27
ENDBRANCH  13  25
BRANCH  17  29
HETATM   29  O   UNL     1     -10.184   5.436  69.167  1.00  0.00    -0.202 OA 
BRANCH  29  30
HETATM   30  C   UNL     1     -11.279   5.707  68.423  1.00  0.00     0.479 C  
HETATM   31  C   UNL     1     -12.096   6.809  69.043  1.00  0.00     1.222 C  
HETATM   32  O   UNL     1     -11.570   5.173  67.361  1.00  0.00     1.950 OA 
ENDBRANCH  29  30
ENDBRANCH  17  29
BRANCH  22  33
HETATM   33  O   UNL     1     -11.088  12.956  64.666  1.00  0.00    -0.298 OA 
HETATM   34  C   UNL     1     -11.443  12.451  63.389  1.00  0.00    -0.448 C  
ENDBRANCH  22  33
BRANCH  20  35
HETATM   35  C   UNL     1     -10.851  14.181  67.357  1.00  0.00    -0.291 C  
HETATM   36  C   UNL     1      -7.987  16.808  67.486  1.00  0.00    -0.189 A  
HETATM   37  C   UNL     1     -11.411  14.126  68.853  1.00  0.00    -0.308 C  
HETATM   38  C   UNL     1     -11.402  15.486  69.531  1.00  0.00    -0.317 C  
HETATM   39  C   UNL     1      -7.145  17.929  67.684  1.00  0.00    -0.202 A  
HETATM   40  C   UNL     1      -5.757  17.802  67.555  1.00  0.00    -0.151 A  
HETATM   41  C   UNL     1      -5.190  16.582  67.210  1.00  0.00    -0.147 A  
HETATM   42  C   UNL     1     -11.640  15.699  71.029  1.00  0.00    -0.434 C  
HETATM   43  C   UNL     1     -12.038  17.189  71.289  1.00  0.00     2.743 C  
HETATM   44  C   UNL     1      -5.995  15.471  66.955  1.00  0.00     0.515 A  
HETATM   45  C   UNL     1     -11.581  18.203  70.183  1.00  0.00     4.909 C  
HETATM   46  C   UNL     1      -7.381  15.621  67.101  1.00  0.00    -0.212 A  
HETATM   47  H   UNL     1      -8.250  13.807  66.454  1.00  0.00     0.000 HD 
HETATM   48  N   UNL     1     -11.582  17.708  68.807  1.00  0.00     1.237 NA 
HETATM   49  N   UNL     1      -8.387  14.721  66.884  1.00  0.00    -0.194 NA 
HETATM   50  C   UNL     1     -10.329  17.802  68.015  1.00  0.00    -0.393 C  
HETATM   51  C   UNL     1     -12.267  16.458  68.741  1.00  0.00     0.736 C  
HETATM   52  C   UNL     1      -9.424  16.584  67.613  1.00  0.00    -0.225 A  
HETATM   53  C   UNL     1      -9.612  15.196  67.316  1.00  0.00    -0.209 A  
BRANCH  35  54
HETATM   54  C   UNL     1     -11.851  14.752  66.267  1.00  0.00    -0.209 C  
HETATM   55  O   UNL     1     -12.951  14.286  66.001  1.00  0.00    -0.303 OA 
BRANCH  54  56
HETATM   56  O   UNL     1     -11.301  15.850  65.623  1.00  0.00    -0.068 OA 
HETATM   57  C   UNL     1     -11.123  15.724  64.207  1.00  0.00     0.020 C  
ENDBRANCH  54  56
ENDBRANCH  35  54
BRANCH  43  58
HETATM   58  C   UNL     1     -11.620  17.676  72.676  1.00  0.00     1.899 C  
HETATM   59  C   UNL     1     -10.144  18.019  72.797  1.00  0.00     6.869 C  
HETATM   60  F   UNL     1     -11.921  16.736  73.608  1.00  0.00    -0.545 F  
HETATM   61  F   UNL     1     -12.347  18.781  72.992  1.00  0.00     4.696 F  
ENDBRANCH  43  58
ENDBRANCH  20  35
ENDBRANCH   2   3
TORSDOF 10
ENDMDL
MODEL       27
REMARK 921   NORMALIZED FREE ENERGY PREDICTED BY IDOCK:   18.62 KCAL/MOL
REMARK 922        TOTAL FREE ENERGY PREDICTED BY IDOCK:   29.53 KCAL/MOL
REMARK 923 INTER-LIGAND FREE ENERGY PREDICTED BY IDOCK:   26.13 KCAL/MOL
REMARK 924 INTRA-LIGAND FREE ENERGY PREDICTED BY IDOCK:    3.40 KCAL/MOL
REMARK 927      BINDING AFFINITY PREDICTED BY RF-SCORE:    0.00 PKD
ROOT
HETATM    1  C   UNL     1     -11.780   9.037  70.123  1.00  0.00     0.081 C  
HETATM    2  C   UNL     1     -10.489   8.286  70.582  1.00  0.00    -0.224 C  
ENDROOT
BRANCH   2   3
HETATM    3  C   UNL     1      -9.127   8.682  69.815  1.00  0.00    -0.150 C  
HETATM    4  C   UNL     1      -8.149   8.259  70.943  1.00  0.00    -0.105 C  
HETATM    5  C   UNL     1      -7.998   9.150  71.944  1.00  0.00     0.336 C  
HETATM    6  C   UNL     1      -7.153  10.258  71.446  1.00  0.00     1.534 C  
HETATM    7  N   UNL     1      -7.904  11.048  70.454  1.00  0.00     0.986 NA 
HETATM    8  C   UNL     1      -6.916  11.818  69.703  1.00  0.00     0.097 C  
HETATM    9  C   UNL     1      -7.056  11.461  68.252  1.00  0.00    -0.078 C  
HETATM   10  C   UNL     1      -8.483  10.881  68.076  1.00  0.00    -0.130 C  
HETATM   11  C   UNL     1      -8.893  10.349  69.524  1.00  0.00    -0.092 C  
HETATM   12  C   UNL     1      -8.678   9.801  66.970  1.00  0.00    -0.135 C  
HETATM   13  C   UNL     1      -8.084   8.429  67.321  1.00  0.00    -0.105 C  
HETATM   14  N   UNL     1      -8.265  10.464  65.692  1.00  0.00    -0.154 NA 
HETATM   15  C   UNL     1      -9.484  13.342  67.608  1.00  0.00    -0.211 A  
HETATM   16  O   UNL     1      -8.227   7.505  66.205  1.00  0.00    -0.112 OA 
HETATM   17  C   UNL     1      -8.847   7.786  68.533  1.00  0.00    -0.130 C  
HETATM   18  C   UNL     1      -8.541   9.907  64.372  1.00  0.00    -0.185 C  
HETATM   19  C   UNL     1      -8.874  11.755  65.890  1.00  0.00    -0.003 A  
HETATM   20  C   UNL     1      -9.702  14.347  66.596  1.00  0.00    -0.289 A  
HETATM   21  C   UNL     1      -9.098  12.047  67.257  1.00  0.00    -0.178 A  
HETATM   22  C   UNL     1      -9.559  13.966  65.222  1.00  0.00     0.148 A  
HETATM   23  C   UNL     1      -9.128  12.686  64.891  1.00  0.00     0.942 A  
HETATM   24  H   UNL     1      -7.860   6.656  66.422  1.00  0.00     0.000 HD 
BRANCH  13  25
HETATM   25  C   UNL     1      -6.558   8.507  67.551  1.00  0.00    -0.058 C  
HETATM   26  O   UNL     1      -5.746   9.046  66.808  1.00  0.00    -0.046 OA 
BRANCH  25  27
HETATM   27  O   UNL     1      -6.243   7.850  68.709  1.00  0.00    -0.038 OA 
HETATM   28  C   UNL     1      -5.208   6.859  68.670  1.00  0.00    -0.016 C  
ENDBRANCH  25  27
ENDBRANCH  13  25
BRANCH  17  29
HETATM   29  O   UNL     1      -9.988   6.944  68.109  1.00  0.00    -0.147 OA 
BRANCH  29  30
HETATM   30  C   UNL     1     -10.015   5.596  68.206  1.00  0.00    -0.155 C  
HETATM   31  C   UNL     1     -10.318   4.963  66.875  1.00  0.00    -0.237 C  
HETATM   32  O   UNL     1      -9.785   4.950  69.220  1.00  0.00    -0.156 OA 
ENDBRANCH  29  30
ENDBRANCH  17  29
BRANCH  22  33
HETATM   33  O   UNL     1      -9.872  14.859  64.241  1.00  0.00     0.625 OA 
HETATM   34  C   UNL     1     -11.142  14.887  63.611  1.00  0.00     1.705 C  
ENDBRANCH  22  33
BRANCH  20  35
HETATM   35  C   UNL     1     -10.100  15.833  67.033  1.00  0.00    -0.261 C  
HETATM   36  C   UNL     1      -7.784  18.758  65.936  1.00  0.00    -0.150 A  
HETATM   37  C   UNL     1     -10.026  15.842  68.629  1.00  0.00    -0.208 C  
HETATM   38  C   UNL     1      -9.937  17.246  69.203  1.00  0.00    -0.211 C  
HETATM   39  C   UNL     1      -7.087  19.976  65.749  1.00  0.00    -0.324 A  
HETATM   40  C   UNL     1      -5.853  19.992  65.089  1.00  0.00    -0.237 A  
HETATM   41  C   UNL     1      -5.307  18.816  64.590  1.00  0.00    -0.240 A  
HETATM   42  C   UNL     1      -9.604  17.555  70.666  1.00  0.00     3.484 C  
HETATM   43  C   UNL     1     -10.064  19.010  71.011  1.00  0.00     2.522 C  
HETATM   44  C   UNL     1      -5.993  17.606  64.710  1.00  0.00     1.304 A  
HETATM   45  C   UNL     1     -10.209  19.973  69.781  1.00  0.00     0.271 C  
HETATM   46  C   UNL     1      -7.222  17.617  65.384  1.00  0.00     0.764 A  
HETATM   47  H   UNL     1      -8.024  15.671  65.192  1.00  0.00     0.000 HD 
HETATM   48  N   UNL     1     -10.675  19.368  68.534  1.00  0.00     0.013 NA 
HETATM   49  N   UNL     1      -8.105  16.597  65.610  1.00  0.00     0.092 NA 
HETATM   50  C   UNL     1      -9.850  19.532  67.310  1.00  0.00    -0.357 C  
HETATM   51  C   UNL     1     -11.160  18.050  68.785  1.00  0.00     0.835 C  
HETATM   52  C   UNL     1      -9.017  18.391  66.626  1.00  0.00    -0.295 A  
HETATM   53  C   UNL     1      -9.120  16.970  66.473  1.00  0.00    -0.264 A  
BRANCH  35  54
HETATM   54  C   UNL     1     -11.509  16.201  66.405  1.00  0.00     0.542 C  
HETATM   55  O   UNL     1     -12.062  17.289  66.496  1.00  0.00     2.587 OA 
BRANCH  54  56
HETATM   56  O   UNL     1     -12.057  15.108  65.750  1.00  0.00     0.029 OA 
HETATM   57  C   UNL     1     -13.471  14.933  65.895  1.00  0.00     1.990 C  
ENDBRANCH  54  56
ENDBRANCH  35  54
BRANCH  43  58
HETATM   58  C   UNL     1      -9.212  19.653  72.105  1.00  0.00     3.970 C  
HETATM   59  C   UNL     1      -7.720  19.650  71.814  1.00  0.00     2.881 C  
HETATM   60  F   UNL     1      -9.422  19.020  73.288  1.00  0.00     3.122 F  
HETATM   61  F   UNL     1      -9.615  20.940  72.277  1.00  0.00     0.955 F  
ENDBRANCH  43  58
ENDBRANCH  20  35
ENDBRANCH   2   3
TORSDOF 10
ENDMDL
MODEL       28
REMARK 921   NORMALIZED FREE ENERGY PREDICTED BY IDOCK:   20.68 KCAL/MOL
REMARK 922        TOTAL FREE ENERGY PREDICTED BY IDOCK:   32.78 KCAL/MOL
REMARK 923 INTER-LIGAND FREE ENERGY PREDICTED BY IDOCK:   31.31 KCAL/MOL
REMARK 924 INTRA-LIGAND FREE ENERGY PREDICTED BY IDOCK:    1.47 KCAL/MOL
REMARK 927      BINDING AFFINITY PREDICTED BY RF-SCORE:    0.00 PKD
ROOT
HETATM    1  C   UNL     1      -8.044   2.649  69.328  1.00  0.00    -0.063 C  
HETATM    2  C   UNL     1      -8.220   4.143  69.749  1.00  0.00    -0.068 C  
ENDROOT
BRANCH   2   3
HETATM    3  C   UNL     1      -9.712   4.741  69.635  1.00  0.00    -0.272 C  
HETATM    4  C   UNL     1     -10.266   3.672  68.656  1.00  0.00     0.810 C  
HETATM    5  C   UNL     1      -9.954   3.857  67.357  1.00  0.00     0.058 C  
HETATM    6  C   UNL     1     -10.793   4.960  66.838  1.00  0.00     0.335 C  
HETATM    7  N   UNL     1     -10.361   6.236  67.435  1.00  0.00    -0.180 NA 
HETATM    8  C   UNL     1     -11.460   7.178  67.240  1.00  0.00     0.570 C  
HETATM    9  C   UNL     1     -11.884   7.681  68.589  1.00  0.00     1.758 C  
HETATM   10  C   UNL     1     -10.686   7.446  69.544  1.00  0.00    -0.233 C  
HETATM   11  C   UNL     1      -9.850   6.264  68.873  1.00  0.00    -0.134 C  
HETATM   12  C   UNL     1     -11.016   7.164  71.041  1.00  0.00    -0.252 C  
HETATM   13  C   UNL     1     -11.594   5.766  71.303  1.00  0.00     0.120 C  
HETATM   14  N   UNL     1     -11.780   8.364  71.509  1.00  0.00    -0.277 NA 
HETATM   15  C   UNL     1      -9.652   9.860  68.927  1.00  0.00    -0.172 A  
HETATM   16  O   UNL     1     -11.960   5.614  72.704  1.00  0.00    -0.466 OA 
HETATM   17  C   UNL     1     -10.526   4.657  70.998  1.00  0.00     0.021 C  
HETATM   18  C   UNL     1     -12.054   8.643  72.915  1.00  0.00     0.225 C  
HETATM   19  C   UNL     1     -11.003   9.399  70.877  1.00  0.00    -0.320 A  
HETATM   20  C   UNL     1      -9.698  11.269  69.233  1.00  0.00     0.110 A  
HETATM   21  C   UNL     1     -10.277   8.928  69.757  1.00  0.00    -0.207 A  
HETATM   22  C   UNL     1     -10.360  11.679  70.435  1.00  0.00     2.360 A  
HETATM   23  C   UNL     1     -11.019  10.744  71.227  1.00  0.00     1.438 A  
HETATM   24  H   UNL     1     -12.317   4.749  72.867  1.00  0.00     0.000 HD 
BRANCH  13  25
HETATM   25  C   UNL     1     -12.921   5.542  70.542  1.00  0.00     5.760 C  
HETATM   26  O   UNL     1     -13.031   5.100  69.405  1.00  0.00    10.214 OA 
BRANCH  25  27
HETATM   27  O   UNL     1     -13.965   5.942  71.331  1.00  0.00     1.532 OA 
HETATM   28  C   UNL     1     -14.341   7.325  71.312  1.00  0.00    -0.194 C  
ENDBRANCH  25  27
ENDBRANCH  13  25
BRANCH  17  29
HETATM   29  O   UNL     1      -9.711   4.306  72.181  1.00  0.00    -0.145 OA 
BRANCH  29  30
HETATM   30  C   UNL     1     -10.065   3.382  73.102  1.00  0.00    -0.144 C  
HETATM   31  C   UNL     1      -9.196   2.158  73.003  1.00  0.00    -0.092 C  
HETATM   32  O   UNL     1     -10.944   3.515  73.943  1.00  0.00    -0.216 OA 
ENDBRANCH  29  30
ENDBRANCH  17  29
BRANCH  22  33
HETATM   33  O   UNL     1     -10.320  12.988  70.813  1.00  0.00     3.522 OA 
HETATM   34  C   UNL     1     -11.476  13.810  70.840  1.00  0.00     0.522 C  
ENDBRANCH  22  33
BRANCH  20  35
HETATM   35  C   UNL     1      -9.010  12.316  68.238  1.00  0.00    -0.182 C  
HETATM   36  C   UNL     1      -6.483  14.874  69.719  1.00  0.00    -0.164 A  
HETATM   37  C   UNL     1     -10.204  13.215  67.673  1.00  0.00    -0.224 C  
HETATM   38  C   UNL     1      -9.717  14.523  67.071  1.00  0.00    -0.247 C  
HETATM   39  C   UNL     1      -5.607  15.951  69.998  1.00  0.00    -0.155 A  
HETATM   40  C   UNL     1      -5.219  16.224  71.316  1.00  0.00    -0.035 A  
HETATM   41  C   UNL     1      -5.670  15.429  72.361  1.00  0.00     0.772 A  
HETATM   42  C   UNL     1     -10.638  15.684  66.684  1.00  0.00    -0.307 C  
HETATM   43  C   UNL     1      -9.896  16.628  65.683  1.00  0.00    -0.147 C  
HETATM   44  C   UNL     1      -6.492  14.328  72.114  1.00  0.00     1.275 A  
HETATM   45  C   UNL     1      -8.329  16.551  65.730  1.00  0.00     0.381 C  
HETATM   46  C   UNL     1      -6.874  14.082  70.788  1.00  0.00     0.728 A  
HETATM   47  H   UNL     1      -7.935  12.255  70.801  1.00  0.00     0.000 HD 
HETATM   48  N   UNL     1      -7.752  15.238  66.013  1.00  0.00     1.285 NA 
HETATM   49  N   UNL     1      -7.631  13.069  70.268  1.00  0.00     1.947 NA 
HETATM   50  C   UNL     1      -6.807  15.106  67.151  1.00  0.00     0.118 C  
HETATM   51  C   UNL     1      -8.761  14.234  65.922  1.00  0.00     0.915 C  
HETATM   52  C   UNL     1      -7.125  14.378  68.505  1.00  0.00    -0.109 A  
HETATM   53  C   UNL     1      -7.935  13.279  68.935  1.00  0.00     0.140 A  
BRANCH  35  54
HETATM   54  C   UNL     1      -8.167  11.525  67.153  1.00  0.00    -0.161 C  
HETATM   55  O   UNL     1      -6.980  11.239  67.249  1.00  0.00    -0.093 OA 
BRANCH  54  56
HETATM   56  O   UNL     1      -8.949  11.215  66.052  1.00  0.00    -0.191 OA 
HETATM   57  C   UNL     1      -8.865   9.865  65.580  1.00  0.00    -0.158 C  
ENDBRANCH  54  56
ENDBRANCH  35  54
BRANCH  43  58
HETATM   58  C   UNL     1     -10.370  18.078  65.779  1.00  0.00    -0.175 C  
HETATM   59  C   UNL     1     -10.761  18.512  67.182  1.00  0.00    -0.396 C  
HETATM   60  F   UNL     1     -11.432  18.275  64.956  1.00  0.00     0.270 F  
HETATM   61  F   UNL     1      -9.378  18.896  65.335  1.00  0.00     0.306 F  
ENDBRANCH  43  58
ENDBRANCH  20  35
ENDBRANCH   2   3
TORSDOF 10
ENDMDL
MODEL       29
REMARK 921   NORMALIZED FREE ENERGY PREDICTED BY IDOCK:   23.88 KCAL/MOL
REMARK 922        TOTAL FREE ENERGY PREDICTED BY IDOCK:   37.86 KCAL/MOL
REMARK 923 INTER-LIGAND FREE ENERGY PREDICTED BY IDOCK:   33.57 KCAL/MOL
REMARK 924 INTRA-LIGAND FREE ENERGY PREDICTED BY IDOCK:    4.29 KCAL/MOL
REMARK 927      BINDING AFFINITY PREDICTED BY RF-SCORE:    0.00 PKD
ROOT
HETATM    1  C   UNL     1      -8.935  16.474  72.701  1.00  0.00    14.068 C  
HETATM    2  C   UNL     1      -8.459  15.615  71.486  1.00  0.00     5.194 C  
ENDROOT
BRANCH   2   3
HETATM    3  C   UNL     1      -9.370  15.696  70.159  1.00  0.00     0.408 C  
HETATM    4  C   UNL     1     -10.562  16.457  70.799  1.00  0.00     0.512 C  
HETATM    5  C   UNL     1     -11.426  15.695  71.501  1.00  0.00    -0.494 C  
HETATM    6  C   UNL     1     -12.254  14.936  70.538  1.00  0.00    -0.329 C  
HETATM    7  N   UNL     1     -11.429  13.914  69.870  1.00  0.00    -0.223 NA 
HETATM    8  C   UNL     1     -12.155  13.516  68.667  1.00  0.00    -0.268 C  
HETATM    9  C   UNL     1     -11.266  13.770  67.485  1.00  0.00    -0.316 C  
HETATM   10  C   UNL     1      -9.814  13.818  68.026  1.00  0.00    -0.239 C  
HETATM   11  C   UNL     1      -9.962  14.207  69.567  1.00  0.00     0.388 C  
HETATM   12  C   UNL     1      -8.807  14.740  67.275  1.00  0.00    -0.204 C  
HETATM   13  C   UNL     1      -9.025  16.239  67.521  1.00  0.00    -0.187 C  
HETATM   14  N   UNL     1      -8.781  14.232  65.867  1.00  0.00     0.649 NA 
HETATM   15  C   UNL     1      -9.549  11.153  67.702  1.00  0.00    -0.180 A  
HETATM   16  O   UNL     1      -8.106  17.032  66.716  1.00  0.00    -0.200 OA 
HETATM   17  C   UNL     1      -8.736  16.605  69.020  1.00  0.00    -0.193 C  
HETATM   18  C   UNL     1      -7.775  14.630  64.888  1.00  0.00    10.598 C  
HETATM   19  C   UNL     1      -8.774  12.815  66.128  1.00  0.00     0.361 A  
HETATM   20  C   UNL     1      -9.227  10.113  66.756  1.00  0.00    -0.174 A  
HETATM   21  C   UNL     1      -9.300  12.494  67.401  1.00  0.00    -0.187 A  
HETATM   22  C   UNL     1      -8.601  10.489  65.523  1.00  0.00    -0.180 A  
HETATM   23  C   UNL     1      -8.403  11.832  65.219  1.00  0.00     0.815 A  
HETATM   24  H   UNL     1      -8.241  17.961  66.868  1.00  0.00     0.000 HD 
BRANCH  13  25
HETATM   25  C   UNL     1     -10.425  16.699  67.054  1.00  0.00    -0.283 C  
HETATM   26  O   UNL     1     -10.995  16.338  66.031  1.00  0.00    -0.172 OA 
BRANCH  25  27
HETATM   27  O   UNL     1     -10.926  17.602  67.952  1.00  0.00    -0.316 OA 
HETATM   28  C   UNL     1     -11.610  18.756  67.448  1.00  0.00     1.221 C  
ENDBRANCH  25  27
ENDBRANCH  13  25
BRANCH  17  29
HETATM   29  O   UNL     1      -7.328  16.993  69.253  1.00  0.00    -0.221 OA 
BRANCH  29  30
HETATM   30  C   UNL     1      -6.944  18.134  69.867  1.00  0.00     0.469 C  
HETATM   31  C   UNL     1      -7.936  19.239  69.626  1.00  0.00     0.295 C  
HETATM   32  O   UNL     1      -5.949  18.266  70.568  1.00  0.00    -0.114 OA 
ENDBRANCH  29  30
ENDBRANCH  17  29
BRANCH  22  33
HETATM   33  O   UNL     1      -8.178   9.522  64.661  1.00  0.00    -0.128 OA 
HETATM   34  C   UNL     1      -8.468   9.557  63.273  1.00  0.00    -0.200 C  
ENDBRANCH  22  33
BRANCH  20  35
HETATM   35  C   UNL     1      -9.565   8.590  67.112  1.00  0.00    -0.232 C  
HETATM   36  C   UNL     1      -9.031   7.393  70.772  1.00  0.00    -0.151 A  
HETATM   37  C   UNL     1      -8.542   7.715  66.251  1.00  0.00    -0.153 C  
HETATM   38  C   UNL     1      -8.405   6.294  66.773  1.00  0.00    -0.110 C  
HETATM   39  C   UNL     1      -8.850   6.682  71.984  1.00  0.00    -0.135 A  
HETATM   40  C   UNL     1      -8.304   7.320  73.104  1.00  0.00    -0.140 A  
HETATM   41  C   UNL     1      -7.952   8.662  73.047  1.00  0.00     0.034 A  
HETATM   42  C   UNL     1      -7.324   5.311  66.313  1.00  0.00    -0.082 C  
HETATM   43  C   UNL     1      -7.759   3.851  66.667  1.00  0.00    -0.089 C  
HETATM   44  C   UNL     1      -8.165   9.406  71.885  1.00  0.00     0.860 A  
HETATM   45  C   UNL     1      -8.809   3.731  67.827  1.00  0.00    -0.114 C  
HETATM   46  C   UNL     1      -8.705   8.741  70.775  1.00  0.00    -0.189 A  
HETATM   47  H   UNL     1      -9.051  10.219  69.304  1.00  0.00     0.000 HD 
HETATM   48  N   UNL     1      -9.803   4.799  67.917  1.00  0.00    -0.153 NA 
HETATM   49  N   UNL     1      -9.044   9.228  69.543  1.00  0.00    -0.152 NA 
HETATM   50  C   UNL     1      -9.942   5.537  69.199  1.00  0.00    -0.190 C  
HETATM   51  C   UNL     1      -9.761   5.602  66.738  1.00  0.00    -0.154 C  
HETATM   52  C   UNL     1      -9.488   7.020  69.437  1.00  0.00    -0.145 A  
HETATM   53  C   UNL     1      -9.376   8.217  68.659  1.00  0.00    -0.143 A  
BRANCH  35  54
HETATM   54  C   UNL     1     -11.104   8.321  66.838  1.00  0.00     0.673 C  
HETATM   55  O   UNL     1     -11.638   7.220  66.825  1.00  0.00     0.668 OA 
BRANCH  54  56
HETATM   56  O   UNL     1     -11.774   9.508  66.588  1.00  0.00     1.644 OA 
HETATM   57  C   UNL     1     -11.404  10.198  65.389  1.00  0.00     1.963 C  
ENDBRANCH  54  56
ENDBRANCH  35  54
BRANCH  43  58
HETATM   58  C   UNL     1      -6.568   2.926  66.916  1.00  0.00    -0.037 C  
HETATM   59  C   UNL     1      -5.246   3.459  66.391  1.00  0.00    -0.012 C  
HETATM   60  F   UNL     1      -6.798   1.712  66.350  1.00  0.00    -0.034 F  
HETATM   61  F   UNL     1      -6.447   2.713  68.253  1.00  0.00    -0.028 F  
ENDBRANCH  43  58
ENDBRANCH  20  35
ENDBRANCH   2   3
TORSDOF 10
ENDMDL
MODEL       30
REMARK 921   NORMALIZED FREE ENERGY PREDICTED BY IDOCK:   25.74 KCAL/MOL
REMARK 922        TOTAL FREE ENERGY PREDICTED BY IDOCK:   40.81 KCAL/MOL
REMARK 923 INTER-LIGAND FREE ENERGY PREDICTED BY IDOCK:   33.60 KCAL/MOL
REMARK 924 INTRA-LIGAND FREE ENERGY PREDICTED BY IDOCK:    7.22 KCAL/MOL
REMARK 927      BINDING AFFINITY PREDICTED BY RF-SCORE:    0.00 PKD
ROOT
HETATM    1  C   UNL     1     -11.874  15.085  67.182  1.00  0.00    -0.141 C  
HETATM    2  C   UNL     1     -11.013  16.025  68.085  1.00  0.00    -0.339 C  
ENDROOT
BRANCH   2   3
HETATM    3  C   UNL     1     -10.431  15.371  69.439  1.00  0.00    -0.257 C  
HETATM    4  C   UNL     1      -9.386  16.477  69.744  1.00  0.00     0.477 C  
HETATM    5  C   UNL     1      -8.232  16.392  69.053  1.00  0.00    -0.222 C  
HETATM    6  C   UNL     1      -7.432  15.290  69.633  1.00  0.00    -0.181 C  
HETATM    7  N   UNL     1      -8.065  13.997  69.319  1.00  0.00     0.190 NA 
HETATM    8  C   UNL     1      -7.505  13.023  70.252  1.00  0.00     2.279 C  
HETATM    9  C   UNL     1      -8.640  12.415  71.023  1.00  0.00    10.676 C  
HETATM   10  C   UNL     1      -9.919  12.638  70.175  1.00  0.00     3.068 C  
HETATM   11  C   UNL     1      -9.587  13.897  69.253  1.00  0.00     0.405 C  
HETATM   12  C   UNL     1     -11.262  12.806  70.949  1.00  0.00     2.142 C  
HETATM   13  C   UNL     1     -11.410  14.158  71.662  1.00  0.00     1.216 C  
HETATM   14  N   UNL     1     -11.421  11.546  71.742  1.00  0.00     2.482 NA 
HETATM   15  C   UNL     1      -9.517  10.317  68.861  1.00  0.00    -0.190 A  
HETATM   16  O   UNL     1     -12.645  14.201  72.432  1.00  0.00    -0.278 OA 
HETATM   17  C   UNL     1     -11.492  15.330  70.621  1.00  0.00    -0.319 C  
HETATM   18  C   UNL     1     -12.666  11.163  72.399  1.00  0.00     0.873 C  
HETATM   19  C   UNL     1     -10.997  10.589  70.751  1.00  0.00     0.144 A  
HETATM   20  C   UNL     1      -9.725   8.890  68.909  1.00  0.00    -0.173 A  
HETATM   21  C   UNL     1     -10.170  11.165  69.758  1.00  0.00     0.318 A  
HETATM   22  C   UNL     1     -10.653   8.374  69.869  1.00  0.00    -0.228 A  
HETATM   23  C   UNL     1     -11.259   9.225  70.788  1.00  0.00    -0.351 A  
HETATM   24  H   UNL     1     -12.737  15.037  72.874  1.00  0.00     0.000 HD 
BRANCH  13  25
HETATM   25  C   UNL     1     -10.301  14.374  72.717  1.00  0.00     4.984 C  
HETATM   26  O   UNL     1      -9.096  14.283  72.521  1.00  0.00     6.177 OA 
BRANCH  25  27
HETATM   27  O   UNL     1     -10.879  14.658  73.925  1.00  0.00     1.702 OA 
HETATM   28  C   UNL     1     -12.052  15.481  73.941  1.00  0.00    -0.513 C  
ENDBRANCH  25  27
ENDBRANCH  13  25
BRANCH  17  29
HETATM   29  O   UNL     1     -12.881  15.637  70.213  1.00  0.00    -0.351 OA 
BRANCH  29  30
HETATM   30  C   UNL     1     -13.925  15.715  71.068  1.00  0.00     0.168 C  
HETATM   31  C   UNL     1     -14.408  14.346  71.460  1.00  0.00    -0.442 C  
HETATM   32  O   UNL     1     -14.406  16.750  71.512  1.00  0.00     3.337 OA 
ENDBRANCH  29  30
ENDBRANCH  17  29
BRANCH  22  33
HETATM   33  O   UNL     1     -10.959   7.045  69.863  1.00  0.00    -0.248 OA 
HETATM   34  C   UNL     1     -11.970   6.491  70.688  1.00  0.00    -0.280 C  
ENDBRANCH  22  33
BRANCH  20  35
HETATM   35  C   UNL     1      -8.929   7.943  67.896  1.00  0.00    -0.129 C  
HETATM   36  C   UNL     1      -8.111   9.313  64.350  1.00  0.00    -0.142 A  
HETATM   37  C   UNL     1      -9.894   6.697  67.630  1.00  0.00    -0.150 C  
HETATM   38  C   UNL     1      -9.518   5.922  66.377  1.00  0.00    -0.174 C  
HETATM   39  C   UNL     1      -7.764   9.524  62.993  1.00  0.00    -0.123 A  
HETATM   40  C   UNL     1      -8.123  10.713  62.347  1.00  0.00    -0.233 A  
HETATM   41  C   UNL     1      -8.804  11.709  63.033  1.00  0.00     0.185 A  
HETATM   42  C   UNL     1     -10.400   4.846  65.738  1.00  0.00    -0.219 C  
HETATM   43  C   UNL     1      -9.531   3.947  64.799  1.00  0.00    -0.169 C  
HETATM   44  C   UNL     1      -9.114  11.556  64.386  1.00  0.00     0.177 A  
HETATM   45  C   UNL     1      -8.207   4.610  64.280  1.00  0.00    -0.113 C  
HETATM   46  C   UNL     1      -8.752  10.353  65.007  1.00  0.00    -0.182 A  
HETATM   47  H   UNL     1      -9.211  10.577  67.058  1.00  0.00     0.000 HD 
HETATM   48  N   UNL     1      -7.530   5.517  65.205  1.00  0.00    -0.072 NA 
HETATM   49  N   UNL     1      -8.901   9.960  66.308  1.00  0.00    -0.141 NA 
HETATM   50  C   UNL     1      -7.232   6.902  64.755  1.00  0.00    -0.075 C  
HETATM   51  C   UNL     1      -8.096   5.395  66.509  1.00  0.00    -0.105 C  
HETATM   52  C   UNL     1      -7.961   8.192  65.272  1.00  0.00    -0.126 A  
HETATM   53  C   UNL     1      -8.582   8.626  66.488  1.00  0.00    -0.116 A  
BRANCH  35  54
HETATM   54  C   UNL     1      -7.509   7.597  68.512  1.00  0.00    -0.104 C  
HETATM   55  O   UNL     1      -6.523   8.320  68.467  1.00  0.00    -0.052 OA 
BRANCH  54  56
HETATM   56  O   UNL     1      -7.519   6.340  69.096  1.00  0.00    -0.089 OA 
HETATM   57  C   UNL     1      -6.315   5.948  69.765  1.00  0.00    -0.037 C  
ENDBRANCH  54  56
ENDBRANCH  35  54
BRANCH  43  58
HETATM   58  C   UNL     1     -10.333   3.359  63.638  1.00  0.00    -0.233 C  
HETATM   59  C   UNL     1      -9.484   2.908  62.461  1.00  0.00    -0.092 C  
HETATM   60  F   UNL     1     -11.238   4.269  63.192  1.00  0.00    -0.098 F  
HETATM   61  F   UNL     1     -11.046   2.294  64.090  1.00  0.00     0.084 F  
ENDBRANCH  43  58
ENDBRANCH  20  35
ENDBRANCH   2   3
TORSDOF 10
ENDMDL
MODEL       31
REMARK 921   NORMALIZED FREE ENERGY PREDICTED BY IDOCK:   29.88 KCAL/MOL
REMARK 922        TOTAL FREE ENERGY PREDICTED BY IDOCK:   47.36 KCAL/MOL
REMARK 923 INTER-LIGAND FREE ENERGY PREDICTED BY IDOCK:   38.90 KCAL/MOL
REMARK 924 INTRA-LIGAND FREE ENERGY PREDICTED BY IDOCK:    8.46 KCAL/MOL
REMARK 927      BINDING AFFINITY PREDICTED BY RF-SCORE:    0.00 PKD
ROOT
HETATM    1  C   UNL     1      -7.448  17.778  72.250  1.00  0.00    10.358 C  
HETATM    2  C   UNL     1      -7.387  16.300  71.750  1.00  0.00     6.576 C  
ENDROOT
BRANCH   2   3
HETATM    3  C   UNL     1      -8.443  15.895  70.602  1.00  0.00     2.417 C  
HETATM    4  C   UNL     1      -9.681  16.581  71.238  1.00  0.00     4.089 C  
HETATM    5  C   UNL     1     -10.288  15.887  72.222  1.00  0.00     2.918 C  
HETATM    6  C   UNL     1     -11.053  14.784  71.598  1.00  0.00     0.369 C  
HETATM    7  N   UNL     1     -10.124  13.780  71.053  1.00  0.00     4.095 NA 
HETATM    8  C   UNL     1     -10.889  12.979  70.101  1.00  0.00     1.099 C  
HETATM    9  C   UNL     1     -10.212  13.074  68.765  1.00  0.00    -0.102 C  
HETATM   10  C   UNL     1      -8.746  13.496  69.043  1.00  0.00     0.362 C  
HETATM   11  C   UNL     1      -8.790  14.228  70.460  1.00  0.00     2.774 C  
HETATM   12  C   UNL     1      -8.037  14.356  67.953  1.00  0.00    -0.151 C  
HETATM   13  C   UNL     1      -8.521  15.811  67.889  1.00  0.00    -0.157 C  
HETATM   14  N   UNL     1      -8.073  13.524  66.708  1.00  0.00     0.144 NA 
HETATM   15  C   UNL     1      -7.993  10.918  69.284  1.00  0.00    -0.076 A  
HETATM   16  O   UNL     1      -7.879  16.520  66.791  1.00  0.00    -0.203 OA 
HETATM   17  C   UNL     1      -8.140  16.583  69.202  1.00  0.00    -0.170 C  
HETATM   18  C   UNL     1      -7.287  13.826  65.517  1.00  0.00     7.445 C  
HETATM   19  C   UNL     1      -7.753  12.239  67.275  1.00  0.00    -0.161 A  
HETATM   20  C   UNL     1      -7.581   9.742  68.556  1.00  0.00    -0.080 A  
HETATM   21  C   UNL     1      -8.053  12.163  68.656  1.00  0.00    -0.048 A  
HETATM   22  C   UNL     1      -7.190   9.898  67.187  1.00  0.00    -0.086 A  
HETATM   23  C   UNL     1      -7.301  11.135  66.562  1.00  0.00    -0.129 A  
HETATM   24  H   UNL     1      -8.178  17.421  66.751  1.00  0.00     0.000 HD 
BRANCH  13  25
HETATM   25  C   UNL     1     -10.030  15.900  67.561  1.00  0.00    -0.238 C  
HETATM   26  O   UNL     1     -10.910  16.274  68.327  1.00  0.00    -0.310 OA 
BRANCH  25  27
HETATM   27  O   UNL     1     -10.239  15.466  66.280  1.00  0.00    -0.264 OA 
HETATM   28  C   UNL     1     -11.543  14.987  65.929  1.00  0.00    -0.165 C  
ENDBRANCH  25  27
ENDBRANCH  13  25
BRANCH  17  29
HETATM   29  O   UNL     1      -6.820  17.245  69.113  1.00  0.00    -0.233 OA 
BRANCH  29  30
HETATM   30  C   UNL     1      -5.885  17.210  70.088  1.00  0.00    -0.184 C  
HETATM   31  C   UNL     1      -5.604  18.589  70.620  1.00  0.00    -0.173 C  
HETATM   32  O   UNL     1      -5.352  16.199  70.528  1.00  0.00    -0.168 OA 
ENDBRANCH  29  30
ENDBRANCH  17  29
BRANCH  22  33
HETATM   33  O   UNL     1      -6.685   8.830  66.506  1.00  0.00    -0.069 OA 
HETATM   34  C   UNL     1      -6.130   8.947  65.206  1.00  0.00    -0.059 C  
ENDBRANCH  22  33
BRANCH  20  35
HETATM   35  C   UNL     1      -7.564   8.323  69.293  1.00  0.00    -0.094 C  
HETATM   36  C   UNL     1      -8.788   5.207  67.314  1.00  0.00    -0.105 A  
HETATM   37  C   UNL     1      -8.599   8.459  70.503  1.00  0.00    -0.137 C  
HETATM   38  C   UNL     1      -9.051   7.111  71.041  1.00  0.00    -0.151 C  
HETATM   39  C   UNL     1      -9.250   3.946  66.865  1.00  0.00    -0.190 A  
HETATM   40  C   UNL     1      -9.823   3.814  65.594  1.00  0.00    -0.105 A  
HETATM   41  C   UNL     1      -9.925   4.912  64.750  1.00  0.00     0.267 A  
HETATM   42  C   UNL     1     -10.215   6.925  72.019  1.00  0.00    -0.206 C  
HETATM   43  C   UNL     1     -10.093   5.531  72.718  1.00  0.00    -0.208 C  
HETATM   44  C   UNL     1      -9.430   6.157  65.141  1.00  0.00     0.658 A  
HETATM   45  C   UNL     1      -9.246   4.466  71.937  1.00  0.00    -0.129 C  
HETATM   46  C   UNL     1      -8.870   6.265  66.421  1.00  0.00    -0.143 A  
HETATM   47  H   UNL     1      -8.077   8.219  66.563  1.00  0.00     0.000 HD 
HETATM   48  N   UNL     1      -8.103   4.972  71.181  1.00  0.00    -0.107 NA 
HETATM   49  N   UNL     1      -8.289   7.340  67.034  1.00  0.00    -0.117 NA 
HETATM   50  C   UNL     1      -8.010   4.658  69.732  1.00  0.00    -0.065 C  
HETATM   51  C   UNL     1      -7.844   6.328  71.540  1.00  0.00    -0.101 C  
HETATM   52  C   UNL     1      -8.226   5.692  68.571  1.00  0.00    -0.106 A  
HETATM   53  C   UNL     1      -8.022   7.095  68.370  1.00  0.00    -0.124 A  
BRANCH  35  54
HETATM   54  C   UNL     1      -6.074   7.963  69.696  1.00  0.00    -0.033 C  
HETATM   55  O   UNL     1      -5.395   8.571  70.513  1.00  0.00    -0.022 OA 
BRANCH  54  56
HETATM   56  O   UNL     1      -5.619   6.869  68.976  1.00  0.00    -0.017 OA 
HETATM   57  C   UNL     1      -5.129   7.143  67.659  1.00  0.00    -0.019 C  
ENDBRANCH  54  56
ENDBRANCH  35  54
BRANCH  43  58
HETATM   58  C   UNL     1     -11.449   4.954  73.123  1.00  0.00    -0.278 C  
HETATM   59  C   UNL     1     -12.640   5.702  72.546  1.00  0.00     0.394 C  
HETATM   60  F   UNL     1     -11.563   4.942  74.476  1.00  0.00     0.662 F  
HETATM   61  F   UNL     1     -11.516   3.658  72.716  1.00  0.00    -0.047 F  
ENDBRANCH  43  58
ENDBRANCH  20  35
ENDBRANCH   2   3
TORSDOF 10
ENDMDL
MODEL       32
REMARK 921   NORMALIZED FREE ENERGY PREDICTED BY IDOCK:   36.24 KCAL/MOL
REMARK 922        TOTAL FREE ENERGY PREDICTED BY IDOCK:   57.44 KCAL/MOL
REMARK 923 INTER-LIGAND FREE ENERGY PREDICTED BY IDOCK:   52.11 KCAL/MOL
REMARK 924 INTRA-LIGAND FREE ENERGY PREDICTED BY IDOCK:    5.32 KCAL/MOL
REMARK 927      BINDING AFFINITY PREDICTED BY RF-SCORE:    0.00 PKD
ROOT
HETATM    1  C   UNL     1      -7.981   6.333  62.717  1.00  0.00    -0.097 C  
HETATM    2  C   UNL     1      -7.738   7.164  64.017  1.00  0.00    -0.123 C  
ENDROOT
BRANCH   2   3
HETATM    3  C   UNL     1      -8.598   6.727  65.309  1.00  0.00    -0.017 C  
HETATM    4  C   UNL     1      -9.426   5.614  64.613  1.00  0.00     0.691 C  
HETATM    5  C   UNL     1     -10.483   6.042  63.894  1.00  0.00     4.953 C  
HETATM    6  C   UNL     1     -11.552   6.432  64.839  1.00  0.00     7.665 C  
HETATM    7  N   UNL     1     -11.161   7.659  65.554  1.00  0.00     5.339 NA 
HETATM    8  C   UNL     1     -12.013   7.740  66.737  1.00  0.00     4.829 C  
HETATM    9  C   UNL     1     -11.125   7.782  67.946  1.00  0.00     0.214 C  
HETATM   10  C   UNL     1      -9.736   8.266  67.456  1.00  0.00    -0.212 C  
HETATM   11  C   UNL     1      -9.694   7.894  65.905  1.00  0.00     0.247 C  
HETATM   12  C   UNL     1      -8.489   7.737  68.227  1.00  0.00    -0.124 C  
HETATM   13  C   UNL     1      -8.156   6.265  67.948  1.00  0.00    -0.114 C  
HETATM   14  N   UNL     1      -8.683   8.181  69.644  1.00  0.00    -0.141 NA 
HETATM   15  C   UNL     1     -10.439  10.842  67.837  1.00  0.00    -0.233 A  
HETATM   16  O   UNL     1      -7.039   5.824  68.771  1.00  0.00    -0.068 OA 
HETATM   17  C   UNL     1      -7.715   6.068  66.454  1.00  0.00    -0.102 C  
HETATM   18  C   UNL     1      -7.628   8.135  70.652  1.00  0.00    -0.073 C  
HETATM   19  C   UNL     1      -9.170   9.516  69.408  1.00  0.00    -0.176 A  
HETATM   20  C   UNL     1     -10.532  11.901  68.812  1.00  0.00    -0.207 A  
HETATM   21  C   UNL     1      -9.740   9.667  68.122  1.00  0.00    -0.164 A  
HETATM   22  C   UNL     1      -9.847  11.734  70.059  1.00  0.00     2.123 A  
HETATM   23  C   UNL     1      -9.196  10.540  70.347  1.00  0.00     1.097 A  
HETATM   24  H   UNL     1      -6.832   4.912  68.598  1.00  0.00     0.000 HD 
BRANCH  13  25
HETATM   25  C   UNL     1      -9.315   5.327  68.356  1.00  0.00    -0.118 C  
HETATM   26  O   UNL     1      -9.812   5.244  69.473  1.00  0.00    -0.163 OA 
BRANCH  25  27
HETATM   27  O   UNL     1      -9.689   4.576  67.275  1.00  0.00    -0.172 OA 
HETATM   28  C   UNL     1      -8.973   3.363  67.009  1.00  0.00    -0.156 C  
ENDBRANCH  25  27
ENDBRANCH  13  25
BRANCH  17  29
HETATM   29  O   UNL     1      -6.255   6.209  66.265  1.00  0.00    -0.034 OA 
BRANCH  29  30
HETATM   30  C   UNL     1      -5.590   7.384  66.324  1.00  0.00    -0.028 C  
HETATM   31  C   UNL     1      -5.344   7.938  64.946  1.00  0.00    -0.029 C  
HETATM   32  O   UNL     1      -5.258   7.964  67.349  1.00  0.00    -0.029 OA 
ENDBRANCH  29  30
ENDBRANCH  17  29
BRANCH  22  33
HETATM   33  O   UNL     1      -9.818  12.763  70.953  1.00  0.00     6.017 OA 
HETATM   34  C   UNL     1      -9.213  14.012  70.660  1.00  0.00     3.858 C  
ENDBRANCH  22  33
BRANCH  20  35
HETATM   35  C   UNL     1     -11.377  13.216  68.470  1.00  0.00    -0.321 C  
HETATM   36  C   UNL     1     -12.501  13.778  64.791  1.00  0.00    -0.386 A  
HETATM   37  C   UNL     1     -10.400  14.442  68.782  1.00  0.00    -0.241 C  
HETATM   38  C   UNL     1     -10.849  15.732  68.114  1.00  0.00    -0.307 C  
HETATM   39  C   UNL     1     -12.957  14.266  63.542  1.00  0.00     1.437 A  
HETATM   40  C   UNL     1     -12.682  13.560  62.364  1.00  0.00     2.884 A  
HETATM   41  C   UNL     1     -11.978  12.364  62.408  1.00  0.00     2.273 A  
HETATM   42  C   UNL     1      -9.989  16.996  68.026  1.00  0.00    -0.283 C  
HETATM   43  C   UNL     1     -10.903  18.230  67.730  1.00  0.00    -0.257 C  
HETATM   44  C   UNL     1     -11.561  11.829  63.628  1.00  0.00    -0.521 A  
HETATM   45  C   UNL     1     -12.281  17.894  67.059  1.00  0.00     4.081 C  
HETATM   46  C   UNL     1     -11.841  12.559  64.791  1.00  0.00    -0.383 A  
HETATM   47  H   UNL     1     -11.233  11.351  66.415  1.00  0.00     0.000 HD 
HETATM   48  N   UNL     1     -12.910  16.638  67.462  1.00  0.00     3.483 NA 
HETATM   49  N   UNL     1     -11.582  12.255  66.099  1.00  0.00    -0.401 NA 
HETATM   50  C   UNL     1     -13.279  15.656  66.410  1.00  0.00     3.741 C  
HETATM   51  C   UNL     1     -12.242  16.104  68.604  1.00  0.00     0.496 C  
HETATM   52  C   UNL     1     -12.548  14.290  66.157  1.00  0.00    -0.280 A  
HETATM   53  C   UNL     1     -11.849  13.318  66.942  1.00  0.00    -0.392 A  
BRANCH  35  54
HETATM   54  C   UNL     1     -12.734  13.189  69.289  1.00  0.00     0.731 C  
HETATM   55  O   UNL     1     -13.749  12.589  68.958  1.00  0.00     4.124 OA 
BRANCH  54  56
HETATM   56  O   UNL     1     -12.635  13.965  70.433  1.00  0.00    -0.326 OA 
HETATM   57  C   UNL     1     -13.852  14.561  70.897  1.00  0.00     0.012 C  
ENDBRANCH  54  56
ENDBRANCH  35  54
BRANCH  43  58
HETATM   58  C   UNL     1     -10.176  19.329  66.954  1.00  0.00    -0.400 C  
HETATM   59  C   UNL     1     -10.705  19.550  65.546  1.00  0.00    -0.300 C  
HETATM   60  F   UNL     1      -8.851  19.042  66.876  1.00  0.00    -0.271 F  
HETATM   61  F   UNL     1     -10.280  20.497  67.642  1.00  0.00    -0.527 F  
ENDBRANCH  43  58
ENDBRANCH  20  35
ENDBRANCH   2   3
TORSDOF 10
ENDMDL
MODEL       33
REMARK 921   NORMALIZED FREE ENERGY PREDICTED BY IDOCK:   42.60 KCAL/MOL
REMARK 922        TOTAL FREE ENERGY PREDICTED BY IDOCK:   67.53 KCAL/MOL
REMARK 923 INTER-LIGAND FREE ENERGY PREDICTED BY IDOCK:   57.40 KCAL/MOL
REMARK 924 INTRA-LIGAND FREE ENERGY PREDICTED BY IDOCK:   10.13 KCAL/MOL
REMARK 927      BINDING AFFINITY PREDICTED BY RF-SCORE:    0.00 PKD
ROOT
HETATM    1  C   UNL     1      -7.851  20.492  69.247  1.00  0.00     0.870 C  
HETATM    2  C   UNL     1      -8.041  19.262  68.303  1.00  0.00    -0.367 C  
ENDROOT
BRANCH   2   3
HETATM    3  C   UNL     1      -9.560  18.771  68.074  1.00  0.00    -0.360 C  
HETATM    4  C   UNL     1     -10.232  19.797  69.025  1.00  0.00    -0.362 C  
HETATM    5  C   UNL     1     -10.192  19.485  70.336  1.00  0.00     1.057 C  
HETATM    6  C   UNL     1     -11.180  18.411  70.581  1.00  0.00     3.901 C  
HETATM    7  N   UNL     1     -10.715  17.158  69.962  1.00  0.00     0.116 NA 
HETATM    8  C   UNL     1     -11.884  16.289  69.855  1.00  0.00     0.037 C  
HETATM    9  C   UNL     1     -12.064  15.930  68.409  1.00  0.00     0.202 C  
HETATM   10  C   UNL     1     -10.689  16.149  67.726  1.00  0.00    -0.325 C  
HETATM   11  C   UNL     1      -9.934  17.207  68.651  1.00  0.00    -0.313 C  
HETATM   12  C   UNL     1     -10.702  16.574  66.226  1.00  0.00    -0.146 C  
HETATM   13  C   UNL     1     -11.134  18.028  65.990  1.00  0.00     0.541 C  
HETATM   14  N   UNL     1     -11.428  15.476  65.511  1.00  0.00    -0.090 NA 
HETATM   15  C   UNL     1      -9.941  13.622  68.301  1.00  0.00    -0.236 A  
HETATM   16  O   UNL     1     -11.207  18.319  64.566  1.00  0.00    -0.058 OA 
HETATM   17  C   UNL     1     -10.084  19.025  66.596  1.00  0.00    -0.392 C  
HETATM   18  C   UNL     1     -11.436  15.332  64.060  1.00  0.00     0.195 C  
HETATM   19  C   UNL     1     -10.853  14.338  66.181  1.00  0.00    -0.310 A  
HETATM   20  C   UNL     1     -10.009  12.249  67.862  1.00  0.00    -0.202 A  
HETATM   21  C   UNL     1     -10.335  14.662  67.457  1.00  0.00    -0.234 A  
HETATM   22  C   UNL     1     -10.444  11.988  66.523  1.00  0.00    -0.221 A  
HETATM   23  C   UNL     1     -10.879  13.031  65.711  1.00  0.00    -0.292 A  
HETATM   24  H   UNL     1     -11.474  19.219  64.419  1.00  0.00     0.000 HD 
BRANCH  13  25
HETATM   25  C   UNL     1     -12.569  18.291  66.502  1.00  0.00     7.195 C  
HETATM   26  O   UNL     1     -12.914  18.347  67.676  1.00  0.00     4.938 OA 
BRANCH  25  27
HETATM   27  O   UNL     1     -13.411  18.424  65.431  1.00  0.00    13.551 OA 
HETATM   28  C   UNL     1     -12.916  18.083  64.130  1.00  0.00    13.632 C  
ENDBRANCH  25  27
ENDBRANCH  13  25
BRANCH  17  29
HETATM   29  O   UNL     1      -9.032  19.407  65.627  1.00  0.00    -0.307 OA 
BRANCH  29  30
HETATM   30  C   UNL     1      -7.866  20.001  65.964  1.00  0.00    -0.286 C  
HETATM   31  C   UNL     1      -6.716  19.414  65.192  1.00  0.00    -0.206 C  
HETATM   32  O   UNL     1      -7.741  20.924  66.758  1.00  0.00    -0.159 OA 
ENDBRANCH  29  30
ENDBRANCH  17  29
BRANCH  22  33
HETATM   33  O   UNL     1     -10.408  10.714  66.039  1.00  0.00    -0.250 OA 
HETATM   34  C   UNL     1     -11.168  10.302  64.915  1.00  0.00     1.784 C  
ENDBRANCH  22  33
BRANCH  20  35
HETATM   35  C   UNL     1      -9.592  11.078  68.868  1.00  0.00    -0.174 C  
HETATM   36  C   UNL     1      -7.508   8.106  67.470  1.00  0.00    -0.094 A  
HETATM   37  C   UNL     1     -10.966  10.414  69.342  1.00  0.00    -0.296 C  
HETATM   38  C   UNL     1     -10.773   9.029  69.937  1.00  0.00    -0.240 C  
HETATM   39  C   UNL     1      -6.836   6.887  67.214  1.00  0.00    -0.072 A  
HETATM   40  C   UNL     1      -6.427   6.563  65.915  1.00  0.00    -0.043 A  
HETATM   41  C   UNL     1      -6.657   7.443  64.865  1.00  0.00    -0.043 A  
HETATM   42  C   UNL     1     -11.918   8.059  70.242  1.00  0.00     0.278 C  
HETATM   43  C   UNL     1     -11.430   6.977  71.260  1.00  0.00    -0.324 C  
HETATM   44  C   UNL     1      -7.269   8.677  65.093  1.00  0.00    -0.087 A  
HETATM   45  C   UNL     1      -9.877   6.756  71.304  1.00  0.00    -0.176 C  
HETATM   46  C   UNL     1      -7.677   8.973  66.401  1.00  0.00    -0.099 A  
HETATM   47  H   UNL     1      -8.372  10.968  66.373  1.00  0.00     0.000 HD 
HETATM   48  N   UNL     1      -9.046   7.939  71.088  1.00  0.00    -0.141 NA 
HETATM   49  N   UNL     1      -8.259  10.104  66.901  1.00  0.00    -0.121 NA 
HETATM   50  C   UNL     1      -8.025   7.905  70.009  1.00  0.00    -0.111 C  
HETATM   51  C   UNL     1      -9.851   9.115  71.146  1.00  0.00    -0.301 C  
HETATM   52  C   UNL     1      -8.117   8.698  68.658  1.00  0.00    -0.117 A  
HETATM   53  C   UNL     1      -8.678   9.937  68.209  1.00  0.00    -0.119 A  
BRANCH  35  54
HETATM   54  C   UNL     1      -8.682  11.679  70.019  1.00  0.00     2.574 C  
HETATM   55  O   UNL     1      -9.083  12.062  71.110  1.00  0.00     8.626 OA 
BRANCH  54  56
HETATM   56  O   UNL     1      -7.357  11.740  69.618  1.00  0.00     0.126 OA 
HETATM   57  C   UNL     1      -6.982  12.899  68.864  1.00  0.00    -0.084 C  
ENDBRANCH  54  56
ENDBRANCH  35  54
BRANCH  43  58
HETATM   58  C   UNL     1     -12.162   5.645  71.101  1.00  0.00     1.385 C  
HETATM   59  C   UNL     1     -11.266   4.424  71.228  1.00  0.00     1.524 C  
HETATM   60  F   UNL     1     -12.783   5.599  69.894  1.00  0.00     2.221 F  
HETATM   61  F   UNL     1     -13.139   5.564  72.043  1.00  0.00     0.404 F  
ENDBRANCH  43  58
ENDBRANCH  20  35
ENDBRANCH   2   3
TORSDOF 10
ENDMDL
MODEL       34
REMARK 921   NORMALIZED FREE ENERGY PREDICTED BY IDOCK:   43.13 KCAL/MOL
REMARK 922        TOTAL FREE ENERGY PREDICTED BY IDOCK:   68.37 KCAL/MOL
REMARK 923 INTER-LIGAND FREE ENERGY PREDICTED BY IDOCK:   56.49 KCAL/MOL
REMARK 924 INTRA-LIGAND FREE ENERGY PREDICTED BY IDOCK:   11.88 KCAL/MOL
REMARK 927      BINDING AFFINITY PREDICTED BY RF-SCORE:    0.00 PKD
ROOT
HETATM    1  C   UNL     1      -8.799  15.555  73.505  1.00  0.00    12.552 C  
HETATM    2  C   UNL     1      -8.396  14.870  72.161  1.00  0.00     6.164 C  
ENDROOT
BRANCH   2   3
HETATM    3  C   UNL     1      -9.314  15.221  70.883  1.00  0.00     1.849 C  
HETATM    4  C   UNL     1     -10.480  15.879  71.668  1.00  0.00     1.322 C  
HETATM    5  C   UNL     1     -11.359  15.023  72.227  1.00  0.00    -0.177 C  
HETATM    6  C   UNL     1     -12.215  14.478  71.150  1.00  0.00    -0.345 C  
HETATM    7  N   UNL     1     -11.424  13.576  70.294  1.00  0.00    -0.044 NA 
HETATM    8  C   UNL     1     -12.169  13.428  69.047  1.00  0.00    -0.148 C  
HETATM    9  C   UNL     1     -11.283  13.874  67.922  1.00  0.00    -0.302 C  
HETATM   10  C   UNL     1      -9.826  13.783  68.444  1.00  0.00    -0.227 C  
HETATM   11  C   UNL     1      -9.952  13.883  70.032  1.00  0.00     1.468 C  
HETATM   12  C   UNL     1      -8.799  14.802  67.865  1.00  0.00    -0.167 C  
HETATM   13  C   UNL     1      -8.974  16.235  68.387  1.00  0.00    -0.203 C  
HETATM   14  N   UNL     1      -8.798  14.564  66.387  1.00  0.00    -0.125 NA 
HETATM   15  C   UNL     1      -9.637  11.220  67.628  1.00  0.00    -0.180 A  
HETATM   16  O   UNL     1      -8.040  17.140  67.733  1.00  0.00    -0.187 OA 
HETATM   17  C   UNL     1      -8.664  16.309  69.924  1.00  0.00     0.770 C  
HETATM   18  C   UNL     1      -7.788  15.111  65.486  1.00  0.00     4.556 C  
HETATM   19  C   UNL     1      -8.828  13.124  66.380  1.00  0.00     0.111 A  
HETATM   20  C   UNL     1      -9.350  10.365  66.501  1.00  0.00    -0.193 A  
HETATM   21  C   UNL     1      -9.353  12.586  67.578  1.00  0.00    -0.187 A  
HETATM   22  C   UNL     1      -8.724  10.947  65.352  1.00  0.00    -0.155 A  
HETATM   23  C   UNL     1      -8.491  12.318  65.300  1.00  0.00     1.396 A  
HETATM   24  H   UNL     1      -8.148  18.027  68.056  1.00  0.00     0.000 HD 
BRANCH  13  25
HETATM   25  C   UNL     1     -10.365  16.809  68.031  1.00  0.00    -0.317 C  
HETATM   26  O   UNL     1     -10.769  17.065  66.903  1.00  0.00    -0.250 OA 
BRANCH  25  27
HETATM   27  O   UNL     1     -11.074  17.017  69.183  1.00  0.00    -0.165 OA 
HETATM   28  C   UNL     1     -11.814  18.238  69.315  1.00  0.00     5.133 C  
ENDBRANCH  25  27
ENDBRANCH  13  25
BRANCH  17  29
HETATM   29  O   UNL     1      -7.244  16.610  70.208  1.00  0.00     0.846 OA 
BRANCH  29  30
HETATM   30  C   UNL     1      -6.824  17.475  71.158  1.00  0.00     3.678 C  
HETATM   31  C   UNL     1      -5.327  17.617  71.138  1.00  0.00    -0.076 C  
HETATM   32  O   UNL     1      -7.549  18.103  71.918  1.00  0.00     7.333 OA 
ENDBRANCH  29  30
ENDBRANCH  17  29
BRANCH  22  33
HETATM   33  O   UNL     1      -8.334  10.147  64.320  1.00  0.00    -0.158 OA 
HETATM   34  C   UNL     1      -7.442   9.058  64.493  1.00  0.00    -0.104 C  
ENDBRANCH  22  33
BRANCH  20  35
HETATM   35  C   UNL     1      -9.728   8.812  66.572  1.00  0.00    -0.328 C  
HETATM   36  C   UNL     1     -12.035   7.609  69.462  1.00  0.00     0.985 A  
HETATM   37  C   UNL     1      -8.346   8.049  66.821  1.00  0.00    -0.116 C  
HETATM   38  C   UNL     1      -8.543   6.638  67.351  1.00  0.00    -0.119 C  
HETATM   39  C   UNL     1     -12.774   6.899  70.439  1.00  0.00     0.267 A  
HETATM   40  C   UNL     1     -13.302   7.566  71.551  1.00  0.00    -0.409 A  
HETATM   41  C   UNL     1     -13.126   8.935  71.699  1.00  0.00    -0.405 A  
HETATM   42  C   UNL     1      -7.416   5.768  67.914  1.00  0.00    -0.078 C  
HETATM   43  C   UNL     1      -7.860   4.268  67.907  1.00  0.00    -0.079 C  
HETATM   44  C   UNL     1     -12.450   9.675  70.727  1.00  0.00    -0.246 A  
HETATM   45  C   UNL     1      -9.411   4.032  67.896  1.00  0.00    -0.171 C  
HETATM   46  C   UNL     1     -11.923   8.981  69.628  1.00  0.00     0.853 A  
HETATM   47  H   UNL     1     -11.155  10.445  68.311  1.00  0.00     0.000 HD 
HETATM   48  N   UNL     1     -10.210   5.002  67.149  1.00  0.00    -0.199 NA 
HETATM   49  N   UNL     1     -11.257   9.455  68.532  1.00  0.00     0.078 NA 
HETATM   50  C   UNL     1     -11.317   5.703  67.849  1.00  0.00     0.969 C  
HETATM   51  C   UNL     1      -9.357   5.825  66.354  1.00  0.00    -0.156 C  
HETATM   52  C   UNL     1     -11.307   7.218  68.259  1.00  0.00     0.372 A  
HETATM   53  C   UNL     1     -10.737   8.433  67.758  1.00  0.00    -0.095 A  
BRANCH  35  54
HETATM   54  C   UNL     1     -10.514   8.406  65.257  1.00  0.00     3.291 C  
HETATM   55  O   UNL     1     -11.508   7.693  65.218  1.00  0.00     7.075 OA 
BRANCH  54  56
HETATM   56  O   UNL     1      -9.909   8.950  64.134  1.00  0.00     1.333 OA 
HETATM   57  C   UNL     1      -8.773   8.241  63.627  1.00  0.00     0.353 C  
ENDBRANCH  54  56
ENDBRANCH  35  54
BRANCH  43  58
HETATM   58  C   UNL     1      -7.196   3.453  69.017  1.00  0.00    -0.049 C  
HETATM   59  C   UNL     1      -7.260   1.949  68.806  1.00  0.00    -0.043 C  
HETATM   60  F   UNL     1      -7.769   3.745  70.213  1.00  0.00    -0.047 F  
HETATM   61  F   UNL     1      -5.890   3.820  69.112  1.00  0.00    -0.019 F  
ENDBRANCH  43  58
ENDBRANCH  20  35
ENDBRANCH   2   3
TORSDOF 10
ENDMDL
MODEL       35
REMARK 921   NORMALIZED FREE ENERGY PREDICTED BY IDOCK:   48.08 KCAL/MOL
REMARK 922        TOTAL FREE ENERGY PREDICTED BY IDOCK:   76.20 KCAL/MOL
REMARK 923 INTER-LIGAND FREE ENERGY PREDICTED BY IDOCK:   72.69 KCAL/MOL
REMARK 924 INTRA-LIGAND FREE ENERGY PREDICTED BY IDOCK:    3.51 KCAL/MOL
REMARK 927      BINDING AFFINITY PREDICTED BY RF-SCORE:    0.00 PKD
ROOT
HETATM    1  C   UNL     1     -11.370   9.703  72.366  1.00  0.00     1.106 C  
HETATM    2  C   UNL     1     -11.152   8.705  71.185  1.00  0.00    -0.324 C  
ENDROOT
BRANCH   2   3
HETATM    3  C   UNL     1      -9.976   9.079  70.148  1.00  0.00    -0.216 C  
HETATM    4  C   UNL     1      -8.799   8.523  70.994  1.00  0.00    -0.212 C  
HETATM    5  C   UNL     1      -8.362   9.331  71.981  1.00  0.00     0.681 C  
HETATM    6  C   UNL     1      -7.578  10.423  71.364  1.00  0.00     2.805 C  
HETATM    7  N   UNL     1      -8.477  11.322  70.619  1.00  0.00     3.162 NA 
HETATM    8  C   UNL     1      -7.634  12.087  69.705  1.00  0.00     0.761 C  
HETATM    9  C   UNL     1      -8.124  11.843  68.308  1.00  0.00    -0.154 C  
HETATM   10  C   UNL     1      -9.591  11.357  68.434  1.00  0.00    -0.197 C  
HETATM   11  C   UNL     1      -9.697  10.746  69.904  1.00  0.00     0.447 C  
HETATM   12  C   UNL     1     -10.107  10.369  67.343  1.00  0.00    -0.196 C  
HETATM   13  C   UNL     1      -9.547   8.946  67.470  1.00  0.00    -0.145 C  
HETATM   14  N   UNL     1      -9.950  11.098  66.045  1.00  0.00    -0.226 NA 
HETATM   15  C   UNL     1     -10.497  13.895  68.349  1.00  0.00    -0.250 A  
HETATM   16  O   UNL     1     -10.003   8.113  66.367  1.00  0.00    -0.376 OA 
HETATM   17  C   UNL     1     -10.058   8.262  68.787  1.00  0.00    -0.200 C  
HETATM   18  C   UNL     1     -10.556  10.652  64.795  1.00  0.00    -0.114 C  
HETATM   19  C   UNL     1     -10.405  12.403  66.451  1.00  0.00    -0.234 A  
HETATM   20  C   UNL     1     -10.869  14.980  67.473  1.00  0.00    -0.297 A  
HETATM   21  C   UNL     1     -10.293  12.609  67.846  1.00  0.00    -0.221 A  
HETATM   22  C   UNL     1     -11.069  14.691  66.085  1.00  0.00    -0.334 A  
HETATM   23  C   UNL     1     -10.815  13.415  65.591  1.00  0.00    -0.292 A  
HETATM   24  H   UNL     1      -9.656   7.231  66.444  1.00  0.00     0.000 HD 
BRANCH  13  25
HETATM   25  C   UNL     1      -8.006   8.923  67.345  1.00  0.00    -0.101 C  
HETATM   26  O   UNL     1      -7.210   8.939  68.276  1.00  0.00    -0.077 OA 
BRANCH  25  27
HETATM   27  O   UNL     1      -7.661   8.910  66.020  1.00  0.00    -0.095 OA 
HETATM   28  C   UNL     1      -6.787   7.873  65.555  1.00  0.00    -0.055 C  
ENDBRANCH  25  27
ENDBRANCH  13  25
BRANCH  17  29
HETATM   29  O   UNL     1     -11.320   7.515  68.591  1.00  0.00     0.268 OA 
BRANCH  29  30
HETATM   30  C   UNL     1     -11.595   6.323  69.164  1.00  0.00     0.061 C  
HETATM   31  C   UNL     1     -10.642   5.260  68.688  1.00  0.00    -0.096 C  
HETATM   32  O   UNL     1     -12.470   6.117  69.995  1.00  0.00     0.776 OA 
ENDBRANCH  29  30
ENDBRANCH  17  29
BRANCH  22  33
HETATM   33  O   UNL     1     -11.532  15.667  65.254  1.00  0.00    -0.181 OA 
HETATM   34  C   UNL     1     -11.424  15.582  63.842  1.00  0.00     0.418 C  
ENDBRANCH  22  33
BRANCH  20  35
HETATM   35  C   UNL     1     -11.053  16.451  68.074  1.00  0.00    -0.292 C  
HETATM   36  C   UNL     1      -7.865  18.451  69.056  1.00  0.00    -0.140 A  
HETATM   37  C   UNL     1     -11.840  16.254  69.450  1.00  0.00    -0.021 C  
HETATM   38  C   UNL     1     -11.723  17.459  70.369  1.00  0.00     2.842 C  
HETATM   39  C   UNL     1      -6.898  19.350  69.567  1.00  0.00    -0.303 A  
HETATM   40  C   UNL     1      -5.544  18.994  69.591  1.00  0.00    -0.232 A  
HETATM   41  C   UNL     1      -5.130  17.765  69.095  1.00  0.00    -0.175 A  
HETATM   42  C   UNL     1     -12.155  17.462  71.839  1.00  0.00     3.123 C  
HETATM   43  C   UNL     1     -12.348  18.936  72.324  1.00  0.00    12.763 C  
HETATM   44  C   UNL     1      -6.051  16.877  68.535  1.00  0.00    -0.144 A  
HETATM   45  C   UNL     1     -11.570  20.018  71.496  1.00  0.00    10.182 C  
HETATM   46  C   UNL     1      -7.401  17.253  68.532  1.00  0.00    -0.235 A  
HETATM   47  H   UNL     1      -8.434  15.761  67.449  1.00  0.00     0.000 HD 
HETATM   48  N   UNL     1     -11.434  19.765  70.062  1.00  0.00     4.062 NA 
HETATM   49  N   UNL     1      -8.490  16.601  68.024  1.00  0.00    -0.188 NA 
HETATM   50  C   UNL     1     -10.074  19.757  69.466  1.00  0.00    -0.018 C  
HETATM   51  C   UNL     1     -12.289  18.690  69.675  1.00  0.00    11.646 C  
HETATM   52  C   UNL     1      -9.321  18.477  68.957  1.00  0.00    -0.155 A  
HETATM   53  C   UNL     1      -9.678  17.215  68.381  1.00  0.00    -0.284 A  
BRANCH  35  54
HETATM   54  C   UNL     1     -11.766  17.369  66.995  1.00  0.00     1.735 C  
HETATM   55  O   UNL     1     -12.685  17.019  66.266  1.00  0.00     4.967 OA 
BRANCH  54  56
HETATM   56  O   UNL     1     -11.192  18.630  66.963  1.00  0.00    -0.040 OA 
HETATM   57  C   UNL     1     -10.950  19.178  65.662  1.00  0.00     0.029 C  
ENDBRANCH  54  56
ENDBRANCH  35  54
BRANCH  43  58
HETATM   58  C   UNL     1     -12.081  19.103  73.820  1.00  0.00     7.355 C  
HETATM   59  C   UNL     1     -11.737  17.809  74.539  1.00  0.00     0.599 C  
HETATM   60  F   UNL     1     -13.163  19.658  74.425  1.00  0.00     6.285 F  
HETATM   61  F   UNL     1     -11.052  19.976  73.988  1.00  0.00     3.440 F  
ENDBRANCH  43  58
ENDBRANCH  20  35
ENDBRANCH   2   3
TORSDOF 10
ENDMDL
MODEL       36
REMARK 921   NORMALIZED FREE ENERGY PREDICTED BY IDOCK:   49.68 KCAL/MOL
REMARK 922        TOTAL FREE ENERGY PREDICTED BY IDOCK:   78.74 KCAL/MOL
REMARK 923 INTER-LIGAND FREE ENERGY PREDICTED BY IDOCK:   66.19 KCAL/MOL
REMARK 924 INTRA-LIGAND FREE ENERGY PREDICTED BY IDOCK:   12.55 KCAL/MOL
REMARK 927      BINDING AFFINITY PREDICTED BY RF-SCORE:    0.00 PKD
ROOT
HETATM    1  C   UNL     1     -11.063   6.820  71.420  1.00  0.00    -0.293 C  
HETATM    2  C   UNL     1      -9.957   5.907  70.802  1.00  0.00    -0.241 C  
ENDROOT
BRANCH   2   3
HETATM    3  C   UNL     1      -9.288   6.430  69.432  1.00  0.00    -0.143 C  
HETATM    4  C   UNL     1      -7.910   5.742  69.624  1.00  0.00    -0.096 C  
HETATM    5  C   UNL     1      -7.050   6.385  70.440  1.00  0.00    -0.068 C  
HETATM    6  C   UNL     1      -6.514   7.555  69.710  1.00  0.00    -0.035 C  
HETATM    7  N   UNL     1      -7.575   8.563  69.540  1.00  0.00    -0.087 NA 
HETATM    8  C   UNL     1      -7.131   9.456  68.473  1.00  0.00    -0.071 C  
HETATM    9  C   UNL     1      -8.169   9.435  67.389  1.00  0.00    -0.121 C  
HETATM   10  C   UNL     1      -9.484   8.943  68.047  1.00  0.00    -0.158 C  
HETATM   11  C   UNL     1      -9.018   8.113  69.328  1.00  0.00    -0.148 C  
HETATM   12  C   UNL     1     -10.471   8.140  67.146  1.00  0.00    -0.326 C  
HETATM   13  C   UNL     1     -10.009   6.711  66.829  1.00  0.00    -0.176 C  
HETATM   14  N   UNL     1     -10.811   9.061  66.015  1.00  0.00     0.966 NA 
HETATM   15  C   UNL     1     -10.164  11.470  68.700  1.00  0.00    -0.217 A  
HETATM   16  O   UNL     1     -10.936   6.062  65.913  1.00  0.00    -0.259 OA 
HETATM   17  C   UNL     1      -9.980   5.834  68.131  1.00  0.00    -0.148 C  
HETATM   18  C   UNL     1     -11.907   8.818  65.084  1.00  0.00    11.606 C  
HETATM   19  C   UNL     1     -10.966  10.290  66.750  1.00  0.00    -0.012 A  
HETATM   20  C   UNL     1     -10.786  12.680  68.219  1.00  0.00    -0.248 A  
HETATM   21  C   UNL     1     -10.276  10.276  67.985  1.00  0.00    -0.200 A  
HETATM   22  C   UNL     1     -11.559  12.610  67.015  1.00  0.00    -0.365 A  
HETATM   23  C   UNL     1     -11.621  11.425  66.289  1.00  0.00     0.110 A  
HETATM   24  H   UNL     1     -10.651   5.177  65.717  1.00  0.00     0.000 HD 
BRANCH  13  25
HETATM   25  C   UNL     1      -8.662   6.698  66.071  1.00  0.00    -0.147 C  
HETATM   26  O   UNL     1      -7.609   6.231  66.486  1.00  0.00    -0.091 OA 
BRANCH  25  27
HETATM   27  O   UNL     1      -8.820   7.321  64.862  1.00  0.00     0.184 OA 
HETATM   28  C   UNL     1      -8.091   6.815  63.736  1.00  0.00     0.003 C  
ENDBRANCH  25  27
ENDBRANCH  13  25
BRANCH  17  29
HETATM   29  O   UNL     1     -11.260   5.135  68.379  1.00  0.00     0.667 OA 
BRANCH  29  30
HETATM   30  C   UNL     1     -11.729   4.821  69.606  1.00  0.00     5.713 C  
HETATM   31  C   UNL     1     -10.973   3.661  70.196  1.00  0.00     3.764 C  
HETATM   32  O   UNL     1     -12.622   5.411  70.200  1.00  0.00     4.243 OA 
ENDBRANCH  29  30
ENDBRANCH  17  29
BRANCH  22  33
HETATM   33  O   UNL     1     -12.254  13.706  66.597  1.00  0.00    -0.415 OA 
HETATM   34  C   UNL     1     -12.867  13.780  65.320  1.00  0.00    -0.384 C  
ENDBRANCH  22  33
BRANCH  20  35
HETATM   35  C   UNL     1     -10.603  14.041  69.038  1.00  0.00    -0.205 C  
HETATM   36  C   UNL     1     -11.818  17.353  67.402  1.00  0.00     1.790 A  
HETATM   37  C   UNL     1      -9.024  14.232  69.200  1.00  0.00     0.160 C  
HETATM   38  C   UNL     1      -8.640  15.660  69.552  1.00  0.00    -0.191 C  
HETATM   39  C   UNL     1     -12.089  18.688  67.016  1.00  0.00     3.311 A  
HETATM   40  C   UNL     1     -12.602  18.966  65.743  1.00  0.00     8.749 A  
HETATM   41  C   UNL     1     -12.872  17.936  64.852  1.00  0.00    10.808 A  
HETATM   42  C   UNL     1      -7.205  16.194  69.523  1.00  0.00    -0.136 C  
HETATM   43  C   UNL     1      -7.115  17.499  70.380  1.00  0.00     1.961 C  
HETATM   44  C   UNL     1     -12.667  16.605  65.220  1.00  0.00     4.479 A  
HETATM   45  C   UNL     1      -8.473  18.257  70.584  1.00  0.00     4.601 C  
HETATM   46  C   UNL     1     -12.143  16.354  66.496  1.00  0.00     2.069 A  
HETATM   47  H   UNL     1     -12.158  14.256  66.745  1.00  0.00     0.000 HD 
HETATM   48  N   UNL     1      -9.670  17.426  70.697  1.00  0.00     2.706 NA 
HETATM   49  N   UNL     1     -11.882  15.164  67.116  1.00  0.00    -0.152 NA 
HETATM   50  C   UNL     1     -10.805  17.680  69.772  1.00  0.00     0.897 C  
HETATM   51  C   UNL     1      -9.299  16.059  70.865  1.00  0.00     2.671 C  
HETATM   52  C   UNL     1     -11.228  16.741  68.589  1.00  0.00    -0.170 A  
HETATM   53  C   UNL     1     -11.197  15.337  68.306  1.00  0.00    -0.314 A  
BRANCH  35  54
HETATM   54  C   UNL     1     -11.430  13.952  70.388  1.00  0.00    -0.003 C  
HETATM   55  O   UNL     1     -10.946  13.893  71.511  1.00  0.00     1.811 OA 
BRANCH  54  56
HETATM   56  O   UNL     1     -12.791  13.923  70.131  1.00  0.00    -0.215 OA 
HETATM   57  C   UNL     1     -13.635  14.470  71.150  1.00  0.00    -0.307 C  
ENDBRANCH  54  56
ENDBRANCH  35  54
BRANCH  43  58
HETATM   58  C   UNL     1      -6.030  18.455  69.885  1.00  0.00    -0.208 C  
HETATM   59  C   UNL     1      -5.155  19.027  70.989  1.00  0.00    -0.261 C  
HETATM   60  F   UNL     1      -6.595  19.486  69.206  1.00  0.00    -0.309 F  
HETATM   61  F   UNL     1      -5.233  17.797  69.001  1.00  0.00    -0.161 F  
ENDBRANCH  43  58
ENDBRANCH  20  35
ENDBRANCH   2   3
TORSDOF 10
ENDMDL
MODEL       37
REMARK 921   NORMALIZED FREE ENERGY PREDICTED BY IDOCK:   50.30 KCAL/MOL
REMARK 922        TOTAL FREE ENERGY PREDICTED BY IDOCK:   79.73 KCAL/MOL
REMARK 923 INTER-LIGAND FREE ENERGY PREDICTED BY IDOCK:   74.17 KCAL/MOL
REMARK 924 INTRA-LIGAND FREE ENERGY PREDICTED BY IDOCK:    5.56 KCAL/MOL
REMARK 927      BINDING AFFINITY PREDICTED BY RF-SCORE:    0.00 PKD
ROOT
HETATM    1  C   UNL     1     -11.286  16.045  67.309  1.00  0.00    -0.041 C  
HETATM    2  C   UNL     1     -10.441  16.992  68.220  1.00  0.00    -0.363 C  
ENDROOT
BRANCH   2   3
HETATM    3  C   UNL     1      -9.791  16.321  69.533  1.00  0.00    -0.159 C  
HETATM    4  C   UNL     1      -8.489  17.165  69.547  1.00  0.00     0.579 C  
HETATM    5  C   UNL     1      -7.522  16.756  68.701  1.00  0.00    -0.219 C  
HETATM    6  C   UNL     1      -6.899  15.541  69.272  1.00  0.00    -0.160 C  
HETATM    7  N   UNL     1      -7.849  14.417  69.207  1.00  0.00    -0.034 NA 
HETATM    8  C   UNL     1      -7.365  13.410  70.147  1.00  0.00     1.319 C  
HETATM    9  C   UNL     1      -8.453  13.149  71.147  1.00  0.00    10.074 C  
HETATM   10  C   UNL     1      -9.779  13.607  70.486  1.00  0.00     3.920 C  
HETATM   11  C   UNL     1      -9.342  14.679  69.388  1.00  0.00     0.108 C  
HETATM   12  C   UNL     1     -10.893  14.147  71.432  1.00  0.00     2.182 C  
HETATM   13  C   UNL     1     -10.609  15.544  72.003  1.00  0.00     1.085 C  
HETATM   14  N   UNL     1     -11.187  13.024  72.378  1.00  0.00     5.527 NA 
HETATM   15  C   UNL     1     -10.142  11.166  69.397  1.00  0.00     0.009 A  
HETATM   16  O   UNL     1     -11.648  15.938  72.944  1.00  0.00    -0.392 OA 
HETATM   17  C   UNL     1     -10.610  16.622  70.861  1.00  0.00     0.937 C  
HETATM   18  C   UNL     1     -12.351  12.999  73.258  1.00  0.00     3.546 C  
HETATM   19  C   UNL     1     -11.168  11.923  71.449  1.00  0.00     3.388 A  
HETATM   20  C   UNL     1     -10.650   9.838  69.637  1.00  0.00    -0.260 A  
HETATM   21  C   UNL     1     -10.421  12.209  70.282  1.00  0.00     2.189 A  
HETATM   22  C   UNL     1     -11.487   9.630  70.780  1.00  0.00    -0.328 A  
HETATM   23  C   UNL     1     -11.717  10.667  71.679  1.00  0.00     0.422 A  
HETATM   24  H   UNL     1     -11.473  16.802  73.297  1.00  0.00     0.000 HD 
BRANCH  13  25
HETATM   25  C   UNL     1      -9.313  15.567  72.844  1.00  0.00     8.829 C  
HETATM   26  O   UNL     1      -9.239  15.399  74.055  1.00  0.00    10.027 OA 
BRANCH  25  27
HETATM   27  O   UNL     1      -8.249  15.835  72.025  1.00  0.00     6.281 OA 
HETATM   28  C   UNL     1      -6.939  15.456  72.466  1.00  0.00     4.341 C  
ENDBRANCH  25  27
ENDBRANCH  13  25
BRANCH  17  29
HETATM   29  O   UNL     1     -11.945  17.220  70.639  1.00  0.00     1.902 OA 
BRANCH  29  30
HETATM   30  C   UNL     1     -13.107  16.535  70.715  1.00  0.00     3.068 C  
HETATM   31  C   UNL     1     -13.390  15.803  69.431  1.00  0.00     1.891 C  
HETATM   32  O   UNL     1     -13.832  16.469  71.700  1.00  0.00     1.265 OA 
ENDBRANCH  29  30
ENDBRANCH  17  29
BRANCH  22  33
HETATM   33  O   UNL     1     -12.078   8.416  70.971  1.00  0.00    -0.279 OA 
HETATM   34  C   UNL     1     -12.187   7.813  72.250  1.00  0.00    -0.256 C  
ENDBRANCH  22  33
BRANCH  20  35
HETATM   35  C   UNL     1     -10.276   8.655  68.627  1.00  0.00    -0.214 C  
HETATM   36  C   UNL     1      -7.336   6.290  69.569  1.00  0.00    -0.084 A  
HETATM   37  C   UNL     1      -9.793   9.377  67.285  1.00  0.00    -0.232 C  
HETATM   38  C   UNL     1      -8.991   8.456  66.381  1.00  0.00    -0.207 C  
HETATM   39  C   UNL     1      -6.276   5.353  69.622  1.00  0.00    -0.026 A  
HETATM   40  C   UNL     1      -5.362   5.378  70.682  1.00  0.00    -0.005 A  
HETATM   41  C   UNL     1      -5.495   6.307  71.705  1.00  0.00    -0.027 A  
HETATM   42  C   UNL     1      -8.194   8.932  65.163  1.00  0.00    -0.143 C  
HETATM   43  C   UNL     1      -7.910   7.719  64.217  1.00  0.00    -0.138 C  
HETATM   44  C   UNL     1      -6.560   7.210  71.711  1.00  0.00    -0.048 A  
HETATM   45  C   UNL     1      -7.961   6.310  64.906  1.00  0.00    -0.124 C  
HETATM   46  C   UNL     1      -7.456   7.171  70.634  1.00  0.00    -0.081 A  
HETATM   47  H   UNL     1      -9.005   8.533  71.095  1.00  0.00     0.000 HD 
HETATM   48  N   UNL     1      -8.940   6.148  65.980  1.00  0.00    -0.156 NA 
HETATM   49  N   UNL     1      -8.587   7.906  70.409  1.00  0.00    -0.131 NA 
HETATM   50  C   UNL     1      -8.469   5.685  67.310  1.00  0.00    -0.106 C  
HETATM   51  C   UNL     1      -9.840   7.255  65.989  1.00  0.00     0.322 C  
HETATM   52  C   UNL     1      -8.386   6.580  68.597  1.00  0.00    -0.122 A  
HETATM   53  C   UNL     1      -9.097   7.698  69.140  1.00  0.00    -0.141 A  
BRANCH  35  54
HETATM   54  C   UNL     1     -11.520   7.684  68.479  1.00  0.00     0.921 C  
HETATM   55  O   UNL     1     -12.654   8.028  68.171  1.00  0.00     5.248 OA 
BRANCH  54  56
HETATM   56  O   UNL     1     -11.162   6.377  68.771  1.00  0.00    -0.333 OA 
HETATM   57  C   UNL     1     -11.375   5.955  70.123  1.00  0.00    -0.161 C  
ENDBRANCH  54  56
ENDBRANCH  35  54
BRANCH  43  58
HETATM   58  C   UNL     1      -6.618   7.885  63.418  1.00  0.00    -0.067 C  
HETATM   59  C   UNL     1      -6.322   6.735  62.469  1.00  0.00    -0.043 C  
HETATM   60  F   UNL     1      -5.564   8.026  64.264  1.00  0.00    -0.042 F  
HETATM   61  F   UNL     1      -6.691   9.034  62.695  1.00  0.00    -0.096 F  
ENDBRANCH  43  58
ENDBRANCH  20  35
ENDBRANCH   2   3
TORSDOF 10
ENDMDL
MODEL       38
REMARK 921   NORMALIZED FREE ENERGY PREDICTED BY IDOCK:   64.63 KCAL/MOL
REMARK 922        TOTAL FREE ENERGY PREDICTED BY IDOCK:  102.43 KCAL/MOL
REMARK 923 INTER-LIGAND FREE ENERGY PREDICTED BY IDOCK:   77.98 KCAL/MOL
REMARK 924 INTRA-LIGAND FREE ENERGY PREDICTED BY IDOCK:   24.45 KCAL/MOL
REMARK 927      BINDING AFFINITY PREDICTED BY RF-SCORE:    0.00 PKD
ROOT
HETATM    1  C   UNL     1      -7.670   7.062  71.977  1.00  0.00    -0.092 C  
HETATM    2  C   UNL     1      -8.378   5.760  71.484  1.00  0.00    -0.127 C  
ENDROOT
BRANCH   2   3
HETATM    3  C   UNL     1      -8.739   5.700  69.914  1.00  0.00    -0.127 C  
HETATM    4  C   UNL     1      -7.454   4.959  69.456  1.00  0.00    -0.056 C  
HETATM    5  C   UNL     1      -6.360   5.733  69.307  1.00  0.00    -0.040 C  
HETATM    6  C   UNL     1      -6.517   6.510  68.058  1.00  0.00    -0.053 C  
HETATM    7  N   UNL     1      -7.576   7.520  68.230  1.00  0.00    -0.111 NA 
HETATM    8  C   UNL     1      -7.975   7.936  66.889  1.00  0.00    -0.108 C  
HETATM    9  C   UNL     1      -9.445   7.670  66.740  1.00  0.00    -0.244 C  
HETATM   10  C   UNL     1     -10.027   7.595  68.175  1.00  0.00    -0.203 C  
HETATM   11  C   UNL     1      -8.789   7.202  69.101  1.00  0.00    -0.135 C  
HETATM   12  C   UNL     1     -11.253   6.657  68.394  1.00  0.00    -0.125 C  
HETATM   13  C   UNL     1     -10.911   5.161  68.375  1.00  0.00     0.403 C  
HETATM   14  N   UNL     1     -12.313   7.171  67.469  1.00  0.00     3.782 NA 
HETATM   15  C   UNL     1     -10.470  10.255  68.193  1.00  0.00    -0.224 A  
HETATM   16  O   UNL     1     -12.117   4.355  68.496  1.00  0.00     8.725 OA 
HETATM   17  C   UNL     1      -9.998   4.784  69.596  1.00  0.00    -0.227 C  
HETATM   18  C   UNL     1     -13.711   6.758  67.542  1.00  0.00    19.038 C  
HETATM   19  C   UNL     1     -12.139   8.586  67.673  1.00  0.00     5.000 A  
HETATM   20  C   UNL     1     -11.395  11.293  67.807  1.00  0.00    -0.354 A  
HETATM   21  C   UNL     1     -10.848   8.911  68.152  1.00  0.00    -0.062 A  
HETATM   22  C   UNL     1     -12.723  10.911  67.429  1.00  0.00     4.831 A  
HETATM   23  C   UNL     1     -13.068   9.566  67.347  1.00  0.00    13.212 A  
HETATM   24  H   UNL     1     -11.905   3.428  68.484  1.00  0.00     0.000 HD 
BRANCH  13  25
HETATM   25  C   UNL     1     -10.304   4.729  67.021  1.00  0.00    -0.115 C  
HETATM   26  O   UNL     1     -10.933   4.356  66.038  1.00  0.00     0.129 OA 
BRANCH  25  27
HETATM   27  O   UNL     1      -8.939   4.800  67.096  1.00  0.00    -0.110 OA 
HETATM   28  C   UNL     1      -8.303   4.400  68.317  1.00  0.00    -0.093 C  
ENDBRANCH  25  27
ENDBRANCH  13  25
BRANCH  17  29
HETATM   29  O   UNL     1     -10.775   4.370  70.785  1.00  0.00     0.274 OA 
BRANCH  29  30
HETATM   30  C   UNL     1     -10.272   4.306  72.038  1.00  0.00    -0.150 C  
HETATM   31  C   UNL     1     -10.335   2.902  72.575  1.00  0.00    -0.189 C  
HETATM   32  O   UNL     1      -9.785   5.242  72.659  1.00  0.00    -0.149 OA 
ENDBRANCH  29  30
ENDBRANCH  17  29
BRANCH  22  33
HETATM   33  O   UNL     1     -13.653  11.873  67.172  1.00  0.00     6.383 OA 
HETATM   34  C   UNL     1     -13.564  13.183  67.709  1.00  0.00     7.290 C  
ENDBRANCH  22  33
BRANCH  20  35
HETATM   35  C   UNL     1     -10.918  12.820  67.823  1.00  0.00    -0.266 C  
HETATM   36  C   UNL     1      -7.354  13.623  69.153  1.00  0.00     0.047 A  
HETATM   37  C   UNL     1     -11.901  13.563  68.841  1.00  0.00    -0.384 C  
HETATM   38  C   UNL     1     -11.347  14.893  69.325  1.00  0.00    -0.315 C  
HETATM   39  C   UNL     1      -6.160  14.196  69.656  1.00  0.00    -0.121 A  
HETATM   40  C   UNL     1      -5.181  13.387  70.245  1.00  0.00    -0.106 A  
HETATM   41  C   UNL     1      -5.357  12.012  70.325  1.00  0.00    -0.115 A  
HETATM   42  C   UNL     1     -11.941  15.699  70.483  1.00  0.00    -0.417 C  
HETATM   43  C   UNL     1     -11.453  17.182  70.393  1.00  0.00     1.285 C  
HETATM   44  C   UNL     1      -6.497  11.409  69.792  1.00  0.00    -0.133 A  
HETATM   45  C   UNL     1     -10.126  17.399  69.585  1.00  0.00     0.165 C  
HETATM   46  C   UNL     1      -7.467  12.242  69.216  1.00  0.00     0.252 A  
HETATM   47  H   UNL     1      -8.922  10.965  68.367  1.00  0.00     0.000 HD 
HETATM   48  N   UNL     1      -9.915  16.521  68.435  1.00  0.00    -0.240 NA 
HETATM   49  N   UNL     1      -8.644  11.918  68.598  1.00  0.00    -0.092 NA 
HETATM   50  C   UNL     1      -8.662  15.725  68.367  1.00  0.00    -0.177 C  
HETATM   51  C   UNL     1     -11.118  15.815  68.135  1.00  0.00    -0.341 C  
HETATM   52  C   UNL     1      -8.572  14.171  68.566  1.00  0.00    -0.163 A  
HETATM   53  C   UNL     1      -9.412  13.035  68.324  1.00  0.00    -0.208 A  
BRANCH  35  54
HETATM   54  C   UNL     1     -10.911  13.379  66.339  1.00  0.00    -0.289 C  
HETATM   55  O   UNL     1      -9.912  13.702  65.710  1.00  0.00    -0.289 OA 
BRANCH  54  56
HETATM   56  O   UNL     1     -12.202  13.480  65.845  1.00  0.00    -0.415 OA 
HETATM   57  C   UNL     1     -12.323  13.935  64.492  1.00  0.00    -0.372 C  
ENDBRANCH  54  56
ENDBRANCH  35  54
BRANCH  43  58
HETATM   58  C   UNL     1     -11.371  17.860  71.761  1.00  0.00     2.970 C  
HETATM   59  C   UNL     1     -10.043  17.662  72.474  1.00  0.00     7.294 C  
HETATM   60  F   UNL     1     -12.365  17.401  72.566  1.00  0.00     0.807 F  
HETATM   61  F   UNL     1     -11.583  19.193  71.605  1.00  0.00     3.636 F  
ENDBRANCH  43  58
ENDBRANCH  20  35
ENDBRANCH   2   3
TORSDOF 10
ENDMDL
MODEL       39
REMARK 921   NORMALIZED FREE ENERGY PREDICTED BY IDOCK:   70.76 KCAL/MOL
REMARK 922        TOTAL FREE ENERGY PREDICTED BY IDOCK:  112.14 KCAL/MOL
REMARK 923 INTER-LIGAND FREE ENERGY PREDICTED BY IDOCK:   96.87 KCAL/MOL
REMARK 924 INTRA-LIGAND FREE ENERGY PREDICTED BY IDOCK:   15.27 KCAL/MOL
REMARK 927      BINDING AFFINITY PREDICTED BY RF-SCORE:    0.00 PKD
ROOT
HETATM    1  C   UNL     1     -11.664   4.294  67.903  1.00  0.00     8.553 C  
HETATM    2  C   UNL     1     -10.748   5.452  68.411  1.00  0.00    -0.071 C  
ENDROOT
BRANCH   2   3
HETATM    3  C   UNL     1     -11.151   6.107  69.827  1.00  0.00    -0.486 C  
HETATM    4  C   UNL     1     -12.438   5.272  70.058  1.00  0.00     6.706 C  
HETATM    5  C   UNL     1     -13.534   5.702  69.401  1.00  0.00    12.500 C  
HETATM    6  C   UNL     1     -14.036   6.911  70.090  1.00  0.00     3.608 C  
HETATM    7  N   UNL     1     -13.101   8.030  69.875  1.00  0.00     2.264 NA 
HETATM    8  C   UNL     1     -13.402   9.025  70.900  1.00  0.00     0.156 C  
HETATM    9  C   UNL     1     -12.153   9.263  71.697  1.00  0.00    -0.451 C  
HETATM   10  C   UNL     1     -10.968   8.806  70.807  1.00  0.00    -0.294 C  
HETATM   11  C   UNL     1     -11.601   7.754  69.787  1.00  0.00     0.323 C  
HETATM   12  C   UNL     1      -9.710   8.242  71.535  1.00  0.00    -0.191 C  
HETATM   13  C   UNL     1      -9.903   6.839  72.126  1.00  0.00    -0.148 C  
HETATM   14  N   UNL     1      -9.243   9.348  72.430  1.00  0.00     0.635 NA 
HETATM   15  C   UNL     1     -10.778  11.260  69.705  1.00  0.00     0.007 A  
HETATM   16  O   UNL     1      -8.719   6.423  72.864  1.00  0.00    -0.125 OA 
HETATM   17  C   UNL     1     -10.114   5.779  70.987  1.00  0.00    -0.205 C  
HETATM   18  C   UNL     1      -7.943   9.351  73.092  1.00  0.00     2.052 C  
HETATM   19  C   UNL     1      -9.414  10.464  71.534  1.00  0.00     4.252 A  
HETATM   20  C   UNL     1     -10.222  12.581  69.872  1.00  0.00     1.680 A  
HETATM   21  C   UNL     1     -10.358  10.202  70.513  1.00  0.00    -0.108 A  
HETATM   22  C   UNL     1      -9.195  12.764  70.853  1.00  0.00     9.889 A  
HETATM   23  C   UNL     1      -8.822  11.712  71.682  1.00  0.00    13.895 A  
HETATM   24  H   UNL     1      -8.838   5.554  73.230  1.00  0.00     0.000 HD 
BRANCH  13  25
HETATM   25  C   UNL     1     -11.032   6.811  73.182  1.00  0.00    -0.246 C  
HETATM   26  O   UNL     1     -11.861   7.694  73.370  1.00  0.00     0.074 OA 
BRANCH  25  27
HETATM   27  O   UNL     1     -10.948   5.650  73.902  1.00  0.00    -0.195 OA 
HETATM   28  C   UNL     1      -9.938   4.699  73.542  1.00  0.00    -0.148 C  
ENDBRANCH  25  27
ENDBRANCH  13  25
BRANCH  17  29
HETATM   29  O   UNL     1      -8.845   5.175  70.525  1.00  0.00    -0.115 OA 
BRANCH  29  30
HETATM   30  C   UNL     1      -8.184   4.198  71.184  1.00  0.00    -0.073 C  
HETATM   31  C   UNL     1      -7.679   4.687  72.514  1.00  0.00    -0.087 C  
HETATM   32  O   UNL     1      -8.038   3.047  70.792  1.00  0.00    -0.052 OA 
ENDBRANCH  29  30
ENDBRANCH  17  29
BRANCH  22  33
HETATM   33  O   UNL     1      -8.569  13.971  70.954  1.00  0.00     3.527 OA 
HETATM   34  C   UNL     1      -7.156  14.098  70.971  1.00  0.00     1.587 C  
ENDBRANCH  22  33
BRANCH  20  35
HETATM   35  C   UNL     1     -10.756  13.782  68.960  1.00  0.00    -0.209 C  
HETATM   36  C   UNL     1     -12.120  12.940  65.418  1.00  0.00    -0.501 A  
HETATM   37  C   UNL     1      -9.483  14.709  68.688  1.00  0.00    -0.211 C  
HETATM   38  C   UNL     1      -9.679  15.639  67.502  1.00  0.00    -0.222 C  
HETATM   39  C   UNL     1     -12.583  12.928  64.079  1.00  0.00    -0.331 A  
HETATM   40  C   UNL     1     -12.622  11.730  63.355  1.00  0.00    -0.458 A  
HETATM   41  C   UNL     1     -12.229  10.537  63.946  1.00  0.00     4.043 A  
HETATM   42  C   UNL     1      -8.554  16.453  66.856  1.00  0.00    -0.245 C  
HETATM   43  C   UNL     1      -9.168  17.623  66.020  1.00  0.00    -0.049 C  
HETATM   44  C   UNL     1     -11.819  10.505  65.281  1.00  0.00     2.767 A  
HETATM   45  C   UNL     1     -10.653  17.408  65.563  1.00  0.00    -0.108 C  
HETATM   46  C   UNL     1     -11.779  11.719  65.980  1.00  0.00    -0.022 A  
HETATM   47  H   UNL     1     -11.302  11.239  67.982  1.00  0.00     0.000 HD 
HETATM   48  N   UNL     1     -11.519  16.678  66.488  1.00  0.00     0.671 NA 
HETATM   49  N   UNL     1     -11.455  11.967  67.286  1.00  0.00    -0.415 NA 
HETATM   50  C   UNL     1     -12.232  15.471  65.995  1.00  0.00     0.933 C  
HETATM   51  C   UNL     1     -10.875  16.546  67.754  1.00  0.00    -0.304 C  
HETATM   52  C   UNL     1     -11.887  13.994  66.400  1.00  0.00    -0.437 A  
HETATM   53  C   UNL     1     -11.359  13.322  67.549  1.00  0.00    -0.296 A  
BRANCH  35  54
HETATM   54  C   UNL     1     -11.978  14.484  69.687  1.00  0.00    -0.328 C  
HETATM   55  O   UNL     1     -13.100  14.617  69.216  1.00  0.00     0.571 OA 
BRANCH  54  56
HETATM   56  O   UNL     1     -11.603  14.959  70.934  1.00  0.00    -0.289 OA 
HETATM   57  C   UNL     1     -10.763  14.095  71.709  1.00  0.00     3.241 C  
ENDBRANCH  54  56
ENDBRANCH  35  54
BRANCH  43  58
HETATM   58  C   UNL     1      -8.290  18.027  64.837  1.00  0.00     3.953 C  
HETATM   59  C   UNL     1      -8.890  19.113  63.959  1.00  0.00     9.471 C  
HETATM   60  F   UNL     1      -8.028  16.943  64.062  1.00  0.00     7.170 F  
HETATM   61  F   UNL     1      -7.091  18.466  65.307  1.00  0.00    -0.235 F  
ENDBRANCH  43  58
ENDBRANCH  20  35
ENDBRANCH   2   3
TORSDOF 10
ENDMDL
MODEL       40
REMARK 921   NORMALIZED FREE ENERGY PREDICTED BY IDOCK:   95.03 KCAL/MOL
REMARK 922        TOTAL FREE ENERGY PREDICTED BY IDOCK:  150.60 KCAL/MOL
REMARK 923 INTER-LIGAND FREE ENERGY PREDICTED BY IDOCK:  142.96 KCAL/MOL
REMARK 924 INTRA-LIGAND FREE ENERGY PREDICTED BY IDOCK:    7.64 KCAL/MOL
REMARK 927      BINDING AFFINITY PREDICTED BY RF-SCORE:    0.00 PKD
ROOT
HETATM    1  C   UNL     1      -6.752   7.294  64.463  1.00  0.00    -0.043 C  
HETATM    2  C   UNL     1      -7.783   8.375  64.005  1.00  0.00    -0.139 C  
ENDROOT
BRANCH   2   3
HETATM    3  C   UNL     1      -9.249   8.285  64.671  1.00  0.00     0.779 C  
HETATM    4  C   UNL     1     -10.043   8.117  63.348  1.00  0.00     6.184 C  
HETATM    5  C   UNL     1     -10.281   9.255  62.667  1.00  0.00     3.048 C  
HETATM    6  C   UNL     1     -11.352   9.995  63.371  1.00  0.00     4.813 C  
HETATM    7  N   UNL     1     -10.838  10.515  64.650  1.00  0.00     0.164 NA 
HETATM    8  C   UNL     1     -12.005  10.834  65.468  1.00  0.00     2.413 C  
HETATM    9  C   UNL     1     -11.911  10.042  66.739  1.00  0.00     3.597 C  
HETATM   10  C   UNL     1     -10.419   9.659  66.911  1.00  0.00    -0.282 C  
HETATM   11  C   UNL     1      -9.810   9.705  65.437  1.00  0.00    -0.252 C  
HETATM   12  C   UNL     1     -10.111   8.315  67.638  1.00  0.00    -0.209 C  
HETATM   13  C   UNL     1     -10.412   7.064  66.800  1.00  0.00    -0.227 C  
HETATM   14  N   UNL     1     -10.736   8.447  68.993  1.00  0.00    -0.141 NA 
HETATM   15  C   UNL     1      -9.931  11.946  68.254  1.00  0.00    -0.202 A  
HETATM   16  O   UNL     1     -10.185   5.855  67.578  1.00  0.00    -0.152 OA 
HETATM   17  C   UNL     1      -9.454   6.983  65.559  1.00  0.00     0.616 C  
HETATM   18  C   UNL     1     -10.461   7.532  70.096  1.00  0.00    -0.222 C  
HETATM   19  C   UNL     1     -10.364   9.807  69.291  1.00  0.00    -0.215 A  
HETATM   20  C   UNL     1      -9.980  12.579  69.550  1.00  0.00     1.044 A  
HETATM   21  C   UNL     1     -10.095  10.565  68.128  1.00  0.00    -0.180 A  
HETATM   22  C   UNL     1     -10.153  11.748  70.703  1.00  0.00     4.326 A  
HETATM   23  C   UNL     1     -10.363  10.380  70.557  1.00  0.00     0.215 A  
HETATM   24  H   UNL     1     -10.371   5.081  67.060  1.00  0.00     0.000 HD 
BRANCH  13  25
HETATM   25  C   UNL     1     -11.905   6.983  66.406  1.00  0.00     3.614 C  
HETATM   26  O   UNL     1     -12.855   7.059  67.176  1.00  0.00     6.571 OA 
BRANCH  25  27
HETATM   27  O   UNL     1     -12.005   6.783  65.056  1.00  0.00     7.857 OA 
HETATM   28  C   UNL     1     -13.309   6.793  64.461  1.00  0.00    14.007 C  
ENDBRANCH  25  27
ENDBRANCH  13  25
BRANCH  17  29
HETATM   29  O   UNL     1      -8.212   6.229  65.844  1.00  0.00    -0.116 OA 
BRANCH  29  30
HETATM   30  C   UNL     1      -7.992   4.953  65.458  1.00  0.00    -0.099 C  
HETATM   31  C   UNL     1      -6.688   4.827  64.720  1.00  0.00    -0.044 C  
HETATM   32  O   UNL     1      -8.721   4.000  65.702  1.00  0.00    -0.116 OA 
ENDBRANCH  29  30
ENDBRANCH  17  29
BRANCH  22  33
HETATM   33  O   UNL     1     -10.086  12.301  71.948  1.00  0.00    10.646 OA 
HETATM   34  C   UNL     1     -11.116  13.122  72.473  1.00  0.00     7.129 C  
ENDBRANCH  22  33
BRANCH  20  35
HETATM   35  C   UNL     1      -9.832  14.168  69.657  1.00  0.00     0.573 C  
HETATM   36  C   UNL     1      -7.010  15.607  71.913  1.00  0.00     3.705 A  
HETATM   37  C   UNL     1     -11.186  14.677  70.338  1.00  0.00    -0.170 C  
HETATM   38  C   UNL     1     -11.059  16.074  70.921  1.00  0.00    -0.288 C  
HETATM   39  C   UNL     1      -6.141  16.385  72.715  1.00  0.00     3.167 A  
HETATM   40  C   UNL     1      -5.229  15.765  73.578  1.00  0.00     2.408 A  
HETATM   41  C   UNL     1      -5.150  14.380  73.642  1.00  0.00    -0.277 A  
HETATM   42  C   UNL     1     -12.099  16.717  71.844  1.00  0.00     0.180 C  
HETATM   43  C   UNL     1     -11.902  18.268  71.854  1.00  0.00     6.091 C  
HETATM   44  C   UNL     1      -5.956  13.584  72.826  1.00  0.00     0.923 A  
HETATM   45  C   UNL     1     -10.469  18.761  71.446  1.00  0.00     3.116 C  
HETATM   46  C   UNL     1      -6.867  14.229  71.979  1.00  0.00     2.381 A  
HETATM   47  H   UNL     1      -7.748  12.720  70.790  1.00  0.00     0.000 HD 
HETATM   48  N   UNL     1      -9.778  17.974  70.426  1.00  0.00     1.986 NA 
HETATM   49  N   UNL     1      -7.736  13.701  71.064  1.00  0.00     3.434 NA 
HETATM   50  C   UNL     1      -8.427  17.438  70.734  1.00  0.00     5.579 C  
HETATM   51  C   UNL     1     -10.688  17.058  69.819  1.00  0.00     0.036 C  
HETATM   52  C   UNL     1      -8.097  15.925  70.992  1.00  0.00     3.677 A  
HETATM   53  C   UNL     1      -8.598  14.657  70.556  1.00  0.00     1.909 A  
BRANCH  35  54
HETATM   54  C   UNL     1      -9.517  14.760  68.220  1.00  0.00    -0.207 C  
HETATM   55  O   UNL     1      -8.947  14.161  67.317  1.00  0.00    -0.193 OA 
BRANCH  54  56
HETATM   56  O   UNL     1      -9.951  16.073  68.122  1.00  0.00    -0.223 OA 
HETATM   57  C   UNL     1      -9.821  16.683  66.833  1.00  0.00    -0.263 C  
ENDBRANCH  54  56
ENDBRANCH  35  54
BRANCH  43  58
HETATM   58  C   UNL     1     -12.340  18.909  73.171  1.00  0.00     9.483 C  
HETATM   59  C   UNL     1     -13.540  18.238  73.820  1.00  0.00     7.926 C  
HETATM   60  F   UNL     1     -12.635  20.220  72.973  1.00  0.00    13.104 F  
HETATM   61  F   UNL     1     -11.300  18.873  74.046  1.00  0.00     0.515 F  
ENDBRANCH  43  58
ENDBRANCH  20  35
ENDBRANCH   2   3
TORSDOF 10
ENDMDL
MODEL       41
REMARK 921   NORMALIZED FREE ENERGY PREDICTED BY IDOCK:  116.94 KCAL/MOL
REMARK 922        TOTAL FREE ENERGY PREDICTED BY IDOCK:  185.33 KCAL/MOL
REMARK 923 INTER-LIGAND FREE ENERGY PREDICTED BY IDOCK:  154.71 KCAL/MOL
REMARK 924 INTRA-LIGAND FREE ENERGY PREDICTED BY IDOCK:   30.62 KCAL/MOL
REMARK 927      BINDING AFFINITY PREDICTED BY RF-SCORE:    0.00 PKD
ROOT
HETATM    1  C   UNL     1      -7.335  17.420  73.767  1.00  0.00    12.040 C  
HETATM    2  C   UNL     1      -7.340  16.177  72.821  1.00  0.00    10.381 C  
ENDROOT
BRANCH   2   3
HETATM    3  C   UNL     1      -8.788  15.656  72.341  1.00  0.00     8.899 C  
HETATM    4  C   UNL     1      -9.487  15.753  73.723  1.00  0.00    12.272 C  
HETATM    5  C   UNL     1      -9.253  14.727  74.565  1.00  0.00    12.232 C  
HETATM    6  C   UNL     1     -10.041  13.564  74.099  1.00  0.00    11.449 C  
HETATM    7  N   UNL     1      -9.475  13.052  72.839  1.00  0.00    17.210 NA 
HETATM    8  C   UNL     1     -10.511  12.228  72.223  1.00  0.00    13.486 C  
HETATM    9  C   UNL     1     -10.802  12.790  70.862  1.00  0.00     3.444 C  
HETATM   10  C   UNL     1      -9.561  13.625  70.456  1.00  0.00     4.133 C  
HETATM   11  C   UNL     1      -8.865  14.026  71.835  1.00  0.00     9.255 C  
HETATM   12  C   UNL     1      -9.806  14.859  69.535  1.00  0.00    -0.059 C  
HETATM   13  C   UNL     1     -10.467  16.050  70.243  1.00  0.00    -0.108 C  
HETATM   14  N   UNL     1     -10.444  14.306  68.297  1.00  0.00    -0.241 NA 
HETATM   15  C   UNL     1      -8.396  11.457  69.354  1.00  0.00     0.402 A  
HETATM   16  O   UNL     1     -10.744  17.122  69.299  1.00  0.00    -0.328 OA 
HETATM   17  C   UNL     1      -9.509  16.650  71.332  1.00  0.00     5.809 C  
HETATM   18  C   UNL     1     -10.597  15.070  67.064  1.00  0.00    -0.293 C  
HETATM   19  C   UNL     1      -9.637  13.125  68.124  1.00  0.00    -0.227 A  
HETATM   20  C   UNL     1      -8.315  10.645  68.164  1.00  0.00    -0.121 A  
HETATM   21  C   UNL     1      -9.029  12.701  69.329  1.00  0.00     0.962 A  
HETATM   22  C   UNL     1      -8.859  11.172  66.948  1.00  0.00    -0.157 A  
HETATM   23  C   UNL     1      -9.529  12.391  66.949  1.00  0.00    -0.219 A  
HETATM   24  H   UNL     1     -11.153  17.860  69.737  1.00  0.00     0.000 HD 
BRANCH  13  25
HETATM   25  C   UNL     1     -11.857  15.680  70.811  1.00  0.00    -0.384 C  
HETATM   26  O   UNL     1     -12.324  16.067  71.875  1.00  0.00    -0.447 OA 
BRANCH  25  27
HETATM   27  O   UNL     1     -12.483  14.823  69.946  1.00  0.00    -0.306 OA 
HETATM   28  C   UNL     1     -12.586  13.442  70.314  1.00  0.00    -0.117 C  
ENDBRANCH  25  27
ENDBRANCH  13  25
BRANCH  17  29
HETATM   29  O   UNL     1      -8.641  17.725  70.801  1.00  0.00     4.543 OA 
BRANCH  29  30
HETATM   30  C   UNL     1      -7.639  18.307  71.496  1.00  0.00     7.074 C  
HETATM   31  C   UNL     1      -6.988  17.325  72.432  1.00  0.00     8.089 C  
HETATM   32  O   UNL     1      -7.264  19.465  71.370  1.00  0.00     1.588 OA 
ENDBRANCH  29  30
ENDBRANCH  17  29
BRANCH  22  33
HETATM   33  O   UNL     1      -8.695  10.483  65.783  1.00  0.00    -0.164 OA 
HETATM   34  C   UNL     1      -9.104  10.998  64.527  1.00  0.00    -0.111 C  
ENDBRANCH  22  33
BRANCH  20  35
HETATM   35  C   UNL     1      -7.621   9.206  68.235  1.00  0.00    -0.083 C  
HETATM   36  C   UNL     1      -9.172   6.309  66.156  1.00  0.00    -0.143 A  
HETATM   37  C   UNL     1      -7.775   8.734  69.754  1.00  0.00    -0.084 C  
HETATM   38  C   UNL     1      -7.582   7.236  69.925  1.00  0.00    -0.094 C  
HETATM   39  C   UNL     1      -9.571   5.079  65.578  1.00  0.00    -0.105 A  
HETATM   40  C   UNL     1     -10.735   5.006  64.803  1.00  0.00     0.773 A  
HETATM   41  C   UNL     1     -11.500   6.142  64.574  1.00  0.00     7.403 A  
HETATM   42  C   UNL     1      -7.915   6.469  71.208  1.00  0.00    -0.108 C  
HETATM   43  C   UNL     1      -7.163   5.097  71.207  1.00  0.00    -0.069 C  
HETATM   44  C   UNL     1     -11.106   7.380  65.084  1.00  0.00     7.734 A  
HETATM   45  C   UNL     1      -6.745   4.568  69.790  1.00  0.00    -0.037 C  
HETATM   46  C   UNL     1      -9.942   7.425  65.864  1.00  0.00     0.648 A  
HETATM   47  H   UNL     1      -9.581   9.464  66.282  1.00  0.00     0.000 HD 
HETATM   48  N   UNL     1      -6.359   5.578  68.807  1.00  0.00    -0.036 NA 
HETATM   49  N   UNL     1      -9.320   8.493  66.448  1.00  0.00    -0.197 NA 
HETATM   50  C   UNL     1      -7.062   5.605  67.499  1.00  0.00    -0.074 C  
HETATM   51  C   UNL     1      -6.191   6.842  69.449  1.00  0.00    -0.030 C  
HETATM   52  C   UNL     1      -8.089   6.704  67.051  1.00  0.00    -0.113 A  
HETATM   53  C   UNL     1      -8.295   8.101  67.290  1.00  0.00    -0.121 A  
BRANCH  35  54
HETATM   54  C   UNL     1      -6.135   9.316  67.694  1.00  0.00    -0.054 C  
HETATM   55  O   UNL     1      -5.819   9.499  66.526  1.00  0.00    -0.053 OA 
BRANCH  54  56
HETATM   56  O   UNL     1      -5.222   9.152  68.724  1.00  0.00    -0.033 OA 
HETATM   57  C   UNL     1      -5.393   7.984  69.535  1.00  0.00    -0.026 C  
ENDBRANCH  54  56
ENDBRANCH  35  54
BRANCH  43  58
HETATM   58  C   UNL     1      -7.908   4.017  71.990  1.00  0.00    -0.079 C  
HETATM   59  C   UNL     1      -9.419   4.178  71.989  1.00  0.00    -0.195 C  
HETATM   60  F   UNL     1      -7.478   3.999  73.278  1.00  0.00    -0.063 F  
HETATM   61  F   UNL     1      -7.604   2.801  71.463  1.00  0.00    -0.038 F  
ENDBRANCH  43  58
ENDBRANCH  20  35
ENDBRANCH   2   3
TORSDOF 10
ENDMDL
