MODEL        1
REMARK 921   NORMALIZED FREE ENERGY PREDICTED BY IDOCK:   -6.60 KCAL/MOL
REMARK 922        TOTAL FREE ENERGY PREDICTED BY IDOCK:  -12.42 KCAL/MOL
REMARK 923 INTER-LIGAND FREE ENERGY PREDICTED BY IDOCK:  -10.46 KCAL/MOL
REMARK 924 INTRA-LIGAND FREE ENERGY PREDICTED BY IDOCK:   -1.96 KCAL/MOL
REMARK 927      BINDING AFFINITY PREDICTED BY RF-SCORE:    0.00 PKD
ROOT
HETATM    1  C   UNL     1     -10.599   8.000  70.517  1.00  0.00    -0.220 C  
HETATM    2  N   UNL     1     -11.256   9.267  70.818  1.00  0.00    -0.268 NA 
HETATM    3  C   UNL     1     -11.203  10.054  69.697  1.00  0.00    -0.239 A  
HETATM    4  C   UNL     1     -12.213   9.427  71.894  1.00  0.00    -0.368 C  
HETATM    5  C   UNL     1     -11.765  11.323  69.638  1.00  0.00    -0.420 A  
HETATM    6  C   UNL     1     -11.657  12.148  68.519  1.00  0.00    -0.315 A  
HETATM    7  C   UNL     1     -10.954  11.675  67.380  1.00  0.00    -0.313 A  
HETATM    8  N   UNL     1      -8.878   6.538  67.539  1.00  0.00    -0.113 NA 
HETATM    9  H   UNL     1      -7.565   8.983  71.415  1.00  0.00     0.000 HD 
HETATM   10  C   UNL     1      -7.868   5.548  67.281  1.00  0.00    -0.101 C  
HETATM   11  C   UNL     1     -10.455  10.272  67.470  1.00  0.00    -0.293 A  
HETATM   12  C   UNL     1     -10.531   9.473  68.628  1.00  0.00    -0.237 A  
HETATM   13  O   UNL     1      -8.375   9.028  70.920  1.00  0.00    -0.167 OA 
HETATM   14  C   UNL     1      -9.214   7.923  71.363  1.00  0.00    -0.136 C  
HETATM   15  C   UNL     1      -9.057   7.001  68.883  1.00  0.00    -0.134 C  
HETATM   16  C   UNL     1      -8.441   6.534  71.190  1.00  0.00    -0.126 C  
HETATM   17  C   UNL     1     -10.305   7.949  68.933  1.00  0.00    -0.225 C  
HETATM   18  C   UNL     1      -9.099   5.770  70.018  1.00  0.00    -0.157 C  
HETATM   19  C   UNL     1      -8.292   4.557  69.533  1.00  0.00    -0.082 C  
HETATM   20  C   UNL     1     -11.129   7.189  67.840  1.00  0.00    -0.067 C  
HETATM   21  C   UNL     1      -7.825   4.445  68.306  1.00  0.00    -0.079 C  
HETATM   22  C   UNL     1     -10.086   6.694  66.787  1.00  0.00    -0.175 C  
ENDROOT
BRANCH   6  23
HETATM   23  O   UNL     1     -12.216  13.403  68.535  1.00  0.00    -0.295 OA 
HETATM   24  C   UNL     1     -12.431  14.025  69.804  1.00  0.00    -0.203 C  
ENDBRANCH   6  23
BRANCH   7  25
HETATM   25  C   UNL     1     -10.772  12.561  65.955  1.00  0.00    -0.292 C  
HETATM   26  C   UNL     1      -7.284  13.939  68.566  1.00  0.00    -0.107 C  
HETATM   27  C   UNL     1      -8.430  11.681  65.666  1.00  0.00     0.285 A  
HETATM   28  C   UNL     1      -7.308  15.396  68.063  1.00  0.00    -0.131 C  
HETATM   29  N   UNL     1      -8.389  13.181  67.905  1.00  0.00    -0.157 NA 
HETATM   30  C   UNL     1      -7.838  10.615  64.872  1.00  0.00     0.045 A  
HETATM   31  C   UNL     1      -7.652  15.471  66.714  1.00  0.00    -0.053 C  
HETATM   32  C   UNL     1      -9.746  11.763  65.227  1.00  0.00    -0.211 A  
HETATM   33  C   UNL     1      -7.724  12.343  66.842  1.00  0.00     0.021 C  
HETATM   34  N   UNL     1      -9.968  10.912  64.188  1.00  0.00    -0.315 NA 
HETATM   35  C   UNL     1      -6.597  10.007  64.898  1.00  0.00    -0.126 A  
HETATM   36  C   UNL     1      -9.407  14.210  67.597  1.00  0.00    -0.209 C  
HETATM   37  C   UNL     1      -8.831  10.137  64.006  1.00  0.00    -0.228 A  
HETATM   38  C   UNL     1      -9.127  15.000  66.374  1.00  0.00    -0.312 C  
HETATM   39  H   UNL     1     -10.824  10.855  63.636  1.00  0.00     0.000 HD 
HETATM   40  C   UNL     1      -8.628   9.019  63.201  1.00  0.00    -0.157 A  
HETATM   41  C   UNL     1     -10.054  14.126  65.445  1.00  0.00    -0.359 C  
HETATM   42  C   UNL     1      -6.368   8.875  64.105  1.00  0.00    -0.072 A  
HETATM   43  C   UNL     1      -7.385   8.386  63.287  1.00  0.00    -0.104 A  
BRANCH  25  44
HETATM   44  C   UNL     1     -12.231  12.700  65.451  1.00  0.00    -0.459 C  
HETATM   45  O   UNL     1     -13.015  13.612  65.672  1.00  0.00    -0.538 OA 
BRANCH  44  46
HETATM   46  O   UNL     1     -12.446  11.662  64.571  1.00  0.00    -0.096 OA 
HETATM   47  C   UNL     1     -12.882  11.859  63.227  1.00  0.00    -0.161 C  
ENDBRANCH  44  46
ENDBRANCH  25  44
BRANCH  28  48
HETATM   48  C   UNL     1      -7.904  16.354  69.178  1.00  0.00    -0.214 C  
HETATM   49  C   UNL     1      -8.718  17.662  68.859  1.00  0.00    -0.119 C  
ENDBRANCH  28  48
ENDBRANCH   7  25
BRANCH  18  50
HETATM   50  C   UNL     1     -10.444   5.014  70.483  1.00  0.00    -0.230 C  
HETATM   51  C   UNL     1     -10.308   3.992  71.649  1.00  0.00    -0.018 C  
ENDBRANCH  18  50
BRANCH  16  52
HETATM   52  O   UNL     1      -7.012   6.708  70.848  1.00  0.00    -0.064 OA 
BRANCH  52  53
HETATM   53  C   UNL     1      -6.130   6.437  71.861  1.00  0.00    -0.038 C  
HETATM   54  C   UNL     1      -6.549   5.249  72.697  1.00  0.00    -0.064 C  
HETATM   55  O   UNL     1      -5.190   7.149  72.156  1.00  0.00    -0.035 OA 
ENDBRANCH  52  53
ENDBRANCH  16  52
BRANCH  14  56
HETATM   56  C   UNL     1      -9.414   8.017  72.869  1.00  0.00    -0.277 C  
HETATM   57  O   UNL     1     -10.268   7.417  73.522  1.00  0.00    -0.320 OA 
BRANCH  56  58
HETATM   58  O   UNL     1      -8.389   8.746  73.414  1.00  0.00    -0.374 OA 
HETATM   59  C   UNL     1      -7.711   8.165  74.524  1.00  0.00    -0.235 C  
ENDBRANCH  56  58
ENDBRANCH  14  56
TORSDOF 10
ENDMDL
MODEL        2
REMARK 921   NORMALIZED FREE ENERGY PREDICTED BY IDOCK:   -6.18 KCAL/MOL
REMARK 922        TOTAL FREE ENERGY PREDICTED BY IDOCK:  -11.75 KCAL/MOL
REMARK 923 INTER-LIGAND FREE ENERGY PREDICTED BY IDOCK:  -10.19 KCAL/MOL
REMARK 924 INTRA-LIGAND FREE ENERGY PREDICTED BY IDOCK:   -1.56 KCAL/MOL
REMARK 927      BINDING AFFINITY PREDICTED BY RF-SCORE:    0.00 PKD
ROOT
HETATM    1  C   UNL     1     -10.234   7.456  70.424  1.00  0.00    -0.198 C  
HETATM    2  N   UNL     1     -10.968   8.632  70.877  1.00  0.00    -0.244 NA 
HETATM    3  C   UNL     1     -10.878   9.594  69.904  1.00  0.00    -0.256 A  
HETATM    4  C   UNL     1     -12.000   8.579  71.893  1.00  0.00    -0.345 C  
HETATM    5  C   UNL     1     -11.494  10.835  70.011  1.00  0.00    -0.412 A  
HETATM    6  C   UNL     1     -11.351  11.835  69.049  1.00  0.00    -0.278 A  
HETATM    7  C   UNL     1     -10.553  11.581  67.903  1.00  0.00    -0.224 A  
HETATM    8  N   UNL     1      -8.254   6.564  67.382  1.00  0.00    -0.120 NA 
HETATM    9  H   UNL     1      -7.315   8.385  71.687  1.00  0.00     0.000 HD 
HETATM   10  C   UNL     1      -7.184   5.667  67.042  1.00  0.00    -0.075 C  
HETATM   11  C   UNL     1      -9.996  10.201  67.802  1.00  0.00    -0.198 A  
HETATM   12  C   UNL     1     -10.111   9.221  68.807  1.00  0.00    -0.210 A  
HETATM   13  O   UNL     1      -8.092   8.482  71.148  1.00  0.00    -0.107 OA 
HETATM   14  C   UNL     1      -8.905   7.291  71.345  1.00  0.00    -0.130 C  
HETATM   15  C   UNL     1      -8.543   6.794  68.767  1.00  0.00    -0.123 C  
HETATM   16  C   UNL     1      -8.058   5.977  71.007  1.00  0.00    -0.121 C  
HETATM   17  C   UNL     1      -9.834   7.676  68.878  1.00  0.00    -0.164 C  
HETATM   18  C   UNL     1      -8.601   5.393  69.683  1.00  0.00    -0.103 C  
HETATM   19  C   UNL     1      -7.708   4.305  69.068  1.00  0.00    -0.054 C  
HETATM   20  C   UNL     1     -10.548   7.077  67.620  1.00  0.00    -0.327 C  
HETATM   21  C   UNL     1      -7.156   4.413  67.877  1.00  0.00    -0.064 C  
HETATM   22  C   UNL     1      -9.416   6.799  66.580  1.00  0.00    -0.165 C  
ENDROOT
BRANCH   6  23
HETATM   23  O   UNL     1     -11.968  13.050  69.228  1.00  0.00    -0.307 OA 
HETATM   24  C   UNL     1     -12.225  13.483  70.565  1.00  0.00    -0.361 C  
ENDBRANCH   6  23
BRANCH   7  25
HETATM   25  C   UNL     1     -10.320  12.695  66.657  1.00  0.00    -0.249 C  
HETATM   26  C   UNL     1      -6.420  12.863  69.034  1.00  0.00    -0.103 C  
HETATM   27  C   UNL     1      -8.232  11.491  65.926  1.00  0.00     0.169 A  
HETATM   28  C   UNL     1      -6.197  14.373  68.818  1.00  0.00    -0.085 C  
HETATM   29  N   UNL     1      -7.706  12.466  68.383  1.00  0.00    -0.140 NA 
HETATM   30  C   UNL     1      -7.932  10.524  64.882  1.00  0.00    -0.063 A  
HETATM   31  C   UNL     1      -6.632  14.784  67.558  1.00  0.00    -0.123 C  
HETATM   32  C   UNL     1      -9.538  11.894  65.674  1.00  0.00    -0.204 A  
HETATM   33  C   UNL     1      -7.312  11.761  67.110  1.00  0.00    -0.146 C  
HETATM   34  N   UNL     1     -10.011  11.329  64.529  1.00  0.00    -0.264 NA 
HETATM   35  C   UNL     1      -6.838   9.713  64.643  1.00  0.00    -0.109 A  
HETATM   36  C   UNL     1      -8.521  13.701  68.398  1.00  0.00    -0.147 C  
HETATM   37  C   UNL     1      -9.070  10.418  64.069  1.00  0.00    -0.242 A  
HETATM   38  C   UNL     1      -8.195  14.664  67.319  1.00  0.00    -0.235 C  
HETATM   39  H   UNL     1     -10.904  11.539  64.084  1.00  0.00     0.000 HD 
HETATM   40  C   UNL     1      -9.160   9.472  63.051  1.00  0.00    -0.170 A  
HETATM   41  C   UNL     1      -9.351  14.178  66.363  1.00  0.00    -0.254 C  
HETATM   42  C   UNL     1      -6.907   8.746  63.631  1.00  0.00    -0.088 A  
HETATM   43  C   UNL     1      -8.065   8.625  62.866  1.00  0.00    -0.177 A  
BRANCH  25  44
HETATM   44  C   UNL     1     -11.760  13.191  66.369  1.00  0.00    -0.379 C  
HETATM   45  O   UNL     1     -12.241  14.283  66.637  1.00  0.00    -0.449 OA 
BRANCH  44  46
HETATM   46  O   UNL     1     -12.370  12.217  65.611  1.00  0.00    -0.560 OA 
HETATM   47  C   UNL     1     -13.035  12.491  64.379  1.00  0.00    -0.153 C  
ENDBRANCH  44  46
ENDBRANCH  25  44
BRANCH  28  48
HETATM   48  C   UNL     1      -6.495  15.172  70.156  1.00  0.00    -0.115 C  
HETATM   49  C   UNL     1      -5.468  15.300  71.341  1.00  0.00     0.067 C  
ENDBRANCH  28  48
ENDBRANCH   7  25
BRANCH  18  50
HETATM   50  C   UNL     1      -9.937   4.523  69.920  1.00  0.00    -0.273 C  
HETATM   51  C   UNL     1      -9.784   3.212  70.745  1.00  0.00    -0.157 C  
ENDBRANCH  18  50
BRANCH  16  52
HETATM   52  O   UNL     1      -6.620   6.255  70.802  1.00  0.00    -0.049 OA 
BRANCH  52  53
HETATM   53  C   UNL     1      -5.815   6.004  71.883  1.00  0.00    -0.031 C  
HETATM   54  C   UNL     1      -5.307   4.581  71.914  1.00  0.00    -0.004 C  
HETATM   55  O   UNL     1      -5.638   6.786  72.798  1.00  0.00    -0.037 OA 
ENDBRANCH  52  53
ENDBRANCH  16  52
BRANCH  14  56
HETATM   56  C   UNL     1      -9.209   7.129  72.828  1.00  0.00    -0.139 C  
HETATM   57  O   UNL     1      -9.340   8.044  73.641  1.00  0.00    -0.270 OA 
BRANCH  56  58
HETATM   58  O   UNL     1      -9.481   5.812  73.090  1.00  0.00    -0.146 OA 
HETATM   59  C   UNL     1     -10.786   5.513  73.577  1.00  0.00    -0.276 C  
ENDBRANCH  56  58
ENDBRANCH  14  56
TORSDOF 10
ENDMDL
MODEL        3
REMARK 921   NORMALIZED FREE ENERGY PREDICTED BY IDOCK:   -4.24 KCAL/MOL
REMARK 922        TOTAL FREE ENERGY PREDICTED BY IDOCK:   -8.67 KCAL/MOL
REMARK 923 INTER-LIGAND FREE ENERGY PREDICTED BY IDOCK:  -11.17 KCAL/MOL
REMARK 924 INTRA-LIGAND FREE ENERGY PREDICTED BY IDOCK:    2.50 KCAL/MOL
REMARK 927      BINDING AFFINITY PREDICTED BY RF-SCORE:    0.00 PKD
ROOT
HETATM    1  C   UNL     1     -10.710   7.926  70.639  1.00  0.00    -0.228 C  
HETATM    2  N   UNL     1     -11.659   8.863  71.229  1.00  0.00    -0.285 NA 
HETATM    3  C   UNL     1     -11.482  10.085  70.633  1.00  0.00    -0.345 A  
HETATM    4  C   UNL     1     -12.869   8.443  71.908  1.00  0.00    -0.353 C  
HETATM    5  C   UNL     1     -12.252  11.197  70.949  1.00  0.00    -0.468 A  
HETATM    6  C   UNL     1     -12.030  12.455  70.387  1.00  0.00    -0.257 A  
HETATM    7  C   UNL     1     -10.983  12.613  69.442  1.00  0.00    -0.042 A  
HETATM    8  N   UNL     1      -8.038   8.133  68.034  1.00  0.00    -0.127 NA 
HETATM    9  H   UNL     1      -8.258   8.555  72.777  1.00  0.00     0.000 HD 
HETATM   10  C   UNL     1      -6.820   7.442  67.710  1.00  0.00    -0.074 C  
HETATM   11  C   UNL     1     -10.255  11.363  69.076  1.00  0.00    -0.137 A  
HETATM   12  C   UNL     1     -10.461  10.113  69.690  1.00  0.00    -0.282 A  
HETATM   13  O   UNL     1      -8.909   8.777  72.122  1.00  0.00    -0.345 OA 
HETATM   14  C   UNL     1      -9.596   7.546  71.760  1.00  0.00    -0.152 C  
HETATM   15  C   UNL     1      -8.639   7.902  69.314  1.00  0.00    -0.138 C  
HETATM   16  C   UNL     1      -8.544   6.448  71.263  1.00  0.00    -0.127 C  
HETATM   17  C   UNL     1     -10.021   8.640  69.368  1.00  0.00    -0.197 C  
HETATM   18  C   UNL     1      -8.720   6.283  69.736  1.00  0.00    -0.137 C  
HETATM   19  C   UNL     1      -7.593   5.489  69.061  1.00  0.00    -0.087 C  
HETATM   20  C   UNL     1     -10.375   8.431  67.857  1.00  0.00    -0.279 C  
HETATM   21  C   UNL     1      -6.819   5.992  68.121  1.00  0.00    -0.070 C  
HETATM   22  C   UNL     1      -9.024   8.550  67.083  1.00  0.00    -0.130 C  
ENDROOT
BRANCH   6  23
HETATM   23  O   UNL     1     -12.813  13.520  70.762  1.00  0.00    -0.261 OA 
HETATM   24  C   UNL     1     -13.526  13.427  71.997  1.00  0.00    -0.494 C  
ENDBRANCH   6  23
BRANCH   7  25
HETATM   25  C   UNL     1     -10.628  14.071  68.672  1.00  0.00    -0.263 C  
HETATM   26  C   UNL     1      -6.743  11.684  68.362  1.00  0.00    -0.064 C  
HETATM   27  C   UNL     1      -9.954  12.841  66.580  1.00  0.00    -0.256 A  
HETATM   28  C   UNL     1      -5.821  12.910  68.509  1.00  0.00    -0.063 C  
HETATM   29  N   UNL     1      -8.165  12.133  68.467  1.00  0.00    -0.138 NA 
HETATM   30  C   UNL     1     -10.619  12.541  65.321  1.00  0.00    -0.319 A  
HETATM   31  C   UNL     1      -6.364  14.040  67.900  1.00  0.00    -0.169 C  
HETATM   32  C   UNL     1     -10.814  13.713  67.237  1.00  0.00    -0.284 A  
HETATM   33  C   UNL     1      -8.695  12.128  67.056  1.00  0.00    -0.190 C  
HETATM   34  N   UNL     1     -11.881  14.030  66.454  1.00  0.00    -0.397 NA 
HETATM   35  C   UNL     1     -10.314  11.678  64.284  1.00  0.00    -0.371 A  
HETATM   36  C   UNL     1      -8.103  13.356  69.298  1.00  0.00     0.581 C  
HETATM   37  C   UNL     1     -11.824  13.256  65.303  1.00  0.00    -0.357 A  
HETATM   38  C   UNL     1      -7.702  14.577  68.560  1.00  0.00    -0.129 C  
HETATM   39  H   UNL     1     -12.600  14.719  66.675  1.00  0.00     0.000 HD 
HETATM   40  C   UNL     1     -12.766  13.083  64.291  1.00  0.00    -0.239 A  
HETATM   41  C   UNL     1      -9.180  15.077  68.331  1.00  0.00    -0.193 C  
HETATM   42  C   UNL     1     -11.248  11.479  63.259  1.00  0.00    -0.239 A  
HETATM   43  C   UNL     1     -12.461  12.164  63.284  1.00  0.00    -0.528 A  
BRANCH  25  44
HETATM   44  C   UNL     1     -11.551  15.078  69.404  1.00  0.00    -0.315 C  
HETATM   45  O   UNL     1     -12.692  15.399  69.104  1.00  0.00     0.122 OA 
BRANCH  44  46
HETATM   46  O   UNL     1     -10.899  15.446  70.559  1.00  0.00    -0.309 OA 
HETATM   47  C   UNL     1     -11.422  16.404  71.478  1.00  0.00    -0.178 C  
ENDBRANCH  44  46
ENDBRANCH  25  44
BRANCH  28  48
HETATM   48  C   UNL     1      -5.145  12.922  69.945  1.00  0.00    -0.085 C  
HETATM   49  C   UNL     1      -5.257  11.735  70.971  1.00  0.00    -0.124 C  
ENDBRANCH  28  48
ENDBRANCH   7  25
BRANCH  18  50
HETATM   50  C   UNL     1      -9.962   5.318  69.382  1.00  0.00    -0.288 C  
HETATM   51  C   UNL     1     -10.203   5.010  67.875  1.00  0.00    -0.147 C  
ENDBRANCH  18  50
BRANCH  16  52
HETATM   52  O   UNL     1      -7.140   6.848  71.498  1.00  0.00    -0.072 OA 
BRANCH  52  53
HETATM   53  C   UNL     1      -6.547   6.283  72.597  1.00  0.00    -0.064 C  
HETATM   54  C   UNL     1      -7.061   4.892  72.889  1.00  0.00    -0.079 C  
HETATM   55  O   UNL     1      -5.795   6.877  73.347  1.00  0.00    -0.053 OA 
ENDBRANCH  52  53
ENDBRANCH  16  52
BRANCH  14  56
HETATM   56  C   UNL     1     -10.184   6.913  73.013  1.00  0.00    -0.218 C  
HETATM   57  O   UNL     1     -10.138   7.383  74.149  1.00  0.00    -0.195 OA 
BRANCH  56  58
HETATM   58  O   UNL     1     -10.923   5.815  72.656  1.00  0.00    -0.235 OA 
HETATM   59  C   UNL     1     -11.150   4.839  73.669  1.00  0.00    -0.304 C  
ENDBRANCH  56  58
ENDBRANCH  14  56
TORSDOF 10
ENDMDL
MODEL        4
REMARK 921   NORMALIZED FREE ENERGY PREDICTED BY IDOCK:   -4.12 KCAL/MOL
REMARK 922        TOTAL FREE ENERGY PREDICTED BY IDOCK:   -8.48 KCAL/MOL
REMARK 923 INTER-LIGAND FREE ENERGY PREDICTED BY IDOCK:   -7.79 KCAL/MOL
REMARK 924 INTRA-LIGAND FREE ENERGY PREDICTED BY IDOCK:   -0.69 KCAL/MOL
REMARK 927      BINDING AFFINITY PREDICTED BY RF-SCORE:    0.00 PKD
ROOT
HETATM    1  C   UNL     1      -8.269   8.846  70.623  1.00  0.00    -0.162 C  
HETATM    2  N   UNL     1      -7.249   9.724  70.060  1.00  0.00    -0.111 NA 
HETATM    3  C   UNL     1      -7.879  10.704  69.337  1.00  0.00    -0.121 A  
HETATM    4  C   UNL     1      -5.908   9.828  70.600  1.00  0.00    -0.072 C  
HETATM    5  C   UNL     1      -7.192  11.724  68.690  1.00  0.00    -0.112 A  
HETATM    6  C   UNL     1      -7.829  12.684  67.904  1.00  0.00    -0.154 A  
HETATM    7  C   UNL     1      -9.240  12.634  67.762  1.00  0.00    -0.195 A  
HETATM    8  N   UNL     1     -12.000   8.683  70.500  1.00  0.00    -0.046 NA 
HETATM    9  H   UNL     1      -8.391   6.784  68.032  1.00  0.00     0.000 HD 
HETATM   10  C   UNL     1     -13.020   7.678  70.631  1.00  0.00     0.341 C  
HETATM   11  C   UNL     1      -9.928  11.573  68.556  1.00  0.00    -0.207 A  
HETATM   12  C   UNL     1      -9.263  10.583  69.304  1.00  0.00    -0.164 A  
HETATM   13  O   UNL     1      -8.446   7.627  68.467  1.00  0.00    -0.128 OA 
HETATM   14  C   UNL     1      -8.175   7.404  69.879  1.00  0.00    -0.132 C  
HETATM   15  C   UNL     1     -10.640   8.262  70.339  1.00  0.00    -0.224 C  
HETATM   16  C   UNL     1      -9.187   6.317  70.474  1.00  0.00    -0.158 C  
HETATM   17  C   UNL     1      -9.710   9.524  70.375  1.00  0.00    -0.328 C  
HETATM   18  C   UNL     1     -10.180   7.053  71.402  1.00  0.00    -0.208 C  
HETATM   19  C   UNL     1     -11.390   6.205  71.817  1.00  0.00    -0.346 C  
HETATM   20  C   UNL     1     -10.569  10.329  71.408  1.00  0.00     1.146 C  
HETATM   21  C   UNL     1     -12.634   6.536  71.534  1.00  0.00    -0.175 C  
HETATM   22  C   UNL     1     -12.058   9.991  71.078  1.00  0.00    -0.373 C  
ENDROOT
BRANCH   6  23
HETATM   23  O   UNL     1      -7.088  13.653  67.272  1.00  0.00    -0.132 OA 
HETATM   24  C   UNL     1      -5.716  13.798  67.644  1.00  0.00    -0.013 C  
ENDBRANCH   6  23
BRANCH   7  25
HETATM   25  C   UNL     1     -10.133  13.748  66.863  1.00  0.00    -0.260 C  
HETATM   26  C   UNL     1     -11.415  14.533  71.178  1.00  0.00    -0.043 C  
HETATM   27  C   UNL     1      -9.203  15.647  68.231  1.00  0.00    -0.188 A  
HETATM   28  C   UNL     1     -12.875  14.874  70.824  1.00  0.00    -0.428 C  
HETATM   29  N   UNL     1     -10.686  14.167  69.926  1.00  0.00     0.116 NA 
HETATM   30  C   UNL     1      -8.131  16.610  68.032  1.00  0.00    -0.181 A  
HETATM   31  C   UNL     1     -12.968  15.544  69.604  1.00  0.00     0.413 C  
HETATM   32  C   UNL     1      -9.317  14.986  67.014  1.00  0.00    -0.224 A  
HETATM   33  C   UNL     1      -9.842  15.369  69.586  1.00  0.00    -0.258 C  
HETATM   34  N   UNL     1      -8.479  15.524  66.085  1.00  0.00    -0.365 NA 
HETATM   35  C   UNL     1      -7.496  17.493  68.886  1.00  0.00    -0.234 A  
HETATM   36  C   UNL     1     -11.740  13.645  69.027  1.00  0.00    -0.333 C  
HETATM   37  C   UNL     1      -7.681  16.470  66.712  1.00  0.00    -0.259 A  
HETATM   38  C   UNL     1     -12.532  14.692  68.340  1.00  0.00     0.196 C  
HETATM   39  H   UNL     1      -8.444  15.274  65.097  1.00  0.00     0.000 HD 
HETATM   40  C   UNL     1      -6.564  17.156  66.240  1.00  0.00    -0.190 A  
HETATM   41  C   UNL     1     -11.685  14.639  67.011  1.00  0.00    -0.379 C  
HETATM   42  C   UNL     1      -6.365  18.189  68.439  1.00  0.00    -0.197 A  
HETATM   43  C   UNL     1      -5.904  17.999  67.138  1.00  0.00    -0.153 A  
BRANCH  25  44
HETATM   44  C   UNL     1     -10.306  13.027  65.501  1.00  0.00    -0.294 C  
HETATM   45  O   UNL     1     -10.192  13.507  64.383  1.00  0.00    -0.399 OA 
BRANCH  44  46
HETATM   46  O   UNL     1     -10.473  11.689  65.780  1.00  0.00    -0.246 OA 
HETATM   47  C   UNL     1     -10.324  10.665  64.799  1.00  0.00    -0.283 C  
ENDBRANCH  44  46
ENDBRANCH  25  44
BRANCH  28  48
HETATM   48  C   UNL     1     -13.839  13.688  71.252  1.00  0.00     0.067 C  
HETATM   49  C   UNL     1     -13.556  12.732  72.469  1.00  0.00    -0.378 C  
ENDBRANCH  28  48
ENDBRANCH   7  25
BRANCH  18  50
HETATM   50  C   UNL     1      -9.544   7.323  72.858  1.00  0.00    -0.206 C  
HETATM   51  C   UNL     1      -8.841   6.120  73.551  1.00  0.00    -0.124 C  
ENDBRANCH  18  50
BRANCH  16  52
HETATM   52  O   UNL     1      -9.986   5.641  69.429  1.00  0.00    -0.166 OA 
BRANCH  52  53
HETATM   53  C   UNL     1      -9.602   4.359  69.135  1.00  0.00    -0.181 C  
HETATM   54  C   UNL     1      -9.377   3.518  70.372  1.00  0.00    -0.239 C  
HETATM   55  O   UNL     1      -9.328   3.968  68.017  1.00  0.00    -0.145 OA 
ENDBRANCH  52  53
ENDBRANCH  16  52
BRANCH  14  56
HETATM   56  C   UNL     1      -6.819   6.728  70.030  1.00  0.00    -0.057 C  
HETATM   57  O   UNL     1      -6.330   6.320  71.082  1.00  0.00    -0.045 OA 
BRANCH  56  58
HETATM   58  O   UNL     1      -6.296   6.490  68.786  1.00  0.00    -0.034 OA 
HETATM   59  C   UNL     1      -5.980   5.136  68.473  1.00  0.00    -0.021 C  
ENDBRANCH  56  58
ENDBRANCH  14  56
TORSDOF 10
ENDMDL
MODEL        5
REMARK 921   NORMALIZED FREE ENERGY PREDICTED BY IDOCK:   -4.04 KCAL/MOL
REMARK 922        TOTAL FREE ENERGY PREDICTED BY IDOCK:   -8.37 KCAL/MOL
REMARK 923 INTER-LIGAND FREE ENERGY PREDICTED BY IDOCK:   -7.20 KCAL/MOL
REMARK 924 INTRA-LIGAND FREE ENERGY PREDICTED BY IDOCK:   -1.17 KCAL/MOL
REMARK 927      BINDING AFFINITY PREDICTED BY RF-SCORE:    0.00 PKD
ROOT
HETATM    1  C   UNL     1     -10.024  12.203  67.133  1.00  0.00    -0.200 C  
HETATM    2  N   UNL     1      -9.018  11.370  66.483  1.00  0.00    -0.183 NA 
HETATM    3  C   UNL     1      -8.701  10.340  67.331  1.00  0.00    -0.128 A  
HETATM    4  C   UNL     1      -8.810  11.351  65.049  1.00  0.00     0.155 C  
HETATM    5  C   UNL     1      -7.789   9.346  67.004  1.00  0.00    -0.098 A  
HETATM    6  C   UNL     1      -7.421   8.334  67.891  1.00  0.00    -0.098 A  
HETATM    7  C   UNL     1      -8.008   8.303  69.183  1.00  0.00    -0.112 A  
HETATM    8  N   UNL     1     -11.793  12.158  70.424  1.00  0.00    -0.269 NA 
HETATM    9  H   UNL     1      -7.861  14.196  68.659  1.00  0.00     0.000 HD 
HETATM   10  C   UNL     1     -12.425  13.108  71.298  1.00  0.00    -0.232 C  
HETATM   11  C   UNL     1      -9.047   9.342  69.441  1.00  0.00    -0.162 A  
HETATM   12  C   UNL     1      -9.368  10.385  68.550  1.00  0.00    -0.160 A  
HETATM   13  O   UNL     1      -8.258  13.361  68.439  1.00  0.00    -0.153 OA 
HETATM   14  C   UNL     1      -9.345  13.631  67.510  1.00  0.00    -0.223 C  
HETATM   15  C   UNL     1     -10.973  12.649  69.356  1.00  0.00     0.019 C  
HETATM   16  C   UNL     1     -10.376  14.674  68.148  1.00  0.00    -0.230 C  
HETATM   17  C   UNL     1     -10.527  11.441  68.461  1.00  0.00    -0.223 C  
HETATM   18  C   UNL     1     -11.671  13.906  68.497  1.00  0.00    -0.390 C  
HETATM   19  C   UNL     1     -12.644  14.695  69.383  1.00  0.00     0.022 C  
HETATM   20  C   UNL     1     -11.845  10.614  68.637  1.00  0.00    -0.135 C  
HETATM   21  C   UNL     1     -13.021  14.290  70.579  1.00  0.00    -0.259 C  
HETATM   22  C   UNL     1     -12.310  10.862  70.107  1.00  0.00    -0.322 C  
ENDROOT
BRANCH   6  23
HETATM   23  O   UNL     1      -6.494   7.393  67.511  1.00  0.00    -0.055 OA 
HETATM   24  C   UNL     1      -5.137   7.813  67.357  1.00  0.00    -0.027 C  
ENDBRANCH   6  23
BRANCH   7  25
HETATM   25  C   UNL     1      -7.669   7.122  70.339  1.00  0.00    -0.095 C  
HETATM   26  C   UNL     1     -12.234   7.196  70.141  1.00  0.00     0.162 C  
HETATM   27  C   UNL     1      -8.999   5.422  69.040  1.00  0.00    -0.121 A  
HETATM   28  C   UNL     1     -12.437   6.911  71.641  1.00  0.00    -0.418 C  
HETATM   29  N   UNL     1     -10.769   7.283  69.859  1.00  0.00    -0.239 NA 
HETATM   30  C   UNL     1      -8.653   4.361  68.108  1.00  0.00    -0.105 A  
HETATM   31  C   UNL     1     -11.461   6.049  72.140  1.00  0.00    -0.356 C  
HETATM   32  C   UNL     1      -7.781   5.870  69.538  1.00  0.00    -0.097 A  
HETATM   33  C   UNL     1     -10.409   5.979  69.193  1.00  0.00    -0.229 C  
HETATM   34  N   UNL     1      -6.752   5.117  69.061  1.00  0.00    -0.051 NA 
HETATM   35  C   UNL     1      -9.408   3.593  67.241  1.00  0.00    -0.235 A  
HETATM   36  C   UNL     1     -10.174   7.720  71.142  1.00  0.00    -0.195 C  
HETATM   37  C   UNL     1      -7.256   4.236  68.115  1.00  0.00    -0.060 A  
HETATM   38  C   UNL     1      -9.987   6.634  72.132  1.00  0.00    -0.173 C  
HETATM   39  H   UNL     1      -5.777   5.189  69.350  1.00  0.00     0.000 HD 
HETATM   40  C   UNL     1      -6.589   3.395  67.227  1.00  0.00    -0.038 A  
HETATM   41  C   UNL     1      -8.472   6.391  71.770  1.00  0.00    -0.124 C  
HETATM   42  C   UNL     1      -8.761   2.746  66.331  1.00  0.00    -0.129 A  
HETATM   43  C   UNL     1      -7.370   2.672  66.321  1.00  0.00    -0.067 A  
BRANCH  25  44
HETATM   44  C   UNL     1      -6.325   7.607  70.940  1.00  0.00    -0.038 C  
HETATM   45  O   UNL     1      -5.235   7.058  70.871  1.00  0.00    -0.023 OA 
BRANCH  44  46
HETATM   46  O   UNL     1      -6.551   8.865  71.451  1.00  0.00    -0.071 OA 
HETATM   47  C   UNL     1      -5.631   9.944  71.300  1.00  0.00    -0.069 C  
ENDBRANCH  44  46
ENDBRANCH  25  44
BRANCH  28  48
HETATM   48  C   UNL     1     -12.920   8.223  72.392  1.00  0.00    -0.231 C  
HETATM   49  C   UNL     1     -14.353   8.850  72.216  1.00  0.00    -0.418 C  
ENDBRANCH  28  48
ENDBRANCH   7  25
BRANCH  18  50
HETATM   50  C   UNL     1     -12.609  13.704  67.202  1.00  0.00     0.157 C  
HETATM   51  C   UNL     1     -12.406  14.704  66.025  1.00  0.00    -0.119 C  
ENDBRANCH  18  50
BRANCH  16  52
HETATM   52  O   UNL     1      -9.879  15.281  69.402  1.00  0.00    -0.236 OA 
BRANCH  52  53
HETATM   53  C   UNL     1      -9.274  16.503  69.262  1.00  0.00    -0.122 C  
HETATM   54  C   UNL     1     -10.210  17.559  68.719  1.00  0.00    -0.373 C  
HETATM   55  O   UNL     1      -8.083  16.696  69.416  1.00  0.00    -0.127 OA 
ENDBRANCH  52  53
ENDBRANCH  16  52
BRANCH  14  56
HETATM   56  C   UNL     1      -8.800  14.383  66.304  1.00  0.00     0.122 C  
HETATM   57  O   UNL     1      -9.392  14.568  65.241  1.00  0.00     0.142 OA 
BRANCH  56  58
HETATM   58  O   UNL     1      -7.609  14.971  66.643  1.00  0.00     0.088 OA 
HETATM   59  C   UNL     1      -7.444  16.339  66.277  1.00  0.00     0.153 C  
ENDBRANCH  56  58
ENDBRANCH  14  56
TORSDOF 10
ENDMDL
MODEL        6
REMARK 921   NORMALIZED FREE ENERGY PREDICTED BY IDOCK:   -3.14 KCAL/MOL
REMARK 922        TOTAL FREE ENERGY PREDICTED BY IDOCK:   -6.93 KCAL/MOL
REMARK 923 INTER-LIGAND FREE ENERGY PREDICTED BY IDOCK:   -9.20 KCAL/MOL
REMARK 924 INTRA-LIGAND FREE ENERGY PREDICTED BY IDOCK:    2.27 KCAL/MOL
REMARK 927      BINDING AFFINITY PREDICTED BY RF-SCORE:    0.00 PKD
ROOT
HETATM    1  C   UNL     1      -9.682   7.275  68.036  1.00  0.00    -0.141 C  
HETATM    2  N   UNL     1     -10.484   7.965  69.041  1.00  0.00    -0.214 NA 
HETATM    3  C   UNL     1     -10.287   9.314  68.893  1.00  0.00    -0.214 A  
HETATM    4  C   UNL     1     -11.634   7.365  69.685  1.00  0.00     0.234 C  
HETATM    5  C   UNL     1     -10.928  10.261  69.681  1.00  0.00    -0.314 A  
HETATM    6  C   UNL     1     -10.680  11.630  69.572  1.00  0.00     0.052 A  
HETATM    7  C   UNL     1      -9.741  12.086  68.610  1.00  0.00    -0.104 A  
HETATM    8  N   UNL     1      -7.323   8.324  65.334  1.00  0.00    -0.081 NA 
HETATM    9  H   UNL     1      -6.958   7.027  69.907  1.00  0.00     0.000 HD 
HETATM   10  C   UNL     1      -6.207   7.760  64.627  1.00  0.00    -0.045 C  
HETATM   11  C   UNL     1      -9.156  11.030  67.733  1.00  0.00    -0.147 A  
HETATM   12  C   UNL     1      -9.382   9.649  67.891  1.00  0.00    -0.141 A  
HETATM   13  O   UNL     1      -7.663   7.488  69.465  1.00  0.00    -0.099 OA 
HETATM   14  C   UNL     1      -8.477   6.488  68.791  1.00  0.00    -0.122 C  
HETATM   15  C   UNL     1      -7.787   7.667  66.520  1.00  0.00    -0.105 C  
HETATM   16  C   UNL     1      -7.575   5.611  67.802  1.00  0.00    -0.089 C  
HETATM   17  C   UNL     1      -9.095   8.376  67.016  1.00  0.00    -0.171 C  
HETATM   18  C   UNL     1      -7.939   6.008  66.354  1.00  0.00    -0.105 C  
HETATM   19  C   UNL     1      -6.961   5.476  65.297  1.00  0.00    -0.060 C  
HETATM   20  C   UNL     1      -9.636   8.733  65.591  1.00  0.00    -0.105 C  
HETATM   21  C   UNL     1      -6.266   6.260  64.498  1.00  0.00    -0.030 C  
HETATM   22  C   UNL     1      -8.379   9.081  64.733  1.00  0.00    -0.173 C  
ENDROOT
BRANCH   6  23
HETATM   23  O   UNL     1     -11.332  12.512  70.399  1.00  0.00     0.174 OA 
HETATM   24  C   UNL     1     -12.425  12.020  71.177  1.00  0.00    -0.249 C  
ENDBRANCH   6  23
BRANCH   7  25
HETATM   25  C   UNL     1      -9.370  13.713  68.360  1.00  0.00    -0.181 C  
HETATM   26  C   UNL     1     -12.722  12.874  65.369  1.00  0.00    -0.246 C  
HETATM   27  C   UNL     1     -11.765  14.360  68.790  1.00  0.00    -0.372 A  
HETATM   28  C   UNL     1     -12.165  13.810  64.279  1.00  0.00    -0.444 C  
HETATM   29  N   UNL     1     -11.788  12.882  66.536  1.00  0.00    -0.398 NA 
HETATM   30  C   UNL     1     -12.484  14.883  69.942  1.00  0.00    -0.273 A  
HETATM   31  C   UNL     1     -11.560  14.940  64.828  1.00  0.00    -0.410 C  
HETATM   32  C   UNL     1     -10.426  14.394  69.160  1.00  0.00    -0.189 A  
HETATM   33  C   UNL     1     -12.454  13.742  67.580  1.00  0.00     0.139 C  
HETATM   34  N   UNL     1     -10.272  14.969  70.384  1.00  0.00    -0.490 NA 
HETATM   35  C   UNL     1     -13.831  15.018  70.223  1.00  0.00     0.726 A  
HETATM   36  C   UNL     1     -10.469  13.208  65.949  1.00  0.00    -0.280 C  
HETATM   37  C   UNL     1     -11.532  15.202  70.920  1.00  0.00    -0.323 A  
HETATM   38  C   UNL     1     -10.257  14.650  65.683  1.00  0.00    -0.382 C  
HETATM   39  H   UNL     1      -9.383  15.190  70.832  1.00  0.00     0.000 HD 
HETATM   40  C   UNL     1     -11.901  15.602  72.202  1.00  0.00    -0.567 A  
HETATM   41  C   UNL     1      -9.473  14.911  67.027  1.00  0.00    -0.239 C  
HETATM   42  C   UNL     1     -14.229  15.409  71.508  1.00  0.00    -0.584 A  
HETATM   43  C   UNL     1     -13.268  15.675  72.480  1.00  0.00    -0.583 A  
BRANCH  25  44
HETATM   44  C   UNL     1      -7.867  13.781  68.736  1.00  0.00    -0.059 C  
HETATM   45  O   UNL     1      -6.952  13.113  68.277  1.00  0.00    -0.084 OA 
BRANCH  44  46
HETATM   46  O   UNL     1      -7.721  14.851  69.590  1.00  0.00    -0.167 OA 
HETATM   47  C   UNL     1      -6.651  15.788  69.489  1.00  0.00    -0.183 C  
ENDBRANCH  44  46
ENDBRANCH  25  44
BRANCH  28  48
HETATM   48  C   UNL     1     -11.538  12.964  63.093  1.00  0.00    -0.116 C  
HETATM   49  C   UNL     1     -10.901  11.538  63.282  1.00  0.00    -0.342 C  
ENDBRANCH  28  48
ENDBRANCH   7  25
BRANCH  18  50
HETATM   50  C   UNL     1      -9.283   5.270  65.855  1.00  0.00    -0.166 C  
HETATM   51  C   UNL     1      -9.156   3.765  65.475  1.00  0.00    -0.146 C  
ENDBRANCH  18  50
BRANCH  16  52
HETATM   52  O   UNL     1      -6.127   5.859  67.971  1.00  0.00    -0.019 OA 
BRANCH  52  53
HETATM   53  C   UNL     1      -5.458   4.934  68.729  1.00  0.00    -0.011 C  
HETATM   54  C   UNL     1      -5.220   3.637  67.989  1.00  0.00    -0.012 C  
HETATM   55  O   UNL     1      -5.206   5.073  69.910  1.00  0.00     0.000 OA 
ENDBRANCH  52  53
ENDBRANCH  16  52
BRANCH  14  56
HETATM   56  C   UNL     1      -8.962   5.465  69.809  1.00  0.00    -0.124 C  
HETATM   57  O   UNL     1      -9.604   4.446  69.558  1.00  0.00    -0.169 OA 
BRANCH  56  58
HETATM   58  O   UNL     1      -8.429   5.765  71.035  1.00  0.00    -0.120 OA 
HETATM   59  C   UNL     1      -9.132   5.278  72.175  1.00  0.00    -0.136 C  
ENDBRANCH  56  58
ENDBRANCH  14  56
TORSDOF 10
ENDMDL
MODEL        7
REMARK 921   NORMALIZED FREE ENERGY PREDICTED BY IDOCK:   -2.79 KCAL/MOL
REMARK 922        TOTAL FREE ENERGY PREDICTED BY IDOCK:   -6.37 KCAL/MOL
REMARK 923 INTER-LIGAND FREE ENERGY PREDICTED BY IDOCK:   -6.30 KCAL/MOL
REMARK 924 INTRA-LIGAND FREE ENERGY PREDICTED BY IDOCK:   -0.07 KCAL/MOL
REMARK 927      BINDING AFFINITY PREDICTED BY RF-SCORE:    0.00 PKD
ROOT
HETATM    1  C   UNL     1      -9.988  10.331  65.836  1.00  0.00    -0.256 C  
HETATM    2  N   UNL     1      -9.157   9.145  65.662  1.00  0.00    -0.205 NA 
HETATM    3  C   UNL     1      -8.806   8.681  66.904  1.00  0.00    -0.132 A  
HETATM    4  C   UNL     1      -9.161   8.346  64.453  1.00  0.00     0.684 C  
HETATM    5  C   UNL     1      -8.034   7.542  67.094  1.00  0.00    -0.117 A  
HETATM    6  C   UNL     1      -7.626   7.107  68.355  1.00  0.00    -0.118 A  
HETATM    7  C   UNL     1      -8.020   7.846  69.500  1.00  0.00    -0.116 A  
HETATM    8  N   UNL     1     -11.261  12.281  68.759  1.00  0.00    -0.246 NA 
HETATM    9  H   UNL     1      -7.473  12.489  65.873  1.00  0.00     0.000 HD 
HETATM   10  C   UNL     1     -11.682  13.628  69.030  1.00  0.00    -0.333 C  
HETATM   11  C   UNL     1      -8.924   9.003  69.238  1.00  0.00    -0.144 A  
HETATM   12  C   UNL     1      -9.285   9.456  67.954  1.00  0.00    -0.139 A  
HETATM   13  O   UNL     1      -7.964  11.731  66.169  1.00  0.00     0.061 OA 
HETATM   14  C   UNL     1      -9.149  11.628  65.330  1.00  0.00     0.051 C  
HETATM   15  C   UNL     1     -10.567  12.011  67.535  1.00  0.00    -0.221 C  
HETATM   16  C   UNL     1      -9.988  12.988  65.383  1.00  0.00    -0.188 C  
HETATM   17  C   UNL     1     -10.355  10.464  67.400  1.00  0.00    -0.275 C  
HETATM   18  C   UNL     1     -11.277  12.715  66.191  1.00  0.00    -0.350 C  
HETATM   19  C   UNL     1     -12.046  13.985  66.585  1.00  0.00    -0.487 C  
HETATM   20  C   UNL     1     -11.696  10.055  68.097  1.00  0.00     0.565 C  
HETATM   21  C   UNL     1     -12.278  14.328  67.836  1.00  0.00    -0.185 C  
HETATM   22  C   UNL     1     -11.923  11.103  69.233  1.00  0.00    -0.351 C  
ENDROOT
BRANCH   6  23
HETATM   23  O   UNL     1      -6.842   5.984  68.471  1.00  0.00    -0.065 OA 
HETATM   24  C   UNL     1      -5.689   5.880  67.633  1.00  0.00    -0.012 C  
ENDBRANCH   6  23
BRANCH   7  25
HETATM   25  C   UNL     1      -7.615   7.413  71.080  1.00  0.00    -0.082 C  
HETATM   26  C   UNL     1     -12.178   7.180  71.007  1.00  0.00    -0.343 C  
HETATM   27  C   UNL     1      -8.859   5.237  70.839  1.00  0.00    -0.151 A  
HETATM   28  C   UNL     1     -12.360   7.672  72.456  1.00  0.00    -0.080 C  
HETATM   29  N   UNL     1     -10.721   7.179  70.676  1.00  0.00    -0.230 NA 
HETATM   30  C   UNL     1      -8.461   3.868  70.548  1.00  0.00    -0.099 A  
HETATM   31  C   UNL     1     -11.338   7.217  73.288  1.00  0.00    -0.024 C  
HETATM   32  C   UNL     1      -7.664   5.926  71.012  1.00  0.00    -0.101 A  
HETATM   33  C   UNL     1     -10.295   5.734  70.736  1.00  0.00    -0.237 C  
HETATM   34  N   UNL     1      -6.599   5.081  70.942  1.00  0.00    -0.033 NA 
HETATM   35  C   UNL     1      -9.178   2.738  70.201  1.00  0.00    -0.205 A  
HETATM   36  C   UNL     1     -10.145   8.222  71.553  1.00  0.00    -0.208 C  
HETATM   37  C   UNL     1      -7.060   3.824  70.575  1.00  0.00    -0.037 A  
HETATM   38  C   UNL     1      -9.897   7.783  72.947  1.00  0.00    -0.326 C  
HETATM   39  H   UNL     1      -5.627   5.329  71.128  1.00  0.00     0.000 HD 
HETATM   40  C   UNL     1      -6.353   2.683  70.204  1.00  0.00    -0.028 A  
HETATM   41  C   UNL     1      -8.373   7.458  72.708  1.00  0.00    -0.137 C  
HETATM   42  C   UNL     1      -8.492   1.580  69.814  1.00  0.00    -0.077 A  
HETATM   43  C   UNL     1      -7.099   1.572  69.801  1.00  0.00    -0.033 A  
BRANCH  25  44
HETATM   44  C   UNL     1      -6.296   8.192  71.320  1.00  0.00    -0.036 C  
HETATM   45  O   UNL     1      -5.156   7.749  71.313  1.00  0.00    -0.026 OA 
BRANCH  44  46
HETATM   46  O   UNL     1      -6.632   9.524  71.400  1.00  0.00    -0.266 OA 
HETATM   47  C   UNL     1      -5.858  10.559  70.796  1.00  0.00    -0.093 C  
ENDBRANCH  44  46
ENDBRANCH  25  44
BRANCH  28  48
HETATM   48  C   UNL     1     -12.908   9.161  72.468  1.00  0.00    -0.387 C  
HETATM   49  C   UNL     1     -14.235   9.607  71.749  1.00  0.00     0.075 C  
ENDBRANCH  28  48
ENDBRANCH   7  25
BRANCH  18  50
HETATM   50  C   UNL     1     -12.406  12.002  65.288  1.00  0.00     0.118 C  
HETATM   51  C   UNL     1     -12.732  12.667  63.918  1.00  0.00    -0.350 C  
ENDBRANCH  18  50
BRANCH  16  52
HETATM   52  O   UNL     1      -9.269  14.083  66.068  1.00  0.00    -0.116 OA 
BRANCH  52  53
HETATM   53  C   UNL     1      -9.434  15.327  65.519  1.00  0.00    -0.106 C  
HETATM   54  C   UNL     1      -8.538  16.368  66.150  1.00  0.00    -0.343 C  
HETATM   55  O   UNL     1     -10.301  15.607  64.713  1.00  0.00    -0.422 OA 
ENDBRANCH  52  53
ENDBRANCH  16  52
BRANCH  14  56
HETATM   56  C   UNL     1      -8.724  11.545  63.870  1.00  0.00     0.526 C  
HETATM   57  O   UNL     1      -9.312  12.057  62.918  1.00  0.00    -0.257 OA 
BRANCH  56  58
HETATM   58  O   UNL     1      -7.490  10.954  63.794  1.00  0.00     0.245 OA 
HETATM   59  C   UNL     1      -6.791  11.087  62.560  1.00  0.00     0.151 C  
ENDBRANCH  56  58
ENDBRANCH  14  56
TORSDOF 10
ENDMDL
MODEL        8
REMARK 921   NORMALIZED FREE ENERGY PREDICTED BY IDOCK:   -2.12 KCAL/MOL
REMARK 922        TOTAL FREE ENERGY PREDICTED BY IDOCK:   -5.32 KCAL/MOL
REMARK 923 INTER-LIGAND FREE ENERGY PREDICTED BY IDOCK:   -6.56 KCAL/MOL
REMARK 924 INTRA-LIGAND FREE ENERGY PREDICTED BY IDOCK:    1.24 KCAL/MOL
REMARK 927      BINDING AFFINITY PREDICTED BY RF-SCORE:    0.00 PKD
ROOT
HETATM    1  C   UNL     1      -7.986  10.951  67.632  1.00  0.00    -0.114 C  
HETATM    2  N   UNL     1      -6.906   9.994  67.840  1.00  0.00    -0.074 NA 
HETATM    3  C   UNL     1      -7.223   9.219  68.926  1.00  0.00    -0.073 A  
HETATM    4  C   UNL     1      -5.973   9.612  66.798  1.00  0.00    -0.059 C  
HETATM    5  C   UNL     1      -6.413   8.186  69.379  1.00  0.00    -0.035 A  
HETATM    6  C   UNL     1      -6.705   7.439  70.520  1.00  0.00    -0.047 A  
HETATM    7  C   UNL     1      -7.887   7.731  71.251  1.00  0.00    -0.086 A  
HETATM    8  N   UNL     1     -11.221  11.723  69.336  1.00  0.00    -0.251 NA 
HETATM    9  H   UNL     1      -6.730  13.296  69.606  1.00  0.00     0.000 HD 
HETATM   10  C   UNL     1     -12.093  12.856  69.487  1.00  0.00    -0.214 C  
HETATM   11  C   UNL     1      -8.761   8.787  70.662  1.00  0.00    -0.208 A  
HETATM   12  C   UNL     1      -8.423   9.564  69.537  1.00  0.00    -0.156 A  
HETATM   13  O   UNL     1      -7.052  12.428  69.396  1.00  0.00     0.003 OA 
HETATM   14  C   UNL     1      -7.435  12.437  67.992  1.00  0.00    -0.114 C  
HETATM   15  C   UNL     1      -9.905  11.936  68.812  1.00  0.00    -0.065 C  
HETATM   16  C   UNL     1      -8.504  13.594  67.714  1.00  0.00    -0.183 C  
HETATM   17  C   UNL     1      -9.211  10.546  68.598  1.00  0.00    -0.172 C  
HETATM   18  C   UNL     1      -9.872  12.923  67.459  1.00  0.00    -0.208 C  
HETATM   19  C   UNL     1     -11.057  13.899  67.469  1.00  0.00    -0.302 C  
HETATM   20  C   UNL     1     -10.515   9.774  68.204  1.00  0.00    -0.258 C  
HETATM   21  C   UNL     1     -12.059  13.807  68.319  1.00  0.00    -0.314 C  
HETATM   22  C   UNL     1     -11.653  10.382  69.083  1.00  0.00    -0.164 C  
ENDROOT
BRANCH   6  23
HETATM   23  O   UNL     1      -5.848   6.446  70.927  1.00  0.00    -0.025 OA 
HETATM   24  C   UNL     1      -5.227   5.642  69.923  1.00  0.00    -0.004 C  
ENDBRANCH   6  23
BRANCH   7  25
HETATM   25  C   UNL     1      -8.368   6.888  72.631  1.00  0.00    -0.117 C  
HETATM   26  C   UNL     1     -12.185   7.195  70.137  1.00  0.00     0.162 C  
HETATM   27  C   UNL     1      -9.219   4.988  71.214  1.00  0.00    -0.186 A  
HETATM   28  C   UNL     1     -13.125   7.341  71.349  1.00  0.00    -0.412 C  
HETATM   29  N   UNL     1     -10.775   7.109  70.626  1.00  0.00    -0.230 NA 
HETATM   30  C   UNL     1      -8.682   3.694  70.825  1.00  0.00    -0.123 A  
HETATM   31  C   UNL     1     -12.686   6.587  72.437  1.00  0.00     0.122 C  
HETATM   32  C   UNL     1      -8.323   5.476  72.158  1.00  0.00    -0.122 A  
HETATM   33  C   UNL     1     -10.398   5.654  70.515  1.00  0.00    -0.258 C  
HETATM   34  N   UNL     1      -7.356   4.559  72.433  1.00  0.00    -0.078 NA 
HETATM   35  C   UNL     1      -9.067   2.769  69.872  1.00  0.00    -0.190 A  
HETATM   36  C   UNL     1     -10.788   7.839  71.913  1.00  0.00    -0.235 C  
HETATM   37  C   UNL     1      -7.509   3.487  71.564  1.00  0.00    -0.047 A  
HETATM   38  C   UNL     1     -11.304   7.053  73.058  1.00  0.00    -0.173 C  
HETATM   39  H   UNL     1      -6.640   4.644  73.154  1.00  0.00     0.000 HD 
HETATM   40  C   UNL     1      -6.674   2.397  71.329  1.00  0.00    -0.031 A  
HETATM   41  C   UNL     1      -9.875   6.626  73.571  1.00  0.00    -0.229 C  
HETATM   42  C   UNL     1      -8.241   1.668  69.609  1.00  0.00    -0.064 A  
HETATM   43  C   UNL     1      -7.054   1.507  70.321  1.00  0.00    -0.033 A  
BRANCH  25  44
HETATM   44  C   UNL     1      -7.405   7.433  73.717  1.00  0.00    -0.099 C  
HETATM   45  O   UNL     1      -6.389   6.905  74.147  1.00  0.00    -0.073 OA 
BRANCH  44  46
HETATM   46  O   UNL     1      -7.824   8.710  74.014  1.00  0.00    -0.404 OA 
HETATM   47  C   UNL     1      -6.923   9.794  74.234  1.00  0.00     1.433 C  
ENDBRANCH  44  46
ENDBRANCH  25  44
BRANCH  28  48
HETATM   48  C   UNL     1     -13.646   8.835  71.466  1.00  0.00    -0.374 C  
HETATM   49  C   UNL     1     -13.352   9.766  72.701  1.00  0.00    -0.064 C  
ENDBRANCH  28  48
ENDBRANCH   7  25
BRANCH  18  50
HETATM   50  C   UNL     1      -9.996  12.384  65.944  1.00  0.00    -0.271 C  
HETATM   51  C   UNL     1     -11.426  12.346  65.329  1.00  0.00    -0.389 C  
ENDBRANCH  18  50
BRANCH  16  52
HETATM   52  O   UNL     1      -8.675  14.508  68.864  1.00  0.00    -0.169 OA 
BRANCH  52  53
HETATM   53  C   UNL     1      -8.754  15.839  68.549  1.00  0.00    -0.184 C  
HETATM   54  C   UNL     1      -9.835  16.559  69.322  1.00  0.00    -0.218 C  
HETATM   55  O   UNL     1      -8.130  16.365  67.647  1.00  0.00    -0.152 OA 
ENDBRANCH  52  53
ENDBRANCH  16  52
BRANCH  14  56
HETATM   56  C   UNL     1      -6.242  12.864  67.148  1.00  0.00     0.179 C  
HETATM   57  O   UNL     1      -5.496  12.113  66.521  1.00  0.00    -0.305 OA 
BRANCH  56  58
HETATM   58  O   UNL     1      -6.223  14.231  67.057  1.00  0.00    -0.023 OA 
HETATM   59  C   UNL     1      -5.261  14.913  67.857  1.00  0.00    -0.081 C  
ENDBRANCH  56  58
ENDBRANCH  14  56
TORSDOF 10
ENDMDL
MODEL        9
REMARK 921   NORMALIZED FREE ENERGY PREDICTED BY IDOCK:   -1.04 KCAL/MOL
REMARK 922        TOTAL FREE ENERGY PREDICTED BY IDOCK:   -3.61 KCAL/MOL
REMARK 923 INTER-LIGAND FREE ENERGY PREDICTED BY IDOCK:   -5.94 KCAL/MOL
REMARK 924 INTRA-LIGAND FREE ENERGY PREDICTED BY IDOCK:    2.33 KCAL/MOL
REMARK 927      BINDING AFFINITY PREDICTED BY RF-SCORE:    0.00 PKD
ROOT
HETATM    1  C   UNL     1     -10.038  10.665  69.232  1.00  0.00    -0.206 C  
HETATM    2  N   UNL     1     -10.211   9.423  69.976  1.00  0.00    -0.212 NA 
HETATM    3  C   UNL     1      -9.902   8.378  69.143  1.00  0.00    -0.183 A  
HETATM    4  C   UNL     1     -10.195   9.357  71.423  1.00  0.00    -0.227 C  
HETATM    5  C   UNL     1      -9.938   7.051  69.551  1.00  0.00    -0.166 A  
HETATM    6  C   UNL     1      -9.684   5.986  68.686  1.00  0.00    -0.127 A  
HETATM    7  C   UNL     1      -9.362   6.260  67.331  1.00  0.00    -0.117 A  
HETATM    8  N   UNL     1      -9.026  11.562  65.748  1.00  0.00    -0.164 NA 
HETATM    9  H   UNL     1     -13.129  10.768  68.042  1.00  0.00     0.000 HD 
HETATM   10  C   UNL     1      -9.239  12.648  64.831  1.00  0.00     0.725 C  
HETATM   11  C   UNL     1      -9.248   7.706  66.978  1.00  0.00    -0.168 A  
HETATM   12  C   UNL     1      -9.557   8.765  67.853  1.00  0.00    -0.169 A  
HETATM   13  O   UNL     1     -12.273  10.382  68.188  1.00  0.00     0.087 OA 
HETATM   14  C   UNL     1     -11.502  11.326  68.983  1.00  0.00    -0.302 C  
HETATM   15  C   UNL     1      -9.843  11.486  66.923  1.00  0.00    -0.197 C  
HETATM   16  C   UNL     1     -11.440  12.748  68.254  1.00  0.00    -0.314 C  
HETATM   17  C   UNL     1      -9.322  10.318  67.830  1.00  0.00    -0.147 C  
HETATM   18  C   UNL     1     -10.002  12.947  67.726  1.00  0.00    -0.230 C  
HETATM   19  C   UNL     1      -9.852  14.122  66.750  1.00  0.00    -0.275 C  
HETATM   20  C   UNL     1      -7.809  10.495  67.469  1.00  0.00    -0.106 C  
HETATM   21  C   UNL     1      -9.444  13.979  65.506  1.00  0.00     0.116 C  
HETATM   22  C   UNL     1      -7.775  10.899  65.960  1.00  0.00    -0.107 C  
ENDROOT
BRANCH   6  23
HETATM   23  O   UNL     1      -9.760   4.695  69.149  1.00  0.00    -0.165 OA 
HETATM   24  C   UNL     1      -9.716   4.485  70.562  1.00  0.00    -0.220 C  
ENDBRANCH   6  23
BRANCH   7  25
HETATM   25  C   UNL     1      -9.010   5.067  66.191  1.00  0.00    -0.131 C  
HETATM   26  C   UNL     1      -5.444   7.915  65.948  1.00  0.00    -0.029 C  
HETATM   27  C   UNL     1      -6.811   4.589  67.323  1.00  0.00    -0.055 A  
HETATM   28  C   UNL     1      -5.242   7.747  64.430  1.00  0.00    -0.029 C  
HETATM   29  N   UNL     1      -6.625   7.104  66.372  1.00  0.00    -0.051 NA 
HETATM   30  C   UNL     1      -6.353   3.578  68.264  1.00  0.00    -0.036 A  
HETATM   31  C   UNL     1      -5.528   6.448  64.012  1.00  0.00    -0.018 C  
HETATM   32  C   UNL     1      -8.087   4.180  66.954  1.00  0.00    -0.101 A  
HETATM   33  C   UNL     1      -6.055   5.882  67.045  1.00  0.00    -0.025 C  
HETATM   34  N   UNL     1      -8.395   2.978  67.514  1.00  0.00    -0.081 NA 
HETATM   35  C   UNL     1      -5.214   3.469  69.040  1.00  0.00    -0.012 A  
HETATM   36  C   UNL     1      -7.474   7.031  65.161  1.00  0.00    -0.094 C  
HETATM   37  C   UNL     1      -7.377   2.629  68.390  1.00  0.00    -0.048 A  
HETATM   38  C   UNL     1      -7.045   6.013  64.173  1.00  0.00    -0.053 C  
HETATM   39  H   UNL     1      -9.232   2.428  67.323  1.00  0.00     0.000 HD 
HETATM   40  C   UNL     1      -7.311   1.596  69.322  1.00  0.00    -0.039 A  
HETATM   41  C   UNL     1      -8.058   4.914  64.676  1.00  0.00    -0.111 C  
HETATM   42  C   UNL     1      -5.126   2.445  69.992  1.00  0.00    -0.004 A  
HETATM   43  C   UNL     1      -6.175   1.540  70.135  1.00  0.00    -0.024 A  
BRANCH  25  44
HETATM   44  C   UNL     1     -10.417   4.606  65.732  1.00  0.00    -0.255 C  
HETATM   45  O   UNL     1     -11.457   5.249  65.754  1.00  0.00     0.313 OA 
BRANCH  44  46
HETATM   46  O   UNL     1     -10.258   3.370  65.149  1.00  0.00     0.020 OA 
HETATM   47  C   UNL     1     -10.747   3.055  63.847  1.00  0.00    -0.116 C  
ENDBRANCH  44  46
ENDBRANCH  25  44
BRANCH  28  48
HETATM   48  C   UNL     1      -5.729   9.047  63.661  1.00  0.00    -0.075 C  
HETATM   49  C   UNL     1      -7.029   9.100  62.776  1.00  0.00    -0.091 C  
ENDBRANCH  28  48
ENDBRANCH   7  25
BRANCH  18  50
HETATM   50  C   UNL     1      -9.006  13.451  68.890  1.00  0.00     0.249 C  
HETATM   51  C   UNL     1      -8.984  14.980  69.180  1.00  0.00    -0.186 C  
ENDBRANCH  18  50
BRANCH  16  52
HETATM   52  O   UNL     1     -12.348  12.838  67.089  1.00  0.00    -0.357 OA 
BRANCH  52  53
HETATM   53  C   UNL     1     -12.489  14.091  66.552  1.00  0.00    -0.311 C  
HETATM   54  C   UNL     1     -12.256  15.190  67.564  1.00  0.00     0.369 C  
HETATM   55  O   UNL     1     -12.897  14.309  65.427  1.00  0.00    -0.588 OA 
ENDBRANCH  52  53
ENDBRANCH  16  52
BRANCH  14  56
HETATM   56  C   UNL     1     -12.257  11.634  70.269  1.00  0.00    -0.318 C  
HETATM   57  O   UNL     1     -13.027  10.872  70.852  1.00  0.00    -0.331 OA 
BRANCH  56  58
HETATM   58  O   UNL     1     -11.820  12.831  70.771  1.00  0.00    -0.140 OA 
HETATM   59  C   UNL     1     -12.813  13.823  71.016  1.00  0.00    -0.305 C  
ENDBRANCH  56  58
ENDBRANCH  14  56
TORSDOF 10
ENDMDL
MODEL       10
REMARK 921   NORMALIZED FREE ENERGY PREDICTED BY IDOCK:   -0.55 KCAL/MOL
REMARK 922        TOTAL FREE ENERGY PREDICTED BY IDOCK:   -2.83 KCAL/MOL
REMARK 923 INTER-LIGAND FREE ENERGY PREDICTED BY IDOCK:   -5.28 KCAL/MOL
REMARK 924 INTRA-LIGAND FREE ENERGY PREDICTED BY IDOCK:    2.46 KCAL/MOL
REMARK 927      BINDING AFFINITY PREDICTED BY RF-SCORE:    0.00 PKD
ROOT
HETATM    1  C   UNL     1      -7.384  10.156  68.609  1.00  0.00    -0.082 C  
HETATM    2  N   UNL     1      -6.786  11.391  68.115  1.00  0.00    -0.062 NA 
HETATM    3  C   UNL     1      -7.790  12.304  67.916  1.00  0.00    -0.146 A  
HETATM    4  C   UNL     1      -5.391  11.729  68.309  1.00  0.00    -0.043 C  
HETATM    5  C   UNL     1      -7.557  13.599  67.472  1.00  0.00    -0.180 A  
HETATM    6  C   UNL     1      -8.584  14.506  67.212  1.00  0.00    -0.215 A  
HETATM    7  C   UNL     1      -9.929  14.102  67.417  1.00  0.00    -0.240 A  
HETATM    8  N   UNL     1     -10.854   8.999  69.374  1.00  0.00    -0.186 NA 
HETATM    9  H   UNL     1      -7.922   8.834  65.619  1.00  0.00     0.000 HD 
HETATM   10  C   UNL     1     -11.565   7.751  69.432  1.00  0.00     0.625 C  
HETATM   11  C   UNL     1     -10.109  12.733  67.982  1.00  0.00    -0.230 A  
HETATM   12  C   UNL     1      -9.062  11.815  68.192  1.00  0.00    -0.185 A  
HETATM   13  O   UNL     1      -7.998   9.497  66.295  1.00  0.00    -0.106 OA 
HETATM   14  C   UNL     1      -7.254   9.021  67.452  1.00  0.00    -0.083 C  
HETATM   15  C   UNL     1      -9.562   9.025  68.755  1.00  0.00    -0.152 C  
HETATM   16  C   UNL     1      -7.793   7.586  67.908  1.00  0.00    -0.117 C  
HETATM   17  C   UNL     1      -8.931  10.447  68.953  1.00  0.00    -0.170 C  
HETATM   18  C   UNL     1      -8.562   7.770  69.236  1.00  0.00    -0.138 C  
HETATM   19  C   UNL     1      -9.390   6.546  69.652  1.00  0.00    -0.144 C  
HETATM   20  C   UNL     1      -9.556  10.706  70.365  1.00  0.00     1.138 C  
HETATM   21  C   UNL     1     -10.698   6.577  69.805  1.00  0.00    -0.322 C  
HETATM   22  C   UNL     1     -10.977  10.060  70.327  1.00  0.00    -0.316 C  
ENDROOT
BRANCH   6  23
HETATM   23  O   UNL     1      -8.284  15.765  66.751  1.00  0.00    -0.225 OA 
HETATM   24  C   UNL     1      -6.940  16.229  66.889  1.00  0.00    -0.191 C  
ENDBRANCH   6  23
BRANCH   7  25
HETATM   25  C   UNL     1     -11.259  15.109  67.163  1.00  0.00    -0.320 C  
HETATM   26  C   UNL     1     -10.981  14.769  71.712  1.00  0.00     0.696 C  
HETATM   27  C   UNL     1     -10.219  16.900  68.597  1.00  0.00    -0.301 A  
HETATM   28  C   UNL     1     -12.505  14.803  71.942  1.00  0.00    -0.410 C  
HETATM   29  N   UNL     1     -10.713  14.823  70.243  1.00  0.00    -0.050 NA 
HETATM   30  C   UNL     1      -9.468  18.114  68.318  1.00  0.00    -0.315 A  
HETATM   31  C   UNL     1     -13.146  15.639  71.028  1.00  0.00    -0.487 C  
HETATM   32  C   UNL     1     -10.661  16.460  67.355  1.00  0.00    -0.306 A  
HETATM   33  C   UNL     1     -10.262  16.235  69.967  1.00  0.00     0.003 C  
HETATM   34  N   UNL     1     -10.322  17.344  66.376  1.00  0.00    -0.334 NA 
HETATM   35  C   UNL     1      -8.719  18.956  69.118  1.00  0.00    -0.049 A  
HETATM   36  C   UNL     1     -11.921  14.231  69.627  1.00  0.00    -0.336 C  
HETATM   37  C   UNL     1      -9.516  18.327  66.933  1.00  0.00    -0.290 A  
HETATM   38  C   UNL     1     -13.071  15.160  69.518  1.00  0.00     0.638 C  
HETATM   39  H   UNL     1     -10.610  17.292  65.399  1.00  0.00     0.000 HD 
HETATM   40  C   UNL     1      -8.779  19.337  66.319  1.00  0.00    -0.333 A  
HETATM   41  C   UNL     1     -12.773  15.554  68.021  1.00  0.00     1.603 C  
HETATM   42  C   UNL     1      -7.961  19.975  68.525  1.00  0.00    -0.139 A  
HETATM   43  C   UNL     1      -7.985  20.139  67.142  1.00  0.00    -0.363 A  
BRANCH  25  44
HETATM   44  C   UNL     1     -11.798  14.625  65.793  1.00  0.00    -0.274 C  
HETATM   45  O   UNL     1     -11.970  15.289  64.781  1.00  0.00    -0.293 OA 
BRANCH  44  46
HETATM   46  O   UNL     1     -11.915  13.255  65.875  1.00  0.00    -0.375 OA 
HETATM   47  C   UNL     1     -12.658  12.480  64.936  1.00  0.00    -0.390 C  
ENDBRANCH  44  46
ENDBRANCH  25  44
BRANCH  28  48
HETATM   48  C   UNL     1     -13.035  13.362  72.340  1.00  0.00    -0.372 C  
HETATM   49  C   UNL     1     -12.411  12.023  71.797  1.00  0.00     0.026 C  
ENDBRANCH  28  48
ENDBRANCH   7  25
BRANCH  18  50
HETATM   50  C   UNL     1      -7.561   7.844  70.497  1.00  0.00    -0.081 C  
HETATM   51  C   UNL     1      -8.171   7.532  71.896  1.00  0.00    -0.116 C  
ENDBRANCH  18  50
BRANCH  16  52
HETATM   52  O   UNL     1      -8.736   6.990  66.937  1.00  0.00    -0.117 OA 
BRANCH  52  53
HETATM   53  C   UNL     1      -8.360   5.776  66.425  1.00  0.00    -0.113 C  
HETATM   54  C   UNL     1      -7.086   5.854  65.614  1.00  0.00    -0.069 C  
HETATM   55  O   UNL     1      -9.041   4.770  66.486  1.00  0.00    -0.117 OA 
ENDBRANCH  52  53
ENDBRANCH  16  52
BRANCH  14  56
HETATM   56  C   UNL     1      -5.817   8.732  67.041  1.00  0.00    -0.046 C  
HETATM   57  O   UNL     1      -5.306   9.018  65.959  1.00  0.00    -0.039 OA 
BRANCH  56  58
HETATM   58  O   UNL     1      -5.128   8.254  68.125  1.00  0.00    -0.031 OA 
HETATM   59  C   UNL     1      -5.156   6.845  68.330  1.00  0.00    -0.015 C  
ENDBRANCH  56  58
ENDBRANCH  14  56
TORSDOF 10
ENDMDL
MODEL       11
REMARK 921   NORMALIZED FREE ENERGY PREDICTED BY IDOCK:   -0.47 KCAL/MOL
REMARK 922        TOTAL FREE ENERGY PREDICTED BY IDOCK:   -2.70 KCAL/MOL
REMARK 923 INTER-LIGAND FREE ENERGY PREDICTED BY IDOCK:   -6.45 KCAL/MOL
REMARK 924 INTRA-LIGAND FREE ENERGY PREDICTED BY IDOCK:    3.75 KCAL/MOL
REMARK 927      BINDING AFFINITY PREDICTED BY RF-SCORE:    0.00 PKD
ROOT
HETATM    1  C   UNL     1      -7.683  12.275  67.633  1.00  0.00    -0.144 C  
HETATM    2  N   UNL     1      -6.567  11.800  68.445  1.00  0.00    -0.053 NA 
HETATM    3  C   UNL     1      -7.035  10.824  69.287  1.00  0.00    -0.102 A  
HETATM    4  C   UNL     1      -5.181  11.960  68.057  1.00  0.00    -0.050 C  
HETATM    5  C   UNL     1      -6.218  10.142  70.179  1.00  0.00    -0.090 A  
HETATM    6  C   UNL     1      -6.706   9.194  71.079  1.00  0.00    -0.093 A  
HETATM    7  C   UNL     1      -8.095   8.898  71.083  1.00  0.00    -0.201 A  
HETATM    8  N   UNL     1     -11.326  11.478  67.391  1.00  0.00    -0.388 NA 
HETATM    9  H   UNL     1      -8.644  14.637  69.749  1.00  0.00     0.000 HD 
HETATM   10  C   UNL     1     -12.529  12.146  66.977  1.00  0.00     1.208 C  
HETATM   11  C   UNL     1      -8.902   9.595  70.040  1.00  0.00    -0.259 A  
HETATM   12  C   UNL     1      -8.400  10.585  69.174  1.00  0.00    -0.154 A  
HETATM   13  O   UNL     1      -8.436  13.748  69.485  1.00  0.00     0.601 OA 
HETATM   14  C   UNL     1      -8.039  13.795  68.085  1.00  0.00    -0.155 C  
HETATM   15  C   UNL     1     -10.140  12.259  67.587  1.00  0.00    -0.200 C  
HETATM   16  C   UNL     1      -9.191  14.466  67.202  1.00  0.00    -0.222 C  
HETATM   17  C   UNL     1      -8.939  11.296  67.881  1.00  0.00    -0.146 C  
HETATM   18  C   UNL     1      -9.844  13.352  66.353  1.00  0.00    -0.299 C  
HETATM   19  C   UNL     1     -11.156  13.773  65.674  1.00  0.00    -0.297 C  
HETATM   20  C   UNL     1      -9.432  10.134  66.954  1.00  0.00    -0.203 C  
HETATM   21  C   UNL     1     -12.310  13.182  65.906  1.00  0.00    -0.462 C  
HETATM   22  C   UNL     1     -10.989  10.122  67.079  1.00  0.00    -0.092 C  
ENDROOT
BRANCH   6  23
HETATM   23  O   UNL     1      -5.847   8.572  71.952  1.00  0.00    -0.041 OA 
HETATM   24  C   UNL     1      -5.125   9.387  72.878  1.00  0.00    -0.081 C  
ENDBRANCH   6  23
BRANCH   7  25
HETATM   25  C   UNL     1      -8.807   7.756  72.101  1.00  0.00    -0.176 C  
HETATM   26  C   UNL     1     -12.353   9.711  69.982  1.00  0.00     0.373 C  
HETATM   27  C   UNL     1      -9.974   6.688  70.141  1.00  0.00    -0.190 A  
HETATM   28  C   UNL     1     -13.296   9.629  71.197  1.00  0.00    -0.344 C  
HETATM   29  N   UNL     1     -11.017   9.162  70.368  1.00  0.00    -0.239 NA 
HETATM   30  C   UNL     1      -9.704   5.523  69.313  1.00  0.00    -0.214 A  
HETATM   31  C   UNL     1     -13.078   8.472  71.944  1.00  0.00    -0.391 C  
HETATM   32  C   UNL     1      -9.039   6.618  71.168  1.00  0.00    -0.152 A  
HETATM   33  C   UNL     1     -10.951   7.789  69.750  1.00  0.00    -0.158 C  
HETATM   34  N   UNL     1      -8.301   5.477  71.080  1.00  0.00    -0.123 NA 
HETATM   35  C   UNL     1     -10.231   5.087  68.111  1.00  0.00    -0.141 A  
HETATM   36  C   UNL     1     -10.935   9.391  71.828  1.00  0.00    -0.217 C  
HETATM   37  C   UNL     1      -8.637   4.829  69.900  1.00  0.00    -0.074 A  
HETATM   38  C   UNL     1     -11.659   8.389  72.646  1.00  0.00    -0.367 C  
HETATM   39  H   UNL     1      -7.618   5.154  71.765  1.00  0.00     0.000 HD 
HETATM   40  C   UNL     1      -8.041   3.734  69.278  1.00  0.00    -0.062 A  
HETATM   41  C   UNL     1     -10.378   7.516  72.937  1.00  0.00    -0.349 C  
HETATM   42  C   UNL     1      -9.645   3.993  67.460  1.00  0.00    -0.216 A  
HETATM   43  C   UNL     1      -8.554   3.347  68.036  1.00  0.00    -0.116 A  
BRANCH  25  44
HETATM   44  C   UNL     1      -7.802   7.675  73.279  1.00  0.00    -0.116 C  
HETATM   45  O   UNL     1      -7.820   8.314  74.321  1.00  0.00    -0.220 OA 
BRANCH  44  46
HETATM   46  O   UNL     1      -6.950   6.630  73.001  1.00  0.00    -0.075 OA 
HETATM   47  C   UNL     1      -6.808   5.494  73.852  1.00  0.00    -0.081 C  
ENDBRANCH  44  46
ENDBRANCH  25  44
BRANCH  28  48
HETATM   48  C   UNL     1     -13.494  11.067  71.839  1.00  0.00    -0.299 C  
HETATM   49  C   UNL     1     -12.825  12.374  71.273  1.00  0.00    -0.337 C  
ENDBRANCH  28  48
ENDBRANCH   7  25
BRANCH  18  50
HETATM   50  C   UNL     1      -8.972  13.017  65.039  1.00  0.00     1.461 C  
HETATM   51  C   UNL     1      -9.678  12.200  63.918  1.00  0.00    -0.143 C  
ENDBRANCH  18  50
BRANCH  16  52
HETATM   52  O   UNL     1     -10.263  15.075  68.019  1.00  0.00    -0.225 OA 
BRANCH  52  53
HETATM   53  C   UNL     1     -10.362  16.439  67.934  1.00  0.00    -0.286 C  
HETATM   54  C   UNL     1      -9.379  17.035  66.951  1.00  0.00    -0.263 C  
HETATM   55  O   UNL     1     -11.056  17.120  68.664  1.00  0.00    -0.241 OA 
ENDBRANCH  52  53
ENDBRANCH  16  52
BRANCH  14  56
HETATM   56  C   UNL     1      -6.877  14.766  67.925  1.00  0.00    -0.160 C  
HETATM   57  O   UNL     1      -6.317  15.052  66.868  1.00  0.00    -0.035 OA 
BRANCH  56  58
HETATM   58  O   UNL     1      -6.657  15.402  69.119  1.00  0.00    -0.118 OA 
HETATM   59  C   UNL     1      -6.801  16.820  69.124  1.00  0.00    -0.227 C  
ENDBRANCH  56  58
ENDBRANCH  14  56
TORSDOF 10
ENDMDL
MODEL       12
REMARK 921   NORMALIZED FREE ENERGY PREDICTED BY IDOCK:   -0.03 KCAL/MOL
REMARK 922        TOTAL FREE ENERGY PREDICTED BY IDOCK:   -2.01 KCAL/MOL
REMARK 923 INTER-LIGAND FREE ENERGY PREDICTED BY IDOCK:   -2.15 KCAL/MOL
REMARK 924 INTRA-LIGAND FREE ENERGY PREDICTED BY IDOCK:    0.14 KCAL/MOL
REMARK 927      BINDING AFFINITY PREDICTED BY RF-SCORE:    0.00 PKD
ROOT
HETATM    1  C   UNL     1      -8.458   7.537  68.040  1.00  0.00    -0.123 C  
HETATM    2  N   UNL     1      -9.434   8.091  67.108  1.00  0.00    -0.153 NA 
HETATM    3  C   UNL     1      -9.773   9.348  67.539  1.00  0.00    -0.157 A  
HETATM    4  C   UNL     1      -9.590   7.616  65.748  1.00  0.00     0.366 C  
HETATM    5  C   UNL     1     -10.665  10.166  66.857  1.00  0.00    -0.231 A  
HETATM    6  C   UNL     1     -11.056  11.419  67.330  1.00  0.00    -0.303 A  
HETATM    7  C   UNL     1     -10.516  11.894  68.553  1.00  0.00    -0.240 A  
HETATM    8  N   UNL     1      -6.807   8.717  71.178  1.00  0.00    -0.071 NA 
HETATM    9  H   UNL     1     -10.689   6.179  70.078  1.00  0.00     0.000 HD 
HETATM   10  C   UNL     1      -6.214   8.128  72.346  1.00  0.00    -0.058 C  
HETATM   11  C   UNL     1      -9.494  11.011  69.189  1.00  0.00    -0.064 A  
HETATM   12  C   UNL     1      -9.149   9.728  68.722  1.00  0.00    -0.136 A  
HETATM   13  O   UNL     1     -10.279   6.889  69.599  1.00  0.00    -0.184 OA 
HETATM   14  C   UNL     1      -9.161   6.322  68.859  1.00  0.00    -0.123 C  
HETATM   15  C   UNL     1      -7.592   7.886  70.314  1.00  0.00    -0.086 C  
HETATM   16  C   UNL     1      -8.162   5.566  69.853  1.00  0.00    -0.105 C  
HETATM   17  C   UNL     1      -7.996   8.711  69.043  1.00  0.00    -0.115 C  
HETATM   18  C   UNL     1      -6.874   6.414  69.963  1.00  0.00    -0.054 C  
HETATM   19  C   UNL     1      -5.939   5.982  71.102  1.00  0.00    -0.030 C  
HETATM   20  C   UNL     1      -6.679   9.554  68.972  1.00  0.00    -0.050 C  
HETATM   21  C   UNL     1      -5.602   6.774  72.099  1.00  0.00    -0.037 C  
HETATM   22  C   UNL     1      -6.268   9.829  70.453  1.00  0.00    -0.082 C  
ENDROOT
BRANCH   6  23
HETATM   23  O   UNL     1     -11.961  12.167  66.617  1.00  0.00    -0.616 OA 
HETATM   24  C   UNL     1     -12.136  11.869  65.231  1.00  0.00     0.098 C  
ENDBRANCH   6  23
BRANCH   7  25
HETATM   25  C   UNL     1     -10.886  13.399  69.220  1.00  0.00    -0.085 C  
HETATM   26  C   UNL     1      -6.511  13.795  67.962  1.00  0.00    -0.140 C  
HETATM   27  C   UNL     1     -10.185  14.551  67.094  1.00  0.00    -0.260 A  
HETATM   28  C   UNL     1      -6.113  14.699  69.144  1.00  0.00    -0.102 C  
HETATM   29  N   UNL     1      -7.952  13.425  68.099  1.00  0.00    -0.139 NA 
HETATM   30  C   UNL     1     -10.901  15.081  65.944  1.00  0.00    -0.339 A  
HETATM   31  C   UNL     1      -7.145  15.567  69.501  1.00  0.00    -0.195 C  
HETATM   32  C   UNL     1     -11.178  14.209  68.005  1.00  0.00    -0.281 A  
HETATM   33  C   UNL     1      -8.686  14.281  67.098  1.00  0.00    -0.227 C  
HETATM   34  N   UNL     1     -12.408  14.566  67.543  1.00  0.00    -0.582 NA 
HETATM   35  C   UNL     1     -10.485  15.504  64.695  1.00  0.00     0.036 A  
HETATM   36  C   UNL     1      -8.211  13.491  69.555  1.00  0.00     1.013 C  
HETATM   37  C   UNL     1     -12.270  15.029  66.242  1.00  0.00     0.261 A  
HETATM   38  C   UNL     1      -8.443  14.860  70.073  1.00  0.00     0.507 C  
HETATM   39  H   UNL     1     -13.281  14.505  68.065  1.00  0.00     0.000 HD 
HETATM   40  C   UNL     1     -13.241  15.339  65.293  1.00  0.00     1.348 A  
HETATM   41  C   UNL     1     -10.016  14.747  70.026  1.00  0.00     0.272 C  
HETATM   42  C   UNL     1     -11.441  15.812  63.719  1.00  0.00     0.750 A  
HETATM   43  C   UNL     1     -12.797  15.708  64.021  1.00  0.00     1.039 A  
BRANCH  25  44
HETATM   44  C   UNL     1     -11.974  13.049  70.268  1.00  0.00    -0.285 C  
HETATM   45  O   UNL     1     -12.020  12.069  70.998  1.00  0.00    -0.133 OA 
BRANCH  44  46
HETATM   46  O   UNL     1     -12.821  14.132  70.335  1.00  0.00    -0.320 OA 
HETATM   47  C   UNL     1     -13.723  14.349  71.419  1.00  0.00    -0.348 C  
ENDBRANCH  44  46
ENDBRANCH  25  44
BRANCH  28  48
HETATM   48  C   UNL     1      -5.245  13.885  70.194  1.00  0.00    -0.094 C  
HETATM   49  C   UNL     1      -5.385  14.047  71.753  1.00  0.00    -0.218 C  
ENDBRANCH  28  48
ENDBRANCH   7  25
BRANCH  18  50
HETATM   50  C   UNL     1      -5.889   6.164  68.712  1.00  0.00    -0.019 C  
HETATM   51  C   UNL     1      -5.287   4.735  68.568  1.00  0.00    -0.007 C  
ENDBRANCH  18  50
BRANCH  16  52
HETATM   52  O   UNL     1      -8.708   5.424  71.220  1.00  0.00    -0.127 OA 
BRANCH  52  53
HETATM   53  C   UNL     1      -9.038   4.146  71.589  1.00  0.00    -0.123 C  
HETATM   54  C   UNL     1      -8.197   3.634  72.737  1.00  0.00    -0.082 C  
HETATM   55  O   UNL     1      -9.818   3.440  70.979  1.00  0.00    -0.169 OA 
ENDBRANCH  52  53
ENDBRANCH  16  52
BRANCH  14  56
HETATM   56  C   UNL     1      -9.669   5.199  67.966  1.00  0.00    -0.146 C  
HETATM   57  O   UNL     1     -10.729   5.198  67.341  1.00  0.00    -0.119 OA 
BRANCH  56  58
HETATM   58  O   UNL     1      -8.685   4.255  67.829  1.00  0.00    -0.102 OA 
HETATM   59  C   UNL     1      -9.053   3.036  67.189  1.00  0.00    -0.175 C  
ENDBRANCH  56  58
ENDBRANCH  14  56
TORSDOF 10
ENDMDL
MODEL       13
REMARK 921   NORMALIZED FREE ENERGY PREDICTED BY IDOCK:    0.16 KCAL/MOL
REMARK 922        TOTAL FREE ENERGY PREDICTED BY IDOCK:   -1.70 KCAL/MOL
REMARK 923 INTER-LIGAND FREE ENERGY PREDICTED BY IDOCK:   -4.48 KCAL/MOL
REMARK 924 INTRA-LIGAND FREE ENERGY PREDICTED BY IDOCK:    2.78 KCAL/MOL
REMARK 927      BINDING AFFINITY PREDICTED BY RF-SCORE:    0.00 PKD
ROOT
HETATM    1  C   UNL     1      -7.307  14.837  68.012  1.00  0.00    -0.133 C  
HETATM    2  N   UNL     1      -6.570  13.982  68.936  1.00  0.00    -0.095 NA 
HETATM    3  C   UNL     1      -7.260  12.805  69.073  1.00  0.00     0.016 A  
HETATM    4  C   UNL     1      -5.158  14.148  69.214  1.00  0.00    -0.078 C  
HETATM    5  C   UNL     1      -6.813  11.756  69.866  1.00  0.00     0.184 A  
HETATM    6  C   UNL     1      -7.546  10.584  70.054  1.00  0.00     0.061 A  
HETATM    7  C   UNL     1      -8.798  10.442  69.401  1.00  0.00    -0.138 A  
HETATM    8  N   UNL     1     -10.493  14.544  66.081  1.00  0.00    -0.289 NA 
HETATM    9  H   UNL     1      -9.192  16.273  70.329  1.00  0.00     0.000 HD 
HETATM   10  C   UNL     1     -11.481  15.430  65.530  1.00  0.00    -0.078 C  
HETATM   11  C   UNL     1      -9.178  11.561  68.491  1.00  0.00    -0.167 A  
HETATM   12  C   UNL     1      -8.448  12.758  68.353  1.00  0.00    -0.115 A  
HETATM   13  O   UNL     1      -8.833  15.541  69.840  1.00  0.00    -0.157 OA 
HETATM   14  C   UNL     1      -7.921  16.089  68.847  1.00  0.00    -0.212 C  
HETATM   15  C   UNL     1      -9.540  15.073  67.012  1.00  0.00    -0.225 C  
HETATM   16  C   UNL     1      -8.678  17.155  67.926  1.00  0.00    -0.222 C  
HETATM   17  C   UNL     1      -8.485  13.962  67.346  1.00  0.00    -0.208 C  
HETATM   18  C   UNL     1      -8.862  16.525  66.527  1.00  0.00    -0.317 C  
HETATM   19  C   UNL     1      -9.827  17.298  65.617  1.00  0.00     0.064 C  
HETATM   20  C   UNL     1      -8.488  13.303  65.925  1.00  0.00     1.366 C  
HETATM   21  C   UNL     1     -10.933  16.775  65.129  1.00  0.00    -0.109 C  
HETATM   22  C   UNL     1      -9.963  13.390  65.419  1.00  0.00    -0.192 C  
ENDROOT
BRANCH   6  23
HETATM   23  O   UNL     1      -7.056   9.594  70.872  1.00  0.00    -0.255 OA 
HETATM   24  C   UNL     1      -5.837   9.844  71.573  1.00  0.00     0.045 C  
ENDBRANCH   6  23
BRANCH   7  25
HETATM   25  C   UNL     1      -9.769   9.067  69.525  1.00  0.00    -0.171 C  
HETATM   26  C   UNL     1      -7.306   8.344  65.744  1.00  0.00    -0.073 C  
HETATM   27  C   UNL     1      -7.733   7.585  69.494  1.00  0.00    -0.104 A  
HETATM   28  C   UNL     1      -8.434   7.616  64.987  1.00  0.00    -0.027 C  
HETATM   29  N   UNL     1      -7.820   8.777  67.078  1.00  0.00    -0.095 NA 
HETATM   30  C   UNL     1      -6.953   6.912  70.521  1.00  0.00    -0.063 A  
HETATM   31  C   UNL     1      -9.218   6.846  65.845  1.00  0.00     0.004 C  
HETATM   32  C   UNL     1      -8.840   8.093  70.163  1.00  0.00    -0.145 A  
HETATM   33  C   UNL     1      -7.236   7.805  68.071  1.00  0.00    -0.087 C  
HETATM   34  N   UNL     1      -8.839   7.710  71.470  1.00  0.00    -0.123 NA 
HETATM   35  C   UNL     1      -5.717   6.293  70.503  1.00  0.00    -0.018 A  
HETATM   36  C   UNL     1      -9.277   8.939  66.875  1.00  0.00    -0.147 C  
HETATM   37  C   UNL     1      -7.645   7.052  71.732  1.00  0.00    -0.088 A  
HETATM   38  C   UNL     1     -10.046   7.672  66.915  1.00  0.00    -0.348 C  
HETATM   39  H   UNL     1      -9.587   7.878  72.141  1.00  0.00     0.000 HD 
HETATM   40  C   UNL     1      -7.099   6.635  72.943  1.00  0.00    -0.076 A  
HETATM   41  C   UNL     1     -10.466   7.828  68.427  1.00  0.00    -0.207 C  
HETATM   42  C   UNL     1      -5.140   5.872  71.708  1.00  0.00    -0.020 A  
HETATM   43  C   UNL     1      -5.824   6.064  72.907  1.00  0.00    -0.037 A  
BRANCH  25  44
HETATM   44  C   UNL     1     -11.033   9.605  70.243  1.00  0.00    -0.285 C  
HETATM   45  O   UNL     1     -11.709  10.577  69.936  1.00  0.00    -0.261 OA 
BRANCH  44  46
HETATM   46  O   UNL     1     -11.351   8.692  71.223  1.00  0.00    -0.255 OA 
HETATM   47  C   UNL     1     -12.419   8.883  72.148  1.00  0.00    -0.389 C  
ENDBRANCH  44  46
ENDBRANCH  25  44
BRANCH  28  48
HETATM   48  C   UNL     1      -9.029   8.551  63.851  1.00  0.00     0.509 C  
HETATM   49  C   UNL     1      -8.912  10.120  63.863  1.00  0.00    -0.270 C  
ENDBRANCH  28  48
ENDBRANCH   7  25
BRANCH  18  50
HETATM   50  C   UNL     1      -7.521  16.645  65.640  1.00  0.00     1.313 C  
HETATM   51  C   UNL     1      -6.810  18.030  65.627  1.00  0.00    -0.201 C  
ENDBRANCH  18  50
BRANCH  16  52
HETATM   52  O   UNL     1     -10.026  17.498  68.430  1.00  0.00    -0.296 OA 
BRANCH  52  53
HETATM   53  C   UNL     1     -10.218  18.819  68.737  1.00  0.00    -0.264 C  
HETATM   54  C   UNL     1     -10.512  19.665  67.518  1.00  0.00    -0.589 C  
HETATM   55  O   UNL     1     -10.035  19.297  69.840  1.00  0.00     0.100 OA 
ENDBRANCH  52  53
ENDBRANCH  16  52
BRANCH  14  56
HETATM   56  C   UNL     1      -6.864  16.932  69.547  1.00  0.00    -0.125 C  
HETATM   57  O   UNL     1      -6.237  16.610  70.556  1.00  0.00     0.131 OA 
BRANCH  56  58
HETATM   58  O   UNL     1      -6.593  18.038  68.784  1.00  0.00    -0.215 OA 
HETATM   59  C   UNL     1      -6.414  19.267  69.480  1.00  0.00    -0.303 C  
ENDBRANCH  56  58
ENDBRANCH  14  56
TORSDOF 10
ENDMDL
MODEL       14
REMARK 921   NORMALIZED FREE ENERGY PREDICTED BY IDOCK:    0.66 KCAL/MOL
REMARK 922        TOTAL FREE ENERGY PREDICTED BY IDOCK:   -0.92 KCAL/MOL
REMARK 923 INTER-LIGAND FREE ENERGY PREDICTED BY IDOCK:   -3.15 KCAL/MOL
REMARK 924 INTRA-LIGAND FREE ENERGY PREDICTED BY IDOCK:    2.23 KCAL/MOL
REMARK 927      BINDING AFFINITY PREDICTED BY RF-SCORE:    0.00 PKD
ROOT
HETATM    1  C   UNL     1      -8.748  12.731  68.022  1.00  0.00    -0.194 C  
HETATM    2  N   UNL     1      -7.936  12.117  69.067  1.00  0.00     0.116 NA 
HETATM    3  C   UNL     1      -8.384  10.835  69.259  1.00  0.00    -0.062 A  
HETATM    4  C   UNL     1      -6.616  12.592  69.427  1.00  0.00    -0.067 C  
HETATM    5  C   UNL     1      -7.806   9.962  70.171  1.00  0.00    -0.186 A  
HETATM    6  C   UNL     1      -8.301   8.680  70.410  1.00  0.00    -0.130 A  
HETATM    7  C   UNL     1      -9.438   8.234  69.687  1.00  0.00    -0.163 A  
HETATM    8  N   UNL     1     -11.630  11.644  65.907  1.00  0.00    -0.320 NA 
HETATM    9  H   UNL     1     -11.076  13.908  70.066  1.00  0.00     0.000 HD 
HETATM   10  C   UNL     1     -12.725  12.263  65.212  1.00  0.00     0.372 C  
HETATM   11  C   UNL     1      -9.955   9.181  68.657  1.00  0.00    -0.185 A  
HETATM   12  C   UNL     1      -9.472  10.490  68.466  1.00  0.00    -0.164 A  
HETATM   13  O   UNL     1     -10.536  13.233  69.670  1.00  0.00     0.336 OA 
HETATM   14  C   UNL     1      -9.671  13.885  68.698  1.00  0.00    -0.160 C  
HETATM   15  C   UNL     1     -10.888  12.425  66.852  1.00  0.00    -0.251 C  
HETATM   16  C   UNL     1     -10.545  14.702  67.636  1.00  0.00    -0.256 C  
HETATM   17  C   UNL     1      -9.663  11.585  67.355  1.00  0.00    -0.191 C  
HETATM   18  C   UNL     1     -10.476  13.948  66.289  1.00  0.00    -0.287 C  
HETATM   19  C   UNL     1     -11.495  14.436  65.249  1.00  0.00    -0.350 C  
HETATM   20  C   UNL     1      -9.411  10.839  66.002  1.00  0.00    -0.230 C  
HETATM   21  C   UNL     1     -12.427  13.660  64.733  1.00  0.00    -0.391 C  
HETATM   22  C   UNL     1     -10.824  10.581  65.388  1.00  0.00     0.170 C  
ENDROOT
BRANCH   6  23
HETATM   23  O   UNL     1      -7.695   7.875  71.345  1.00  0.00    -0.077 OA 
HETATM   24  C   UNL     1      -6.859   8.495  72.324  1.00  0.00    -0.077 C  
ENDBRANCH   6  23
BRANCH   7  25
HETATM   25  C   UNL     1     -10.119   6.700  69.864  1.00  0.00    -0.198 C  
HETATM   26  C   UNL     1      -7.232   6.229  66.352  1.00  0.00    -0.069 C  
HETATM   27  C   UNL     1      -7.831   5.677  70.115  1.00  0.00    -0.091 A  
HETATM   28  C   UNL     1      -8.118   5.229  65.585  1.00  0.00    -0.117 C  
HETATM   29  N   UNL     1      -7.941   6.643  67.602  1.00  0.00    -0.114 NA 
HETATM   30  C   UNL     1      -7.027   5.258  71.253  1.00  0.00    -0.053 A  
HETATM   31  C   UNL     1      -8.804   4.377  66.450  1.00  0.00    -0.114 C  
HETATM   32  C   UNL     1      -9.074   5.991  70.654  1.00  0.00    -0.150 A  
HETATM   33  C   UNL     1      -7.263   5.889  68.718  1.00  0.00    -0.083 C  
HETATM   34  N   UNL     1      -9.112   5.714  71.986  1.00  0.00    -0.138 NA 
HETATM   35  C   UNL     1      -5.695   4.910  71.380  1.00  0.00    -0.012 A  
HETATM   36  C   UNL     1      -9.376   6.483  67.279  1.00  0.00    -0.121 C  
HETATM   37  C   UNL     1      -7.839   5.340  72.393  1.00  0.00    -0.102 A  
HETATM   38  C   UNL     1      -9.874   5.090  67.378  1.00  0.00    -0.207 C  
HETATM   39  H   UNL     1      -9.937   5.771  72.584  1.00  0.00     0.000 HD 
HETATM   40  C   UNL     1      -7.331   5.135  73.673  1.00  0.00    -0.087 A  
HETATM   41  C   UNL     1     -10.451   5.266  68.836  1.00  0.00    -0.190 C  
HETATM   42  C   UNL     1      -5.156   4.708  72.658  1.00  0.00    -0.004 A  
HETATM   43  C   UNL     1      -5.969   4.841  73.781  1.00  0.00    -0.026 A  
BRANCH  25  44
HETATM   44  C   UNL     1     -11.525   7.015  70.437  1.00  0.00    -0.310 C  
HETATM   45  O   UNL     1     -12.591   6.506  70.121  1.00  0.00     0.204 OA 
BRANCH  44  46
HETATM   46  O   UNL     1     -11.338   7.883  71.489  1.00  0.00    -0.247 OA 
HETATM   47  C   UNL     1     -12.154   7.875  72.659  1.00  0.00    -0.187 C  
ENDBRANCH  44  46
ENDBRANCH  25  44
BRANCH  28  48
HETATM   48  C   UNL     1      -8.785   5.933  64.329  1.00  0.00     0.222 C  
HETATM   49  C   UNL     1      -7.967   6.693  63.220  1.00  0.00    -0.076 C  
ENDBRANCH  28  48
ENDBRANCH   7  25
BRANCH  18  50
HETATM   50  C   UNL     1      -9.116  14.279  65.490  1.00  0.00     0.788 C  
HETATM   51  C   UNL     1      -8.664  15.769  65.463  1.00  0.00     0.953 C  
ENDBRANCH  18  50
BRANCH  16  52
HETATM   52  O   UNL     1     -11.972  14.792  68.012  1.00  0.00    -0.316 OA 
BRANCH  52  53
HETATM   53  C   UNL     1     -12.256  15.664  69.031  1.00  0.00    -0.079 C  
HETATM   54  C   UNL     1     -11.494  16.965  68.915  1.00  0.00     0.270 C  
HETATM   55  O   UNL     1     -12.931  15.382  70.002  1.00  0.00    -0.176 OA 
ENDBRANCH  52  53
ENDBRANCH  16  52
BRANCH  14  56
HETATM   56  C   UNL     1      -8.869  14.977  69.393  1.00  0.00    -0.115 C  
HETATM   57  O   UNL     1      -8.925  15.263  70.588  1.00  0.00     0.888 OA 
BRANCH  56  58
HETATM   58  O   UNL     1      -7.948  15.485  68.515  1.00  0.00    -0.127 OA 
HETATM   59  C   UNL     1      -7.077  16.496  69.014  1.00  0.00    -0.213 C  
ENDBRANCH  56  58
ENDBRANCH  14  56
TORSDOF 10
ENDMDL
MODEL       15
REMARK 921   NORMALIZED FREE ENERGY PREDICTED BY IDOCK:    0.84 KCAL/MOL
REMARK 922        TOTAL FREE ENERGY PREDICTED BY IDOCK:   -0.63 KCAL/MOL
REMARK 923 INTER-LIGAND FREE ENERGY PREDICTED BY IDOCK:   -4.37 KCAL/MOL
REMARK 924 INTRA-LIGAND FREE ENERGY PREDICTED BY IDOCK:    3.74 KCAL/MOL
REMARK 927      BINDING AFFINITY PREDICTED BY RF-SCORE:    0.00 PKD
ROOT
HETATM    1  C   UNL     1     -10.017  12.023  69.248  1.00  0.00     0.425 C  
HETATM    2  N   UNL     1     -11.008  11.046  69.685  1.00  0.00    -0.247 NA 
HETATM    3  C   UNL     1     -10.489   9.792  69.487  1.00  0.00    -0.232 A  
HETATM    4  C   UNL     1     -12.075  11.361  70.612  1.00  0.00    -0.372 C  
HETATM    5  C   UNL     1     -11.171   8.631  69.826  1.00  0.00     0.008 A  
HETATM    6  C   UNL     1     -10.669   7.355  69.568  1.00  0.00    -0.224 A  
HETATM    7  C   UNL     1      -9.402   7.227  68.943  1.00  0.00    -0.144 A  
HETATM    8  N   UNL     1      -6.590  11.857  67.765  1.00  0.00    -0.075 NA 
HETATM    9  H   UNL     1     -11.048  12.150  66.102  1.00  0.00     0.000 HD 
HETATM   10  C   UNL     1      -5.756  12.681  66.935  1.00  0.00     0.445 C  
HETATM   11  C   UNL     1      -8.679   8.507  68.689  1.00  0.00    -0.139 A  
HETATM   12  C   UNL     1      -9.224   9.786  68.911  1.00  0.00    -0.155 A  
HETATM   13  O   UNL     1     -10.725  11.723  66.887  1.00  0.00    -0.229 OA 
HETATM   14  C   UNL     1     -10.569  12.752  67.904  1.00  0.00    -0.221 C  
HETATM   15  C   UNL     1      -7.981  12.182  67.879  1.00  0.00    -0.150 C  
HETATM   16  C   UNL     1      -9.610  13.917  67.375  1.00  0.00    -0.235 C  
HETATM   17  C   UNL     1      -8.638  11.244  68.949  1.00  0.00    -0.056 C  
HETATM   18  C   UNL     1      -8.271  13.811  68.139  1.00  0.00    -0.160 C  
HETATM   19  C   UNL     1      -7.143  14.665  67.543  1.00  0.00    -0.203 C  
HETATM   20  C   UNL     1      -7.381  11.152  69.877  1.00  0.00     0.267 C  
HETATM   21  C   UNL     1      -6.016  14.157  67.089  1.00  0.00     0.827 C  
HETATM   22  C   UNL     1      -6.145  11.139  68.922  1.00  0.00    -0.045 C  
ENDROOT
BRANCH   6  23
HETATM   23  O   UNL     1     -11.407   6.247  69.908  1.00  0.00    -0.397 OA 
HETATM   24  C   UNL     1     -11.350   5.791  71.261  1.00  0.00    -0.084 C  
ENDBRANCH   6  23
BRANCH   7  25
HETATM   25  C   UNL     1      -8.672   5.745  68.598  1.00  0.00    -0.108 C  
HETATM   26  C   UNL     1      -5.618   8.836  67.183  1.00  0.00    -0.038 C  
HETATM   27  C   UNL     1      -6.654   6.384  69.965  1.00  0.00    -0.048 A  
HETATM   28  C   UNL     1      -5.132   8.003  65.981  1.00  0.00    -0.025 C  
HETATM   29  N   UNL     1      -6.710   8.090  67.879  1.00  0.00    -0.067 NA 
HETATM   30  C   UNL     1      -6.211   6.089  71.318  1.00  0.00    -0.043 A  
HETATM   31  C   UNL     1      -5.131   6.638  66.265  1.00  0.00    -0.017 C  
HETATM   32  C   UNL     1      -7.765   5.572  69.768  1.00  0.00    -0.078 A  
HETATM   33  C   UNL     1      -6.077   7.512  69.119  1.00  0.00    -0.034 C  
HETATM   34  N   UNL     1      -7.971   4.758  70.840  1.00  0.00    -0.081 NA 
HETATM   35  C   UNL     1      -5.220   6.628  72.118  1.00  0.00    -0.031 A  
HETATM   36  C   UNL     1      -7.314   7.251  66.820  1.00  0.00    -0.088 C  
HETATM   37  C   UNL     1      -7.076   5.117  71.840  1.00  0.00    -0.075 A  
HETATM   38  C   UNL     1      -6.563   6.008  66.521  1.00  0.00    -0.058 C  
HETATM   39  H   UNL     1      -8.663   4.012  70.899  1.00  0.00     0.000 HD 
HETATM   40  C   UNL     1      -7.009   4.711  73.171  1.00  0.00    -0.073 A  
HETATM   41  C   UNL     1      -7.460   5.096  67.443  1.00  0.00    -0.083 C  
HETATM   42  C   UNL     1      -5.137   6.244  73.462  1.00  0.00    -0.032 A  
HETATM   43  C   UNL     1      -6.037   5.312  73.974  1.00  0.00    -0.053 A  
BRANCH  25  44
HETATM   44  C   UNL     1      -9.887   4.817  68.343  1.00  0.00    -0.121 C  
HETATM   45  O   UNL     1     -10.782   4.967  67.524  1.00  0.00    -0.035 OA 
BRANCH  44  46
HETATM   46  O   UNL     1      -9.698   3.695  69.118  1.00  0.00    -0.151 OA 
HETATM   47  C   UNL     1      -9.239   2.452  68.590  1.00  0.00    -0.170 C  
ENDBRANCH  44  46
ENDBRANCH  25  44
BRANCH  28  48
HETATM   48  C   UNL     1      -5.679   8.620  64.625  1.00  0.00    -0.063 C  
HETATM   49  C   UNL     1      -5.475   7.948  63.218  1.00  0.00    -0.050 C  
ENDBRANCH  28  48
ENDBRANCH   7  25
BRANCH  18  50
HETATM   50  C   UNL     1      -8.364  14.490  69.599  1.00  0.00     0.362 C  
HETATM   51  C   UNL     1      -7.410  15.688  69.877  1.00  0.00     0.049 C  
ENDBRANCH  18  50
BRANCH  16  52
HETATM   52  O   UNL     1      -9.299  13.798  65.934  1.00  0.00    -0.109 OA 
BRANCH  52  53
HETATM   53  C   UNL     1     -10.288  14.219  65.084  1.00  0.00    -0.415 C  
HETATM   54  C   UNL     1     -10.828  15.584  65.448  1.00  0.00    -0.402 C  
HETATM   55  O   UNL     1     -10.786  13.525  64.219  1.00  0.00    -0.391 OA 
ENDBRANCH  52  53
ENDBRANCH  16  52
BRANCH  14  56
HETATM   56  C   UNL     1     -11.899  13.467  68.103  1.00  0.00    -0.365 C  
HETATM   57  O   UNL     1     -12.907  13.317  67.415  1.00  0.00     0.452 OA 
BRANCH  56  58
HETATM   58  O   UNL     1     -11.854  14.182  69.271  1.00  0.00    -0.295 OA 
HETATM   59  C   UNL     1     -12.103  15.582  69.175  1.00  0.00    -0.240 C  
ENDBRANCH  56  58
ENDBRANCH  14  56
TORSDOF 10
ENDMDL
MODEL       16
REMARK 921   NORMALIZED FREE ENERGY PREDICTED BY IDOCK:    1.47 KCAL/MOL
REMARK 922        TOTAL FREE ENERGY PREDICTED BY IDOCK:    0.38 KCAL/MOL
REMARK 923 INTER-LIGAND FREE ENERGY PREDICTED BY IDOCK:   -2.51 KCAL/MOL
REMARK 924 INTRA-LIGAND FREE ENERGY PREDICTED BY IDOCK:    2.89 KCAL/MOL
REMARK 927      BINDING AFFINITY PREDICTED BY RF-SCORE:    0.00 PKD
ROOT
HETATM    1  C   UNL     1      -7.898   6.629  66.520  1.00  0.00    -0.104 C  
HETATM    2  N   UNL     1      -8.594   7.478  65.560  1.00  0.00    -0.121 NA 
HETATM    3  C   UNL     1      -9.064   8.581  66.225  1.00  0.00    -0.185 A  
HETATM    4  C   UNL     1      -8.363   7.412  64.131  1.00  0.00     0.138 C  
HETATM    5  C   UNL     1      -9.753   9.608  65.592  1.00  0.00    -0.363 A  
HETATM    6  C   UNL     1     -10.284  10.699  66.280  1.00  0.00    -0.245 A  
HETATM    7  C   UNL     1     -10.108  10.780  67.686  1.00  0.00    -0.205 A  
HETATM    8  N   UNL     1      -7.191   6.785  70.187  1.00  0.00    -0.074 NA 
HETATM    9  H   UNL     1     -10.572   4.887  67.413  1.00  0.00     0.000 HD 
HETATM   10  C   UNL     1      -6.927   5.858  71.253  1.00  0.00    -0.068 C  
HETATM   11  C   UNL     1      -9.281   9.697  68.292  1.00  0.00    -0.131 A  
HETATM   12  C   UNL     1      -8.795   8.577  67.589  1.00  0.00    -0.138 A  
HETATM   13  O   UNL     1     -10.061   5.678  67.285  1.00  0.00    -0.143 OA 
HETATM   14  C   UNL     1      -8.772   5.276  66.740  1.00  0.00    -0.112 C  
HETATM   15  C   UNL     1      -7.693   6.276  68.944  1.00  0.00    -0.097 C  
HETATM   16  C   UNL     1      -8.067   4.215  67.707  1.00  0.00    -0.094 C  
HETATM   17  C   UNL     1      -7.752   7.445  67.902  1.00  0.00    -0.116 C  
HETATM   18  C   UNL     1      -6.876   4.921  68.394  1.00  0.00    -0.055 C  
HETATM   19  C   UNL     1      -6.278   4.133  69.569  1.00  0.00    -0.028 C  
HETATM   20  C   UNL     1      -6.483   8.196  68.429  1.00  0.00    -0.058 C  
HETATM   21  C   UNL     1      -6.242   4.594  70.802  1.00  0.00    -0.019 C  
HETATM   22  C   UNL     1      -6.498   8.021  69.981  1.00  0.00    -0.033 C  
ENDROOT
BRANCH   6  23
HETATM   23  O   UNL     1     -10.976  11.669  65.595  1.00  0.00    -0.290 OA 
HETATM   24  C   UNL     1     -11.200  11.474  64.197  1.00  0.00    -0.314 C  
ENDBRANCH   6  23
BRANCH   7  25
HETATM   25  C   UNL     1     -10.678  12.057  68.630  1.00  0.00    -0.266 C  
HETATM   26  C   UNL     1      -6.398  13.276  67.591  1.00  0.00    -0.156 C  
HETATM   27  C   UNL     1     -10.142  13.697  66.796  1.00  0.00    -0.269 A  
HETATM   28  C   UNL     1      -6.125  13.968  68.940  1.00  0.00    -0.086 C  
HETATM   29  N   UNL     1      -7.776  12.698  67.614  1.00  0.00    -0.142 NA 
HETATM   30  C   UNL     1     -10.924  14.347  65.756  1.00  0.00    -0.314 A  
HETATM   31  C   UNL     1      -7.264  14.601  69.436  1.00  0.00    -0.146 C  
HETATM   32  C   UNL     1     -11.078  13.049  67.593  1.00  0.00    -0.267 A  
HETATM   33  C   UNL     1      -8.619  13.632  66.785  1.00  0.00    -0.029 C  
HETATM   34  N   UNL     1     -12.345  13.326  67.181  1.00  0.00    -0.227 NA 
HETATM   35  C   UNL     1     -10.570  15.065  64.628  1.00  0.00    -0.185 A  
HETATM   36  C   UNL     1      -8.039  12.434  69.046  1.00  0.00     0.312 C  
HETATM   37  C   UNL     1     -12.273  14.056  66.002  1.00  0.00    -0.458 A  
HETATM   38  C   UNL     1      -8.455  13.628  69.822  1.00  0.00     1.640 C  
HETATM   39  H   UNL     1     -13.202  13.045  67.657  1.00  0.00     0.000 HD 
HETATM   40  C   UNL     1     -13.278  14.419  65.109  1.00  0.00     0.331 A  
HETATM   41  C   UNL     1      -9.997  13.319  69.711  1.00  0.00     1.505 C  
HETATM   42  C   UNL     1     -11.560  15.434  63.709  1.00  0.00     0.630 A  
HETATM   43  C   UNL     1     -12.890  15.092  63.948  1.00  0.00     0.922 A  
BRANCH  25  44
HETATM   44  C   UNL     1     -11.708  11.363  69.558  1.00  0.00    -0.348 C  
HETATM   45  O   UNL     1     -11.749  10.183  69.877  1.00  0.00    -0.237 OA 
BRANCH  44  46
HETATM   46  O   UNL     1     -12.499  12.358  70.086  1.00  0.00    -0.153 OA 
HETATM   47  C   UNL     1     -12.991  12.333  71.425  1.00  0.00    -0.256 C  
ENDBRANCH  44  46
ENDBRANCH  25  44
BRANCH  28  48
HETATM   48  C   UNL     1      -5.154  13.081  69.828  1.00  0.00    -0.083 C  
HETATM   49  C   UNL     1      -5.646  11.904  70.749  1.00  0.00    -0.118 C  
ENDBRANCH  28  48
ENDBRANCH   7  25
BRANCH  18  50
HETATM   50  C   UNL     1      -5.582   4.974  67.435  1.00  0.00    -0.013 C  
HETATM   51  C   UNL     1      -5.401   3.794  66.435  1.00  0.00    -0.013 C  
ENDBRANCH  18  50
BRANCH  16  52
HETATM   52  O   UNL     1      -8.962   3.728  68.779  1.00  0.00    -0.102 OA 
BRANCH  52  53
HETATM   53  C   UNL     1      -9.302   2.403  68.701  1.00  0.00    -0.182 C  
HETATM   54  C   UNL     1      -9.455   1.759  70.061  1.00  0.00    -0.134 C  
HETATM   55  O   UNL     1      -9.338   1.767  67.665  1.00  0.00    -0.155 OA 
ENDBRANCH  52  53
ENDBRANCH  16  52
BRANCH  14  56
HETATM   56  C   UNL     1      -8.994   4.479  65.462  1.00  0.00    -0.138 C  
HETATM   57  O   UNL     1      -8.175   3.732  64.927  1.00  0.00    -0.093 OA 
BRANCH  56  58
HETATM   58  O   UNL     1     -10.307   4.591  65.085  1.00  0.00    -0.188 OA 
HETATM   59  C   UNL     1     -10.743   3.744  64.026  1.00  0.00    -0.242 C  
ENDBRANCH  56  58
ENDBRANCH  14  56
TORSDOF 10
ENDMDL
MODEL       17
REMARK 921   NORMALIZED FREE ENERGY PREDICTED BY IDOCK:    2.00 KCAL/MOL
REMARK 922        TOTAL FREE ENERGY PREDICTED BY IDOCK:    1.22 KCAL/MOL
REMARK 923 INTER-LIGAND FREE ENERGY PREDICTED BY IDOCK:   -0.51 KCAL/MOL
REMARK 924 INTRA-LIGAND FREE ENERGY PREDICTED BY IDOCK:    1.73 KCAL/MOL
REMARK 927      BINDING AFFINITY PREDICTED BY RF-SCORE:    0.00 PKD
ROOT
HETATM    1  C   UNL     1      -7.241  16.497  68.174  1.00  0.00    -0.152 C  
HETATM    2  N   UNL     1      -6.518  15.547  69.013  1.00  0.00    -0.117 NA 
HETATM    3  C   UNL     1      -7.153  14.334  68.930  1.00  0.00    -0.113 A  
HETATM    4  C   UNL     1      -5.137  15.730  69.409  1.00  0.00    -0.102 C  
HETATM    5  C   UNL     1      -6.702  13.199  69.592  1.00  0.00     0.081 A  
HETATM    6  C   UNL     1      -7.382  11.982  69.557  1.00  0.00     0.345 A  
HETATM    7  C   UNL     1      -8.582  11.884  68.806  1.00  0.00     0.046 A  
HETATM    8  N   UNL     1     -10.281  16.357  66.006  1.00  0.00    -0.340 NA 
HETATM    9  H   UNL     1      -9.338  17.492  70.539  1.00  0.00     0.000 HD 
HETATM   10  C   UNL     1     -11.278  17.271  65.522  1.00  0.00     0.502 C  
HETATM   11  C   UNL     1      -8.964  13.109  68.043  1.00  0.00    -0.195 A  
HETATM   12  C   UNL     1      -8.291  14.343  68.131  1.00  0.00    -0.158 A  
HETATM   13  O   UNL     1      -8.911  16.856  69.976  1.00  0.00     1.014 OA 
HETATM   14  C   UNL     1      -7.970  17.584  69.137  1.00  0.00     0.014 C  
HETATM   15  C   UNL     1      -9.417  16.782  67.067  1.00  0.00    -0.232 C  
HETATM   16  C   UNL     1      -8.724  18.741  68.331  1.00  0.00    -0.337 C  
HETATM   17  C   UNL     1      -8.327  15.680  67.308  1.00  0.00    -0.209 C  
HETATM   18  C   UNL     1      -8.787  18.318  66.846  1.00  0.00    -0.279 C  
HETATM   19  C   UNL     1      -9.733  19.175  65.993  1.00  0.00    -0.254 C  
HETATM   20  C   UNL     1      -8.208  15.239  65.811  1.00  0.00     1.795 C  
HETATM   21  C   UNL     1     -10.778  18.683  65.359  1.00  0.00     0.217 C  
HETATM   22  C   UNL     1      -9.652  15.337  65.222  1.00  0.00     0.012 C  
ENDROOT
BRANCH   6  23
HETATM   23  O   UNL     1      -6.893  10.904  70.255  1.00  0.00    -0.233 OA 
HETATM   24  C   UNL     1      -5.575  10.998  70.799  1.00  0.00    -0.115 C  
ENDBRANCH   6  23
BRANCH   7  25
HETATM   25  C   UNL     1      -9.486  10.466  68.662  1.00  0.00    -0.167 C  
HETATM   26  C   UNL     1     -12.544  13.594  69.984  1.00  0.00    -0.110 C  
HETATM   27  C   UNL     1     -11.059  11.593  67.049  1.00  0.00    -0.359 A  
HETATM   28  C   UNL     1     -13.367  12.619  70.847  1.00  0.00     0.417 C  
HETATM   29  N   UNL     1     -11.377  12.861  69.406  1.00  0.00    -0.233 NA 
HETATM   30  C   UNL     1     -11.183  11.612  65.600  1.00  0.00    -0.275 A  
HETATM   31  C   UNL     1     -13.405  11.341  70.289  1.00  0.00     0.759 C  
HETATM   32  C   UNL     1     -10.094  10.627  67.311  1.00  0.00    -0.199 A  
HETATM   33  C   UNL     1     -11.734  12.607  67.964  1.00  0.00    -0.350 C  
HETATM   34  N   UNL     1      -9.699  10.009  66.164  1.00  0.00    -0.211 NA 
HETATM   35  C   UNL     1     -11.908  12.409  64.733  1.00  0.00    -0.442 A  
HETATM   36  C   UNL     1     -11.112  11.772  70.372  1.00  0.00     0.855 C  
HETATM   37  C   UNL     1     -10.295  10.655  65.090  1.00  0.00    -0.261 A  
HETATM   38  C   UNL     1     -12.006  10.598  70.230  1.00  0.00    -0.425 C  
HETATM   39  H   UNL     1      -9.072   9.207  66.105  1.00  0.00     0.000 HD 
HETATM   40  C   UNL     1     -10.071  10.515  63.723  1.00  0.00    -0.253 A  
HETATM   41  C   UNL     1     -10.986   9.768  69.358  1.00  0.00    -0.241 C  
HETATM   42  C   UNL     1     -11.694  12.295  63.353  1.00  0.00    -0.542 A  
HETATM   43  C   UNL     1     -10.772  11.371  62.869  1.00  0.00     0.061 A  
BRANCH  25  44
HETATM   44  C   UNL     1      -8.443   9.364  68.978  1.00  0.00    -0.129 C  
HETATM   45  O   UNL     1      -8.138   8.918  70.075  1.00  0.00    -0.100 OA 
BRANCH  44  46
HETATM   46  O   UNL     1      -8.017   8.862  67.769  1.00  0.00    -0.101 OA 
HETATM   47  C   UNL     1      -7.205   7.695  67.653  1.00  0.00    -0.087 C  
ENDBRANCH  44  46
ENDBRANCH  25  44
BRANCH  28  48
HETATM   48  C   UNL     1     -13.118  12.900  72.389  1.00  0.00    -0.340 C  
HETATM   49  C   UNL     1     -13.317  14.308  73.061  1.00  0.00    -0.437 C  
ENDBRANCH  28  48
ENDBRANCH   7  25
BRANCH  18  50
HETATM   50  C   UNL     1      -7.402  18.625  66.080  1.00  0.00    -0.291 C  
HETATM   51  C   UNL     1      -7.180  20.087  65.592  1.00  0.00    -0.330 C  
ENDBRANCH  18  50
BRANCH  16  52
HETATM   52  O   UNL     1     -10.116  18.947  68.784  1.00  0.00    -0.388 OA 
BRANCH  52  53
HETATM   53  C   UNL     1     -10.384  20.184  69.310  1.00  0.00     0.087 C  
HETATM   54  C   UNL     1      -9.983  21.311  68.385  1.00  0.00     0.861 C  
HETATM   55  O   UNL     1     -10.768  20.373  70.448  1.00  0.00     0.803 OA 
ENDBRANCH  52  53
ENDBRANCH  16  52
BRANCH  14  56
HETATM   56  C   UNL     1      -7.004  18.358  70.023  1.00  0.00     0.592 C  
HETATM   57  O   UNL     1      -6.301  17.881  70.913  1.00  0.00     0.827 OA 
BRANCH  56  58
HETATM   58  O   UNL     1      -6.910  19.647  69.565  1.00  0.00    -0.342 OA 
HETATM   59  C   UNL     1      -5.824  20.424  70.062  1.00  0.00    -0.352 C  
ENDBRANCH  56  58
ENDBRANCH  14  56
TORSDOF 10
ENDMDL
MODEL       18
REMARK 921   NORMALIZED FREE ENERGY PREDICTED BY IDOCK:    2.21 KCAL/MOL
REMARK 922        TOTAL FREE ENERGY PREDICTED BY IDOCK:    1.54 KCAL/MOL
REMARK 923 INTER-LIGAND FREE ENERGY PREDICTED BY IDOCK:   -4.66 KCAL/MOL
REMARK 924 INTRA-LIGAND FREE ENERGY PREDICTED BY IDOCK:    6.20 KCAL/MOL
REMARK 927      BINDING AFFINITY PREDICTED BY RF-SCORE:    0.00 PKD
ROOT
HETATM    1  C   UNL     1     -10.130  12.667  68.486  1.00  0.00    -0.178 C  
HETATM    2  N   UNL     1     -10.842  11.455  68.095  1.00  0.00    -0.200 NA 
HETATM    3  C   UNL     1      -9.921  10.547  67.638  1.00  0.00    -0.173 A  
HETATM    4  C   UNL     1     -12.161  11.116  68.590  1.00  0.00    -0.110 C  
HETATM    5  C   UNL     1     -10.268   9.272  67.211  1.00  0.00    -0.315 A  
HETATM    6  C   UNL     1      -9.340   8.371  66.688  1.00  0.00    -0.191 A  
HETATM    7  C   UNL     1      -7.978   8.760  66.595  1.00  0.00    -0.100 A  
HETATM    8  N   UNL     1      -6.562  13.777  68.481  1.00  0.00    -0.090 NA 
HETATM    9  H   UNL     1     -10.271  14.105  65.505  1.00  0.00     0.000 HD 
HETATM   10  C   UNL     1      -5.840  15.018  68.423  1.00  0.00    -0.109 C  
HETATM   11  C   UNL     1      -7.655  10.105  67.156  1.00  0.00    -0.092 A  
HETATM   12  C   UNL     1      -8.614  11.019  67.634  1.00  0.00    -0.125 A  
HETATM   13  O   UNL     1     -10.052  13.415  66.120  1.00  0.00    -0.289 OA 
HETATM   14  C   UNL     1     -10.505  13.848  67.434  1.00  0.00    -0.263 C  
HETATM   15  C   UNL     1      -7.962  13.782  68.174  1.00  0.00    -0.150 C  
HETATM   16  C   UNL     1      -9.857  15.261  67.809  1.00  0.00    -0.220 C  
HETATM   17  C   UNL     1      -8.549  12.356  68.456  1.00  0.00    -0.060 C  
HETATM   18  C   UNL     1      -8.808  15.021  68.917  1.00  0.00    -0.201 C  
HETATM   19  C   UNL     1      -7.891  16.224  69.179  1.00  0.00    -0.231 C  
HETATM   20  C   UNL     1      -7.623  12.037  69.678  1.00  0.00     0.745 C  
HETATM   21  C   UNL     1      -6.583  16.181  69.028  1.00  0.00    -0.160 C  
HETATM   22  C   UNL     1      -6.239  12.678  69.341  1.00  0.00    -0.113 C  
ENDROOT
BRANCH   6  23
HETATM   23  O   UNL     1      -9.753   7.133  66.260  1.00  0.00    -0.115 OA 
HETATM   24  C   UNL     1     -11.013   6.647  66.728  1.00  0.00    -0.216 C  
ENDBRANCH   6  23
BRANCH   7  25
HETATM   25  C   UNL     1      -6.754   7.758  66.007  1.00  0.00    -0.049 C  
HETATM   26  C   UNL     1      -7.303   6.405  70.337  1.00  0.00    -0.089 C  
HETATM   27  C   UNL     1      -8.084   5.712  66.631  1.00  0.00    -0.105 A  
HETATM   28  C   UNL     1      -5.812   6.091  70.568  1.00  0.00    -0.021 C  
HETATM   29  N   UNL     1      -7.475   6.940  68.952  1.00  0.00    -0.093 NA 
HETATM   30  C   UNL     1      -8.944   4.799  65.896  1.00  0.00    -0.130 A  
HETATM   31  C   UNL     1      -5.207   5.582  69.420  1.00  0.00    -0.004 C  
HETATM   32  C   UNL     1      -7.511   6.524  65.658  1.00  0.00    -0.082 A  
HETATM   33  C   UNL     1      -8.061   5.804  68.151  1.00  0.00    -0.104 C  
HETATM   34  N   UNL     1      -7.879   6.123  64.410  1.00  0.00    -0.110 NA 
HETATM   35  C   UNL     1      -9.836   3.823  66.300  1.00  0.00    -0.076 A  
HETATM   36  C   UNL     1      -6.169   7.558  68.633  1.00  0.00    -0.032 C  
HETATM   37  C   UNL     1      -8.826   5.115  64.535  1.00  0.00    -0.060 A  
HETATM   38  C   UNL     1      -5.125   6.597  68.204  1.00  0.00    -0.008 C  
HETATM   39  H   UNL     1      -7.520   6.498  63.533  1.00  0.00     0.000 HD 
HETATM   40  C   UNL     1      -9.627   4.512  63.568  1.00  0.00     0.048 A  
HETATM   41  C   UNL     1      -5.362   6.833  66.663  1.00  0.00    -0.017 C  
HETATM   42  C   UNL     1     -10.660   3.207  65.349  1.00  0.00     1.205 A  
HETATM   43  C   UNL     1     -10.561   3.570  64.007  1.00  0.00    -0.245 A  
BRANCH  25  44
HETATM   44  C   UNL     1      -6.072   8.647  64.935  1.00  0.00    -0.060 C  
HETATM   45  O   UNL     1      -5.773   9.829  65.025  1.00  0.00    -0.063 OA 
BRANCH  44  46
HETATM   46  O   UNL     1      -5.722   7.814  63.895  1.00  0.00    -0.050 OA 
HETATM   47  C   UNL     1      -5.263   8.296  62.633  1.00  0.00    -0.068 C  
ENDBRANCH  44  46
ENDBRANCH  25  44
BRANCH  28  48
HETATM   48  C   UNL     1      -5.153   7.197  71.495  1.00  0.00    -0.027 C  
HETATM   49  C   UNL     1      -5.876   8.532  71.908  1.00  0.00    -0.051 C  
ENDBRANCH  28  48
ENDBRANCH   7  25
BRANCH  18  50
HETATM   50  C   UNL     1      -9.496  14.901  70.371  1.00  0.00     0.902 C  
HETATM   51  C   UNL     1     -10.780  15.747  70.611  1.00  0.00    -0.199 C  
ENDBRANCH  18  50
BRANCH  16  52
HETATM   52  O   UNL     1      -9.153  15.891  66.671  1.00  0.00    -0.215 OA 
BRANCH  52  53
HETATM   53  C   UNL     1      -9.598  17.140  66.325  1.00  0.00    -0.252 C  
HETATM   54  C   UNL     1      -9.060  18.224  67.232  1.00  0.00    -0.256 C  
HETATM   55  O   UNL     1     -10.445  17.352  65.478  1.00  0.00    -0.624 OA 
ENDBRANCH  52  53
ENDBRANCH  16  52
BRANCH  14  56
HETATM   56  C   UNL     1     -11.994  14.159  67.373  1.00  0.00    -0.404 C  
HETATM   57  O   UNL     1     -12.785  14.085  68.313  1.00  0.00     0.327 OA 
BRANCH  56  58
HETATM   58  O   UNL     1     -12.290  14.699  66.149  1.00  0.00    -0.257 OA 
HETATM   59  C   UNL     1     -12.639  13.783  65.114  1.00  0.00    -0.433 C  
ENDBRANCH  56  58
ENDBRANCH  14  56
TORSDOF 10
ENDMDL
MODEL       19
REMARK 921   NORMALIZED FREE ENERGY PREDICTED BY IDOCK:    2.67 KCAL/MOL
REMARK 922        TOTAL FREE ENERGY PREDICTED BY IDOCK:    2.28 KCAL/MOL
REMARK 923 INTER-LIGAND FREE ENERGY PREDICTED BY IDOCK:    0.52 KCAL/MOL
REMARK 924 INTRA-LIGAND FREE ENERGY PREDICTED BY IDOCK:    1.76 KCAL/MOL
REMARK 927      BINDING AFFINITY PREDICTED BY RF-SCORE:    0.00 PKD
ROOT
HETATM    1  C   UNL     1      -8.268   6.677  71.441  1.00  0.00    -0.116 C  
HETATM    2  N   UNL     1      -7.158   5.954  70.830  1.00  0.00    -0.066 NA 
HETATM    3  C   UNL     1      -7.103   6.296  69.503  1.00  0.00    -0.073 A  
HETATM    4  C   UNL     1      -6.048   5.417  71.591  1.00  0.00    -0.029 C  
HETATM    5  C   UNL     1      -6.138   5.801  68.636  1.00  0.00    -0.025 A  
HETATM    6  C   UNL     1      -6.120   6.100  67.273  1.00  0.00    -0.018 A  
HETATM    7  C   UNL     1      -7.120   6.955  66.742  1.00  0.00    -0.075 A  
HETATM    8  N   UNL     1     -10.858   9.086  70.236  1.00  0.00    -0.232 NA 
HETATM    9  H   UNL     1     -10.553   4.363  70.805  1.00  0.00     0.000 HD 
HETATM   10  C   UNL     1     -12.185   9.490  70.614  1.00  0.00    -0.123 C  
HETATM   11  C   UNL     1      -8.071   7.528  67.739  1.00  0.00    -0.119 A  
HETATM   12  C   UNL     1      -8.103   7.174  69.102  1.00  0.00    -0.121 A  
HETATM   13  O   UNL     1      -9.873   4.988  70.582  1.00  0.00    -0.181 OA 
HETATM   14  C   UNL     1      -9.432   5.608  71.822  1.00  0.00    -0.149 C  
HETATM   15  C   UNL     1     -10.309   7.899  70.822  1.00  0.00    -0.203 C  
HETATM   16  C   UNL     1     -10.672   6.266  72.588  1.00  0.00    -0.232 C  
HETATM   17  C   UNL     1      -8.813   7.758  70.376  1.00  0.00    -0.146 C  
HETATM   18  C   UNL     1     -10.533   7.802  72.478  1.00  0.00    -0.343 C  
HETATM   19  C   UNL     1     -11.791   8.573  72.903  1.00  0.00     0.071 C  
HETATM   20  C   UNL     1      -8.507   9.293  70.344  1.00  0.00    -0.234 C  
HETATM   21  C   UNL     1     -12.459   9.367  72.090  1.00  0.00    -0.396 C  
HETATM   22  C   UNL     1      -9.814   9.976  69.829  1.00  0.00    -0.235 C  
ENDROOT
BRANCH   6  23
HETATM   23  O   UNL     1      -5.149   5.557  66.466  1.00  0.00    -0.005 OA 
HETATM   24  C   UNL     1      -5.376   4.254  65.926  1.00  0.00    -0.009 C  
ENDBRANCH   6  23
BRANCH   7  25
HETATM   25  C   UNL     1      -7.196   7.415  65.120  1.00  0.00    -0.066 C  
HETATM   26  C   UNL     1     -10.865   4.749  65.686  1.00  0.00    -0.065 C  
HETATM   27  C   UNL     1      -9.511   8.347  65.458  1.00  0.00     0.131 A  
HETATM   28  C   UNL     1     -10.802   4.135  64.275  1.00  0.00    -0.094 C  
HETATM   29  N   UNL     1      -9.715   5.689  65.856  1.00  0.00    -0.054 NA 
HETATM   30  C   UNL     1     -10.045   9.681  65.680  1.00  0.00    -0.231 A  
HETATM   31  C   UNL     1     -10.360   5.059  63.328  1.00  0.00     1.186 C  
HETATM   32  C   UNL     1      -8.167   8.544  65.168  1.00  0.00    -0.152 A  
HETATM   33  C   UNL     1     -10.301   7.071  65.726  1.00  0.00     1.541 C  
HETATM   34  N   UNL     1      -7.871   9.872  65.107  1.00  0.00    -0.127 NA 
HETATM   35  C   UNL     1     -11.286  10.139  66.084  1.00  0.00     0.717 A  
HETATM   36  C   UNL     1      -8.676   5.167  64.940  1.00  0.00    -0.140 C  
HETATM   37  C   UNL     1      -8.992  10.589  65.500  1.00  0.00    -0.183 A  
HETATM   38  C   UNL     1      -8.865   5.548  63.520  1.00  0.00     0.233 C  
HETATM   39  H   UNL     1      -6.977  10.271  64.821  1.00  0.00     0.000 HD 
HETATM   40  C   UNL     1      -9.137  11.947  65.772  1.00  0.00    -0.041 A  
HETATM   41  C   UNL     1      -7.873   6.773  63.586  1.00  0.00    -0.106 C  
HETATM   42  C   UNL     1     -11.457  11.499  66.374  1.00  0.00    -0.150 A  
HETATM   43  C   UNL     1     -10.384  12.377  66.235  1.00  0.00    -0.267 A  
BRANCH  25  44
HETATM   44  C   UNL     1      -5.704   7.615  64.752  1.00  0.00    -0.037 C  
HETATM   45  O   UNL     1      -5.151   7.337  63.697  1.00  0.00    -0.028 OA 
BRANCH  44  46
HETATM   46  O   UNL     1      -5.129   8.310  65.792  1.00  0.00    -0.027 OA 
HETATM   47  C   UNL     1      -5.189   9.731  65.906  1.00  0.00    -0.036 C  
ENDBRANCH  44  46
ENDBRANCH  25  44
BRANCH  28  48
HETATM   48  C   UNL     1     -10.288   2.635  64.348  1.00  0.00     0.198 C  
HETATM   49  C   UNL     1     -10.220   1.676  63.103  1.00  0.00    -0.120 C  
ENDBRANCH  28  48
ENDBRANCH   7  25
BRANCH  18  50
HETATM   50  C   UNL     1      -9.496   8.384  73.567  1.00  0.00     0.186 C  
HETATM   51  C   UNL     1      -8.871   7.359  74.558  1.00  0.00    -0.166 C  
ENDBRANCH  18  50
BRANCH  16  52
HETATM   52  O   UNL     1     -11.976   5.903  71.991  1.00  0.00    -0.244 OA 
BRANCH  52  53
HETATM   53  C   UNL     1     -12.831   5.226  72.820  1.00  0.00     0.925 C  
HETATM   54  C   UNL     1     -12.229   3.950  73.364  1.00  0.00     0.463 C  
HETATM   55  O   UNL     1     -13.996   5.530  72.993  1.00  0.00     0.719 OA 
ENDBRANCH  52  53
ENDBRANCH  16  52
BRANCH  14  56
HETATM   56  C   UNL     1      -8.970   4.525  72.788  1.00  0.00    -0.119 C  
HETATM   57  O   UNL     1      -8.675   4.691  73.970  1.00  0.00    -0.105 OA 
BRANCH  56  58
HETATM   58  O   UNL     1      -9.095   3.301  72.182  1.00  0.00    -0.096 OA 
HETATM   59  C   UNL     1      -9.081   2.161  73.036  1.00  0.00    -0.070 C  
ENDBRANCH  56  58
ENDBRANCH  14  56
TORSDOF 10
ENDMDL
MODEL       20
REMARK 921   NORMALIZED FREE ENERGY PREDICTED BY IDOCK:    2.85 KCAL/MOL
REMARK 922        TOTAL FREE ENERGY PREDICTED BY IDOCK:    2.56 KCAL/MOL
REMARK 923 INTER-LIGAND FREE ENERGY PREDICTED BY IDOCK:   -4.36 KCAL/MOL
REMARK 924 INTRA-LIGAND FREE ENERGY PREDICTED BY IDOCK:    6.92 KCAL/MOL
REMARK 927      BINDING AFFINITY PREDICTED BY RF-SCORE:    0.00 PKD
ROOT
HETATM    1  C   UNL     1      -9.577   8.288  68.629  1.00  0.00    -0.149 C  
HETATM    2  N   UNL     1     -10.485   8.751  69.672  1.00  0.00    -0.217 NA 
HETATM    3  C   UNL     1     -10.670  10.100  69.511  1.00  0.00    -0.249 A  
HETATM    4  C   UNL     1     -11.394   7.872  70.379  1.00  0.00    -0.194 C  
HETATM    5  C   UNL     1     -11.505  10.851  70.328  1.00  0.00    -0.391 A  
HETATM    6  C   UNL     1     -11.644  12.233  70.202  1.00  0.00    -0.094 A  
HETATM    7  C   UNL     1     -10.915  12.910  69.190  1.00  0.00    -0.184 A  
HETATM    8  N   UNL     1      -7.733   9.891  65.802  1.00  0.00    -0.108 NA 
HETATM    9  H   UNL     1      -6.798   8.822  70.352  1.00  0.00     0.000 HD 
HETATM   10  C   UNL     1      -6.542   9.639  65.037  1.00  0.00    -0.091 C  
HETATM   11  C   UNL     1     -10.110  12.038  68.287  1.00  0.00    -0.201 A  
HETATM   12  C   UNL     1      -9.943  10.650  68.461  1.00  0.00    -0.176 A  
HETATM   13  O   UNL     1      -7.623   9.066  69.948  1.00  0.00    -0.058 OA 
HETATM   14  C   UNL     1      -8.167   7.870  69.320  1.00  0.00    -0.128 C  
HETATM   15  C   UNL     1      -7.940   9.154  67.013  1.00  0.00    -0.102 C  
HETATM   16  C   UNL     1      -7.112   7.255  68.288  1.00  0.00    -0.081 C  
HETATM   17  C   UNL     1      -9.364   9.489  67.576  1.00  0.00    -0.146 C  
HETATM   18  C   UNL     1      -7.643   7.513  66.860  1.00  0.00    -0.102 C  
HETATM   19  C   UNL     1      -6.611   7.248  65.754  1.00  0.00    -0.048 C  
HETATM   20  C   UNL     1     -10.054   9.660  66.180  1.00  0.00    -0.328 C  
HETATM   21  C   UNL     1      -6.197   8.178  64.916  1.00  0.00    -0.049 C  
HETATM   22  C   UNL     1      -8.984  10.322  65.255  1.00  0.00    -0.186 C  
ENDROOT
BRANCH   6  23
HETATM   23  O   UNL     1     -12.470  12.919  71.060  1.00  0.00    -0.371 OA 
HETATM   24  C   UNL     1     -13.136  12.180  72.085  1.00  0.00    -0.275 C  
ENDBRANCH   6  23
BRANCH   7  25
HETATM   25  C   UNL     1     -11.013  14.572  68.916  1.00  0.00    -0.268 C  
HETATM   26  C   UNL     1      -6.768  13.488  67.619  1.00  0.00    -0.167 C  
HETATM   27  C   UNL     1     -10.373  14.246  66.502  1.00  0.00    -0.278 A  
HETATM   28  C   UNL     1      -6.139  14.810  68.102  1.00  0.00    -0.146 C  
HETATM   29  N   UNL     1      -8.225  13.498  67.948  1.00  0.00    -0.154 NA 
HETATM   30  C   UNL     1     -11.120  14.174  65.256  1.00  0.00    -0.331 A  
HETATM   31  C   UNL     1      -7.005  15.889  67.926  1.00  0.00    -0.155 C  
HETATM   32  C   UNL     1     -11.310  14.625  67.457  1.00  0.00    -0.348 A  
HETATM   33  C   UNL     1      -8.931  13.778  66.646  1.00  0.00    -0.129 C  
HETATM   34  N   UNL     1     -12.520  14.872  66.883  1.00  0.00    -0.159 NA 
HETATM   35  C   UNL     1     -10.774  13.773  63.979  1.00  0.00     0.157 A  
HETATM   36  C   UNL     1      -8.330  14.388  69.126  1.00  0.00     0.056 C  
HETATM   37  C   UNL     1     -12.448  14.521  65.542  1.00  0.00    -0.247 A  
HETATM   38  C   UNL     1      -8.325  15.834  68.803  1.00  0.00    -0.195 C  
HETATM   39  H   UNL     1     -13.339  15.250  67.358  1.00  0.00     0.000 HD 
HETATM   40  C   UNL     1     -13.456  14.420  64.586  1.00  0.00     1.558 A  
HETATM   41  C   UNL     1      -9.896  15.976  68.836  1.00  0.00    -0.232 C  
HETATM   42  C   UNL     1     -11.770  13.654  63.001  1.00  0.00     0.755 A  
HETATM   43  C   UNL     1     -13.092  13.957  63.319  1.00  0.00     1.896 A  
BRANCH  25  44
HETATM   44  C   UNL     1     -12.032  15.036  69.989  1.00  0.00    -0.332 C  
HETATM   45  O   UNL     1     -13.246  14.890  69.978  1.00  0.00     0.011 OA 
BRANCH  44  46
HETATM   46  O   UNL     1     -11.298  15.522  71.048  1.00  0.00    -0.320 OA 
HETATM   47  C   UNL     1     -11.846  16.383  72.044  1.00  0.00    -0.388 C  
ENDBRANCH  44  46
ENDBRANCH  25  44
BRANCH  28  48
HETATM   48  C   UNL     1      -5.291  14.568  69.421  1.00  0.00    -0.089 C  
HETATM   49  C   UNL     1      -5.391  13.263  70.294  1.00  0.00    -0.115 C  
ENDBRANCH  28  48
ENDBRANCH   7  25
BRANCH  18  50
HETATM   50  C   UNL     1      -8.758   6.428  66.435  1.00  0.00    -0.140 C  
HETATM   51  C   UNL     1      -8.267   5.207  65.604  1.00  0.00    -0.119 C  
ENDBRANCH  18  50
BRANCH  16  52
HETATM   52  O   UNL     1      -5.780   7.890  68.378  1.00  0.00    -0.031 OA 
BRANCH  52  53
HETATM   53  C   UNL     1      -5.571   8.658  69.494  1.00  0.00    -0.030 C  
HETATM   54  C   UNL     1      -5.538  10.138  69.186  1.00  0.00    -0.038 C  
HETATM   55  O   UNL     1      -5.297   8.208  70.590  1.00  0.00    -0.025 OA 
ENDBRANCH  52  53
ENDBRANCH  16  52
BRANCH  14  56
HETATM   56  C   UNL     1      -8.303   6.772  70.366  1.00  0.00    -0.130 C  
HETATM   57  O   UNL     1      -8.262   5.562  70.150  1.00  0.00    -0.098 OA 
BRANCH  56  58
HETATM   58  O   UNL     1      -8.311   7.339  71.614  1.00  0.00    -0.108 OA 
HETATM   59  C   UNL     1      -7.370   6.829  72.554  1.00  0.00    -0.090 C  
ENDBRANCH  56  58
ENDBRANCH  14  56
TORSDOF 10
ENDMDL
MODEL       21
REMARK 921   NORMALIZED FREE ENERGY PREDICTED BY IDOCK:    3.00 KCAL/MOL
REMARK 922        TOTAL FREE ENERGY PREDICTED BY IDOCK:    2.80 KCAL/MOL
REMARK 923 INTER-LIGAND FREE ENERGY PREDICTED BY IDOCK:    1.06 KCAL/MOL
REMARK 924 INTRA-LIGAND FREE ENERGY PREDICTED BY IDOCK:    1.74 KCAL/MOL
REMARK 927      BINDING AFFINITY PREDICTED BY RF-SCORE:    0.00 PKD
ROOT
HETATM    1  C   UNL     1     -10.714  12.592  69.830  1.00  0.00     0.660 C  
HETATM    2  N   UNL     1     -11.421  11.480  70.455  1.00  0.00    -0.121 NA 
HETATM    3  C   UNL     1     -10.988  10.316  69.874  1.00  0.00    -0.303 A  
HETATM    4  C   UNL     1     -12.041  11.570  71.762  1.00  0.00     0.832 C  
HETATM    5  C   UNL     1     -11.447   9.063  70.261  1.00  0.00    -0.147 A  
HETATM    6  C   UNL     1     -11.053   7.885  69.628  1.00  0.00    -0.026 A  
HETATM    7  C   UNL     1     -10.135   7.956  68.547  1.00  0.00    -0.216 A  
HETATM    8  N   UNL     1      -8.155  12.935  67.127  1.00  0.00    -0.154 NA 
HETATM    9  H   UNL     1     -12.913  13.052  67.395  1.00  0.00     0.000 HD 
HETATM   10  C   UNL     1      -7.744  13.935  66.181  1.00  0.00     2.599 C  
HETATM   11  C   UNL     1      -9.609   9.318  68.241  1.00  0.00    -0.160 A  
HETATM   12  C   UNL     1     -10.057  10.502  68.859  1.00  0.00    -0.215 A  
HETATM   13  O   UNL     1     -12.293  12.553  67.914  1.00  0.00    -0.245 OA 
HETATM   14  C   UNL     1     -11.775  13.445  68.942  1.00  0.00    -0.328 C  
HETATM   15  C   UNL     1      -9.395  13.117  67.822  1.00  0.00    -0.206 C  
HETATM   16  C   UNL     1     -11.139  14.752  68.275  1.00  0.00    -0.274 C  
HETATM   17  C   UNL     1      -9.546  11.987  68.899  1.00  0.00     0.100 C  
HETATM   18  C   UNL     1      -9.604  14.663  68.432  1.00  0.00    -0.217 C  
HETATM   19  C   UNL     1      -8.830  15.687  67.590  1.00  0.00    -0.181 C  
HETATM   20  C   UNL     1      -8.021  11.883  69.238  1.00  0.00     0.389 C  
HETATM   21  C   UNL     1      -7.963  15.348  66.658  1.00  0.00    -0.068 C  
HETATM   22  C   UNL     1      -7.267  12.110  67.889  1.00  0.00    -0.102 C  
ENDROOT
BRANCH   6  23
HETATM   23  O   UNL     1     -11.563   6.679  70.045  1.00  0.00    -0.380 OA 
HETATM   24  C   UNL     1     -11.844   6.515  71.437  1.00  0.00    -0.329 C  
ENDBRANCH   6  23
BRANCH   7  25
HETATM   25  C   UNL     1      -9.560   6.606  67.714  1.00  0.00    -0.129 C  
HETATM   26  C   UNL     1      -5.824   9.141  68.420  1.00  0.00    -0.041 C  
HETATM   27  C   UNL     1      -7.921   6.121  69.564  1.00  0.00    -0.107 A  
HETATM   28  C   UNL     1      -5.155   8.767  67.084  1.00  0.00    -0.033 C  
HETATM   29  N   UNL     1      -7.160   8.475  68.495  1.00  0.00    -0.072 NA 
HETATM   30  C   UNL     1      -7.910   5.209  70.697  1.00  0.00    -0.080 A  
HETATM   31  C   UNL     1      -5.428   7.449  66.720  1.00  0.00    -0.024 C  
HETATM   32  C   UNL     1      -9.041   5.759  68.825  1.00  0.00    -0.115 A  
HETATM   33  C   UNL     1      -6.979   7.312  69.436  1.00  0.00    -0.062 C  
HETATM   34  N   UNL     1      -9.646   4.663  69.361  1.00  0.00    -0.170 NA 
HETATM   35  C   UNL     1      -7.108   5.118  71.819  1.00  0.00    -0.074 A  
HETATM   36  C   UNL     1      -7.567   8.310  67.082  1.00  0.00    -0.093 C  
HETATM   37  C   UNL     1      -9.016   4.357  70.559  1.00  0.00    -0.102 A  
HETATM   38  C   UNL     1      -6.951   7.147  66.400  1.00  0.00    -0.069 C  
HETATM   39  H   UNL     1     -10.428   4.154  68.951  1.00  0.00     0.000 HD 
HETATM   40  C   UNL     1      -9.372   3.449  71.554  1.00  0.00    -0.210 A  
HETATM   41  C   UNL     1      -8.186   6.195  66.633  1.00  0.00    -0.110 C  
HETATM   42  C   UNL     1      -7.449   4.220  72.839  1.00  0.00    -0.079 A  
HETATM   43  C   UNL     1      -8.579   3.417  72.704  1.00  0.00    -0.090 A  
BRANCH  25  44
HETATM   44  C   UNL     1     -10.780   6.191  66.853  1.00  0.00    -0.340 C  
HETATM   45  O   UNL     1     -11.632   6.920  66.365  1.00  0.00     0.949 OA 
BRANCH  44  46
HETATM   46  O   UNL     1     -10.652   4.843  66.607  1.00  0.00    -0.256 OA 
HETATM   47  C   UNL     1     -10.656   4.286  65.294  1.00  0.00    -0.139 C  
ENDBRANCH  44  46
ENDBRANCH  25  44
BRANCH  28  48
HETATM   48  C   UNL     1      -5.217   9.990  66.074  1.00  0.00    -0.044 C  
HETATM   49  C   UNL     1      -6.397  10.223  65.060  1.00  0.00    -0.123 C  
ENDBRANCH  28  48
ENDBRANCH   7  25
BRANCH  18  50
HETATM   50  C   UNL     1      -9.128  15.126  69.901  1.00  0.00     0.148 C  
HETATM   51  C   UNL     1      -7.618  14.950  70.237  1.00  0.00     0.505 C  
ENDBRANCH  18  50
BRANCH  16  52
HETATM   52  O   UNL     1     -11.423  14.857  66.828  1.00  0.00    -0.347 OA 
BRANCH  52  53
HETATM   53  C   UNL     1     -11.346  16.122  66.305  1.00  0.00     0.379 C  
HETATM   54  C   UNL     1     -11.301  16.127  64.794  1.00  0.00    -0.253 C  
HETATM   55  O   UNL     1     -11.186  17.126  66.972  1.00  0.00     0.132 OA 
ENDBRANCH  52  53
ENDBRANCH  16  52
BRANCH  14  56
HETATM   56  C   UNL     1     -12.936  14.005  69.752  1.00  0.00     0.503 C  
HETATM   57  O   UNL     1     -13.861  13.351  70.233  1.00  0.00     1.320 OA 
BRANCH  56  58
HETATM   58  O   UNL     1     -12.705  15.331  70.009  1.00  0.00    -0.276 OA 
HETATM   59  C   UNL     1     -13.104  15.813  71.289  1.00  0.00    -0.340 C  
ENDBRANCH  56  58
ENDBRANCH  14  56
TORSDOF 10
ENDMDL
MODEL       22
REMARK 921   NORMALIZED FREE ENERGY PREDICTED BY IDOCK:    3.19 KCAL/MOL
REMARK 922        TOTAL FREE ENERGY PREDICTED BY IDOCK:    3.10 KCAL/MOL
REMARK 923 INTER-LIGAND FREE ENERGY PREDICTED BY IDOCK:    0.34 KCAL/MOL
REMARK 924 INTRA-LIGAND FREE ENERGY PREDICTED BY IDOCK:    2.76 KCAL/MOL
REMARK 927      BINDING AFFINITY PREDICTED BY RF-SCORE:    0.00 PKD
ROOT
HETATM    1  C   UNL     1     -10.275  13.844  66.966  1.00  0.00    -0.254 C  
HETATM    2  N   UNL     1      -9.789  13.041  65.850  1.00  0.00    -0.265 NA 
HETATM    3  C   UNL     1      -9.669  11.743  66.277  1.00  0.00    -0.222 A  
HETATM    4  C   UNL     1      -9.923  13.445  64.465  1.00  0.00    -0.048 C  
HETATM    5  C   UNL     1      -9.253  10.711  65.446  1.00  0.00    -0.226 A  
HETATM    6  C   UNL     1      -9.071   9.403  65.897  1.00  0.00    -0.195 A  
HETATM    7  C   UNL     1      -9.331   9.101  67.259  1.00  0.00    -0.166 A  
HETATM    8  N   UNL     1     -11.178  13.176  70.531  1.00  0.00     0.698 NA 
HETATM    9  H   UNL     1      -7.278  14.575  68.174  1.00  0.00     0.000 HD 
HETATM   10  C   UNL     1     -11.234  13.913  71.763  1.00  0.00     2.390 C  
HETATM   11  C   UNL     1      -9.864  10.230  68.076  1.00  0.00    -0.171 A  
HETATM   12  C   UNL     1      -9.993  11.554  67.615  1.00  0.00    -0.199 A  
HETATM   13  O   UNL     1      -7.976  13.996  67.892  1.00  0.00    -0.130 OA 
HETATM   14  C   UNL     1      -9.080  14.834  67.448  1.00  0.00    -0.195 C  
HETATM   15  C   UNL     1     -10.497  13.760  69.413  1.00  0.00     0.171 C  
HETATM   16  C   UNL     1      -9.519  15.838  68.613  1.00  0.00    -0.208 C  
HETATM   17  C   UNL     1     -10.705  12.846  68.156  1.00  0.00    -0.258 C  
HETATM   18  C   UNL     1     -10.889  15.367  69.152  1.00  0.00    -0.249 C  
HETATM   19  C   UNL     1     -11.309  16.044  70.465  1.00  0.00    -0.420 C  
HETATM   20  C   UNL     1     -12.154  12.384  68.530  1.00  0.00    -0.126 C  
HETATM   21  C   UNL     1     -11.528  15.379  71.581  1.00  0.00    -0.492 C  
HETATM   22  C   UNL     1     -12.168  12.243  70.085  1.00  0.00    -0.226 C  
ENDROOT
BRANCH   6  23
HETATM   23  O   UNL     1      -8.634   8.433  65.027  1.00  0.00    -0.169 OA 
HETATM   24  C   UNL     1      -8.644   8.731  63.629  1.00  0.00    -0.041 C  
ENDBRANCH   6  23
BRANCH   7  25
HETATM   25  C   UNL     1      -9.175   7.558  67.923  1.00  0.00    -0.137 C  
HETATM   26  C   UNL     1      -5.304   8.142  65.566  1.00  0.00    -0.032 C  
HETATM   27  C   UNL     1      -7.004   8.213  69.020  1.00  0.00    -0.061 A  
HETATM   28  C   UNL     1      -5.189   6.668  65.131  1.00  0.00    -0.025 C  
HETATM   29  N   UNL     1      -6.556   8.314  66.364  1.00  0.00    -0.054 NA 
HETATM   30  C   UNL     1      -6.633   8.637  70.361  1.00  0.00    -0.037 A  
HETATM   31  C   UNL     1      -5.649   5.800  66.120  1.00  0.00    -0.013 C  
HETATM   32  C   UNL     1      -8.335   7.825  69.124  1.00  0.00    -0.134 A  
HETATM   33  C   UNL     1      -6.109   8.400  67.801  1.00  0.00    -0.048 C  
HETATM   34  N   UNL     1      -8.763   7.893  70.415  1.00  0.00    -0.136 NA 
HETATM   35  C   UNL     1      -5.483   9.203  70.879  1.00  0.00    -0.037 A  
HETATM   36  C   UNL     1      -7.458   7.252  65.865  1.00  0.00    -0.080 C  
HETATM   37  C   UNL     1      -7.758   8.468  71.180  1.00  0.00    -0.103 A  
HETATM   38  C   UNL     1      -7.198   5.910  66.438  1.00  0.00    -0.077 C  
HETATM   39  H   UNL     1      -9.668   7.575  70.761  1.00  0.00     0.000 HD 
HETATM   40  C   UNL     1      -7.778   8.910  72.501  1.00  0.00     0.250 A  
HETATM   41  C   UNL     1      -8.315   6.027  67.545  1.00  0.00    -0.108 C  
HETATM   42  C   UNL     1      -5.480   9.665  72.202  1.00  0.00    -0.005 A  
HETATM   43  C   UNL     1      -6.624   9.531  72.985  1.00  0.00     0.856 A  
BRANCH  25  44
HETATM   44  C   UNL     1     -10.646   7.080  68.026  1.00  0.00    -0.207 C  
HETATM   45  O   UNL     1     -11.327   6.563  67.152  1.00  0.00    -0.333 OA 
BRANCH  44  46
HETATM   46  O   UNL     1     -11.013   7.211  69.347  1.00  0.00    -0.225 OA 
HETATM   47  C   UNL     1     -12.129   6.528  69.916  1.00  0.00     0.239 C  
ENDBRANCH  44  46
ENDBRANCH  25  44
BRANCH  28  48
HETATM   48  C   UNL     1      -5.547   6.518  63.592  1.00  0.00    -0.030 C  
HETATM   49  C   UNL     1      -5.186   7.597  62.505  1.00  0.00    -0.046 C  
ENDBRANCH  28  48
ENDBRANCH   7  25
BRANCH  18  50
HETATM   50  C   UNL     1     -12.100  15.860  68.210  1.00  0.00     0.290 C  
HETATM   51  C   UNL     1     -12.270  17.398  68.033  1.00  0.00     2.622 C  
ENDBRANCH  18  50
BRANCH  16  52
HETATM   52  O   UNL     1      -8.580  15.842  69.755  1.00  0.00    -0.136 OA 
BRANCH  52  53
HETATM   53  C   UNL     1      -7.502  16.679  69.625  1.00  0.00     0.271 C  
HETATM   54  C   UNL     1      -6.191  15.997  69.946  1.00  0.00    -0.154 C  
HETATM   55  O   UNL     1      -7.588  17.874  69.418  1.00  0.00    -0.012 OA 
ENDBRANCH  52  53
ENDBRANCH  16  52
BRANCH  14  56
HETATM   56  C   UNL     1      -8.589  15.773  66.355  1.00  0.00    -0.311 C  
HETATM   57  O   UNL     1      -9.295  16.505  65.663  1.00  0.00    -0.490 OA 
BRANCH  56  58
HETATM   58  O   UNL     1      -7.219  15.803  66.372  1.00  0.00     0.012 OA 
HETATM   59  C   UNL     1      -6.607  17.090  66.351  1.00  0.00    -0.166 C  
ENDBRANCH  56  58
ENDBRANCH  14  56
TORSDOF 10
ENDMDL
MODEL       23
REMARK 921   NORMALIZED FREE ENERGY PREDICTED BY IDOCK:    3.24 KCAL/MOL
REMARK 922        TOTAL FREE ENERGY PREDICTED BY IDOCK:    3.18 KCAL/MOL
REMARK 923 INTER-LIGAND FREE ENERGY PREDICTED BY IDOCK:    2.30 KCAL/MOL
REMARK 924 INTRA-LIGAND FREE ENERGY PREDICTED BY IDOCK:    0.88 KCAL/MOL
REMARK 927      BINDING AFFINITY PREDICTED BY RF-SCORE:    0.00 PKD
ROOT
HETATM    1  C   UNL     1      -7.139  16.367  68.092  1.00  0.00    -0.140 C  
HETATM    2  N   UNL     1      -6.519  15.306  68.878  1.00  0.00    -0.100 NA 
HETATM    3  C   UNL     1      -7.271  14.169  68.732  1.00  0.00    -0.120 A  
HETATM    4  C   UNL     1      -5.127  15.328  69.280  1.00  0.00    -0.092 C  
HETATM    5  C   UNL     1      -6.939  12.962  69.332  1.00  0.00     0.107 A  
HETATM    6  C   UNL     1      -7.738  11.822  69.234  1.00  0.00     0.224 A  
HETATM    7  C   UNL     1      -8.940  11.886  68.481  1.00  0.00    -0.115 A  
HETATM    8  N   UNL     1     -10.171  16.648  65.925  1.00  0.00    -0.429 NA 
HETATM    9  H   UNL     1      -9.133  17.441  70.510  1.00  0.00     0.000 HD 
HETATM   10  C   UNL     1     -11.069  17.683  65.492  1.00  0.00     0.436 C  
HETATM   11  C   UNL     1      -9.193  13.181  67.785  1.00  0.00    -0.203 A  
HETATM   12  C   UNL     1      -8.400  14.335  67.937  1.00  0.00    -0.162 A  
HETATM   13  O   UNL     1      -8.771  16.797  69.913  1.00  0.00     0.708 OA 
HETATM   14  C   UNL     1      -7.759  17.470  69.112  1.00  0.00    -0.042 C  
HETATM   15  C   UNL     1      -9.272  16.927  67.005  1.00  0.00    -0.234 C  
HETATM   16  C   UNL     1      -8.389  18.738  68.369  1.00  0.00    -0.342 C  
HETATM   17  C   UNL     1      -8.299  15.711  67.186  1.00  0.00    -0.237 C  
HETATM   18  C   UNL     1      -8.490  18.402  66.864  1.00  0.00    -0.272 C  
HETATM   19  C   UNL     1      -9.342  19.394  66.060  1.00  0.00    -0.224 C  
HETATM   20  C   UNL     1      -8.220  15.340  65.667  1.00  0.00     2.302 C  
HETATM   21  C   UNL     1     -10.429  19.043  65.403  1.00  0.00     0.215 C  
HETATM   22  C   UNL     1      -9.644  15.613  65.087  1.00  0.00     0.289 C  
ENDROOT
BRANCH   6  23
HETATM   23  O   UNL     1      -7.362  10.665  69.873  1.00  0.00    -0.150 OA 
HETATM   24  C   UNL     1      -5.980  10.493  70.192  1.00  0.00    -0.091 C  
ENDBRANCH   6  23
BRANCH   7  25
HETATM   25  C   UNL     1      -9.980  10.576  68.264  1.00  0.00    -0.176 C  
HETATM   26  C   UNL     1      -9.291  12.153  64.030  1.00  0.00     0.318 C  
HETATM   27  C   UNL     1      -8.354   9.506  66.665  1.00  0.00    -0.116 A  
HETATM   28  C   UNL     1     -10.717  11.839  63.537  1.00  0.00    -0.501 C  
HETATM   29  N   UNL     1      -9.185  11.776  65.473  1.00  0.00    -0.124 NA 
HETATM   30  C   UNL     1      -7.349   8.462  66.788  1.00  0.00    -0.083 A  
HETATM   31  C   UNL     1     -11.217  10.670  64.112  1.00  0.00     1.053 C  
HETATM   32  C   UNL     1      -9.032   9.493  67.878  1.00  0.00    -0.123 A  
HETATM   33  C   UNL     1      -8.414  10.480  65.495  1.00  0.00    -0.173 C  
HETATM   34  N   UNL     1      -8.586   8.483  68.675  1.00  0.00    -0.134 NA 
HETATM   35  C   UNL     1      -6.320   8.051  65.961  1.00  0.00    -0.046 A  
HETATM   36  C   UNL     1     -10.567  11.899  65.987  1.00  0.00    -0.265 C  
HETATM   37  C   UNL     1      -7.495   7.888  68.059  1.00  0.00    -0.108 A  
HETATM   38  C   UNL     1     -11.439  10.740  65.680  1.00  0.00     0.749 C  
HETATM   39  H   UNL     1      -8.987   8.210  69.573  1.00  0.00     0.000 HD 
HETATM   40  C   UNL     1      -6.594   6.944  68.546  1.00  0.00    -0.058 A  
HETATM   41  C   UNL     1     -11.219  10.043  67.078  1.00  0.00     0.194 C  
HETATM   42  C   UNL     1      -5.394   7.110  66.431  1.00  0.00    -0.023 A  
HETATM   43  C   UNL     1      -5.530   6.586  67.714  1.00  0.00    -0.005 A  
BRANCH  25  44
HETATM   44  C   UNL     1     -10.778  10.549  69.593  1.00  0.00    -0.259 C  
HETATM   45  O   UNL     1     -11.432  11.455  70.089  1.00  0.00    -0.288 OA 
BRANCH  44  46
HETATM   46  O   UNL     1     -10.738   9.252  70.053  1.00  0.00    -0.215 OA 
HETATM   47  C   UNL     1     -11.513   8.794  71.159  1.00  0.00    -0.286 C  
ENDBRANCH  44  46
ENDBRANCH  25  44
BRANCH  28  48
HETATM   48  C   UNL     1     -11.557  13.177  63.390  1.00  0.00    -0.306 C  
HETATM   49  C   UNL     1     -13.124  13.240  63.518  1.00  0.00     0.959 C  
ENDBRANCH  28  48
ENDBRANCH   7  25
BRANCH  18  50
HETATM   50  C   UNL     1      -7.079  18.608  66.113  1.00  0.00    -0.294 C  
HETATM   51  C   UNL     1      -6.929  19.890  65.242  1.00  0.00    -0.273 C  
ENDBRANCH  18  50
BRANCH  16  52
HETATM   52  O   UNL     1      -9.755  19.059  68.836  1.00  0.00    -0.388 OA 
BRANCH  52  53
HETATM   53  C   UNL     1     -10.073  20.392  68.848  1.00  0.00     0.089 C  
HETATM   54  C   UNL     1      -9.089  21.233  68.067  1.00  0.00     0.558 C  
HETATM   55  O   UNL     1     -10.960  20.876  69.525  1.00  0.00     0.556 OA 
ENDBRANCH  52  53
ENDBRANCH  16  52
BRANCH  14  56
HETATM   56  C   UNL     1      -6.722  18.095  70.036  1.00  0.00     0.401 C  
HETATM   57  O   UNL     1      -6.224  17.561  71.026  1.00  0.00     0.867 OA 
BRANCH  56  58
HETATM   58  O   UNL     1      -6.302  19.284  69.499  1.00  0.00    -0.286 OA 
HETATM   59  C   UNL     1      -6.053  20.347  70.416  1.00  0.00    -0.245 C  
ENDBRANCH  56  58
ENDBRANCH  14  56
TORSDOF 10
ENDMDL
MODEL       24
REMARK 921   NORMALIZED FREE ENERGY PREDICTED BY IDOCK:    3.94 KCAL/MOL
REMARK 922        TOTAL FREE ENERGY PREDICTED BY IDOCK:    4.28 KCAL/MOL
REMARK 923 INTER-LIGAND FREE ENERGY PREDICTED BY IDOCK:    0.24 KCAL/MOL
REMARK 924 INTRA-LIGAND FREE ENERGY PREDICTED BY IDOCK:    4.05 KCAL/MOL
REMARK 927      BINDING AFFINITY PREDICTED BY RF-SCORE:    0.00 PKD
ROOT
HETATM    1  C   UNL     1      -8.938  11.623  66.929  1.00  0.00    -0.191 C  
HETATM    2  N   UNL     1      -9.828  12.445  66.117  1.00  0.00    -0.249 NA 
HETATM    3  C   UNL     1      -9.636  13.757  66.466  1.00  0.00    -0.285 A  
HETATM    4  C   UNL     1     -10.388  12.000  64.857  1.00  0.00    -0.278 C  
HETATM    5  C   UNL     1     -10.313  14.807  65.858  1.00  0.00    -0.335 A  
HETATM    6  C   UNL     1     -10.164  16.135  66.256  1.00  0.00    -0.320 A  
HETATM    7  C   UNL     1      -9.275  16.440  67.320  1.00  0.00    -0.224 A  
HETATM    8  N   UNL     1      -6.426  12.277  69.618  1.00  0.00    -0.107 NA 
HETATM    9  H   UNL     1     -11.069  11.212  69.433  1.00  0.00     0.000 HD 
HETATM   10  C   UNL     1      -5.856  11.566  70.729  1.00  0.00    -0.021 C  
HETATM   11  C   UNL     1      -8.509  15.283  67.868  1.00  0.00    -0.151 A  
HETATM   12  C   UNL     1      -8.710  13.943  67.486  1.00  0.00    -0.194 A  
HETATM   13  O   UNL     1     -10.542  11.715  68.823  1.00  0.00    -0.206 OA 
HETATM   14  C   UNL     1      -9.840  10.764  67.973  1.00  0.00    -0.165 C  
HETATM   15  C   UNL     1      -7.593  11.738  68.984  1.00  0.00     0.004 C  
HETATM   16  C   UNL     1      -8.985   9.747  68.864  1.00  0.00    -0.144 C  
HETATM   17  C   UNL     1      -7.928  12.600  67.718  1.00  0.00    -0.158 C  
HETATM   18  C   UNL     1      -7.491  10.095  68.675  1.00  0.00    -0.084 C  
HETATM   19  C   UNL     1      -6.559   9.410  69.684  1.00  0.00    -0.044 C  
HETATM   20  C   UNL     1      -6.442  12.927  67.346  1.00  0.00    -0.126 C  
HETATM   21  C   UNL     1      -5.793  10.074  70.526  1.00  0.00    -0.084 C  
HETATM   22  C   UNL     1      -5.692  13.100  68.705  1.00  0.00    -0.073 C  
ENDROOT
BRANCH   6  23
HETATM   23  O   UNL     1     -10.882  17.123  65.627  1.00  0.00    -0.287 OA 
HETATM   24  C   UNL     1     -11.494  16.814  64.374  1.00  0.00     0.475 C  
ENDBRANCH   6  23
BRANCH   7  25
HETATM   25  C   UNL     1      -8.985  18.005  67.880  1.00  0.00    -0.265 C  
HETATM   26  C   UNL     1      -5.323  15.644  69.258  1.00  0.00    -0.101 C  
HETATM   27  C   UNL     1      -6.786  18.073  66.653  1.00  0.00    -0.239 A  
HETATM   28  C   UNL     1      -5.154  16.419  70.578  1.00  0.00    -0.201 C  
HETATM   29  N   UNL     1      -6.526  16.167  68.541  1.00  0.00    -0.114 NA 
HETATM   30  C   UNL     1      -6.350  18.634  65.385  1.00  0.00    -0.314 A  
HETATM   31  C   UNL     1      -5.494  17.764  70.435  1.00  0.00    -0.255 C  
HETATM   32  C   UNL     1      -8.082  18.545  66.825  1.00  0.00    -0.254 A  
HETATM   33  C   UNL     1      -5.988  17.034  67.431  1.00  0.00    -0.145 C  
HETATM   34  N   UNL     1      -8.425  19.405  65.826  1.00  0.00    -0.379 NA 
HETATM   35  C   UNL     1      -5.202  18.467  64.632  1.00  0.00    -0.119 A  
HETATM   36  C   UNL     1      -7.397  16.688  69.618  1.00  0.00     0.213 C  
HETATM   37  C   UNL     1      -7.404  19.411  64.884  1.00  0.00     0.863 A  
HETATM   38  C   UNL     1      -7.022  18.035  70.110  1.00  0.00     0.984 C  
HETATM   39  H   UNL     1      -9.284  19.951  65.777  1.00  0.00     0.000 HD 
HETATM   40  C   UNL     1      -7.360  19.980  63.614  1.00  0.00     2.655 A  
HETATM   41  C   UNL     1      -8.065  18.795  69.205  1.00  0.00    -0.065 C  
HETATM   42  C   UNL     1      -5.135  19.021  63.347  1.00  0.00    -0.286 A  
HETATM   43  C   UNL     1      -6.214  19.749  62.850  1.00  0.00     0.524 A  
BRANCH  25  44
HETATM   44  C   UNL     1     -10.416  18.555  68.112  1.00  0.00    -0.325 C  
HETATM   45  O   UNL     1     -11.133  19.132  67.307  1.00  0.00    -0.417 OA 
BRANCH  44  46
HETATM   46  O   UNL     1     -10.800  18.143  69.368  1.00  0.00     0.491 OA 
HETATM   47  C   UNL     1     -11.393  16.870  69.622  1.00  0.00     0.435 C  
ENDBRANCH  44  46
ENDBRANCH  25  44
BRANCH  28  48
HETATM   48  C   UNL     1      -5.606  15.522  71.807  1.00  0.00     0.417 C  
HETATM   49  C   UNL     1      -5.390  13.965  71.875  1.00  0.00    -0.219 C  
ENDBRANCH  28  48
ENDBRANCH   7  25
BRANCH  18  50
HETATM   50  C   UNL     1      -6.902   9.467  67.312  1.00  0.00    -0.084 C  
HETATM   51  C   UNL     1      -6.876   7.913  67.210  1.00  0.00    -0.070 C  
ENDBRANCH  18  50
BRANCH  16  52
HETATM   52  O   UNL     1      -9.279   9.860  70.309  1.00  0.00    -0.215 OA 
BRANCH  52  53
HETATM   53  C   UNL     1     -10.307   9.075  70.761  1.00  0.00    -0.243 C  
HETATM   54  C   UNL     1      -9.988   7.599  70.694  1.00  0.00    -0.183 C  
HETATM   55  O   UNL     1     -11.411   9.497  71.050  1.00  0.00    -0.291 OA 
ENDBRANCH  52  53
ENDBRANCH  16  52
BRANCH  14  56
HETATM   56  C   UNL     1     -10.855   9.854  67.295  1.00  0.00    -0.199 C  
HETATM   57  O   UNL     1     -12.076   9.906  67.434  1.00  0.00     1.703 OA 
BRANCH  56  58
HETATM   58  O   UNL     1     -10.210   9.072  66.372  1.00  0.00    -0.288 OA 
HETATM   59  C   UNL     1     -10.558   7.690  66.350  1.00  0.00     0.470 C  
ENDBRANCH  56  58
ENDBRANCH  14  56
TORSDOF 10
ENDMDL
MODEL       25
REMARK 921   NORMALIZED FREE ENERGY PREDICTED BY IDOCK:    4.54 KCAL/MOL
REMARK 922        TOTAL FREE ENERGY PREDICTED BY IDOCK:    5.24 KCAL/MOL
REMARK 923 INTER-LIGAND FREE ENERGY PREDICTED BY IDOCK:    5.78 KCAL/MOL
REMARK 924 INTRA-LIGAND FREE ENERGY PREDICTED BY IDOCK:   -0.55 KCAL/MOL
REMARK 927      BINDING AFFINITY PREDICTED BY RF-SCORE:    0.00 PKD
ROOT
HETATM    1  C   UNL     1      -8.033   9.598  66.720  1.00  0.00    -0.105 C  
HETATM    2  N   UNL     1      -8.867  10.516  65.952  1.00  0.00    -0.159 NA 
HETATM    3  C   UNL     1      -9.103  11.626  66.722  1.00  0.00    -0.186 A  
HETATM    4  C   UNL     1      -8.964  10.478  64.507  1.00  0.00    -0.209 C  
HETATM    5  C   UNL     1      -9.847  12.711  66.275  1.00  0.00    -0.266 A  
HETATM    6  C   UNL     1     -10.139  13.812  67.080  1.00  0.00    -0.241 A  
HETATM    7  C   UNL     1      -9.650  13.840  68.412  1.00  0.00    -0.206 A  
HETATM    8  N   UNL     1      -6.520   9.603  70.137  1.00  0.00    -0.064 NA 
HETATM    9  H   UNL     1     -10.550   7.997  68.162  1.00  0.00     0.000 HD 
HETATM   10  C   UNL     1      -6.086   8.632  71.103  1.00  0.00    -0.043 C  
HETATM   11  C   UNL     1      -8.781  12.691  68.802  1.00  0.00     0.169 A  
HETATM   12  C   UNL     1      -8.539  11.566  67.991  1.00  0.00    -0.150 A  
HETATM   13  O   UNL     1     -10.029   8.759  67.934  1.00  0.00    -0.169 OA 
HETATM   14  C   UNL     1      -8.923   8.296  67.110  1.00  0.00    -0.138 C  
HETATM   15  C   UNL     1      -7.317   9.162  69.031  1.00  0.00    -0.073 C  
HETATM   16  C   UNL     1      -8.092   7.166  67.878  1.00  0.00    -0.119 C  
HETATM   17  C   UNL     1      -7.529  10.364  68.046  1.00  0.00    -0.090 C  
HETATM   18  C   UNL     1      -6.734   7.777  68.292  1.00  0.00    -0.066 C  
HETATM   19  C   UNL     1      -5.943   6.921  69.291  1.00  0.00    -0.019 C  
HETATM   20  C   UNL     1      -6.129  11.020  68.287  1.00  0.00    -0.049 C  
HETATM   21  C   UNL     1      -5.604   7.342  70.492  1.00  0.00    -0.024 C  
HETATM   22  C   UNL     1      -5.810  10.800  69.800  1.00  0.00    -0.063 C  
ENDROOT
BRANCH   6  23
HETATM   23  O   UNL     1     -10.900  14.841  66.583  1.00  0.00    -0.307 OA 
HETATM   24  C   UNL     1     -10.712  15.216  65.217  1.00  0.00    -0.404 C  
ENDBRANCH   6  23
BRANCH   7  25
HETATM   25  C   UNL     1      -9.910  15.121  69.479  1.00  0.00    -0.191 C  
HETATM   26  C   UNL     1      -5.417  14.339  69.768  1.00  0.00    -0.096 C  
HETATM   27  C   UNL     1      -8.207  16.524  68.263  1.00  0.00    -0.185 A  
HETATM   28  C   UNL     1      -5.320  14.671  71.270  1.00  0.00    -0.144 C  
HETATM   29  N   UNL     1      -6.842  14.462  69.337  1.00  0.00    -0.129 NA 
HETATM   30  C   UNL     1      -8.288  17.573  67.260  1.00  0.00    -0.225 A  
HETATM   31  C   UNL     1      -6.192  15.698  71.629  1.00  0.00     1.384 C  
HETATM   32  C   UNL     1      -9.523  16.296  68.647  1.00  0.00    -0.228 A  
HETATM   33  C   UNL     1      -6.925  15.767  68.586  1.00  0.00    -0.124 C  
HETATM   34  N   UNL     1     -10.369  17.170  68.035  1.00  0.00    -0.336 NA 
HETATM   35  C   UNL     1      -7.340  18.168  66.448  1.00  0.00    -0.285 A  
HETATM   36  C   UNL     1      -7.622  14.192  70.565  1.00  0.00     1.596 C  
HETATM   37  C   UNL     1      -9.641  17.911  67.114  1.00  0.00    -0.280 A  
HETATM   38  C   UNL     1      -7.731  15.347  71.488  1.00  0.00     3.880 C  
HETATM   39  H   UNL     1     -11.367  17.264  68.221  1.00  0.00     0.000 HD 
HETATM   40  C   UNL     1     -10.077  18.793  66.129  1.00  0.00    -0.421 A  
HETATM   41  C   UNL     1      -9.146  15.798  70.957  1.00  0.00     2.970 C  
HETATM   42  C   UNL     1      -7.752  19.052  65.442  1.00  0.00     0.498 A  
HETATM   43  C   UNL     1      -9.106  19.337  65.283  1.00  0.00     1.530 A  
BRANCH  25  44
HETATM   44  C   UNL     1     -11.366  14.881  69.953  1.00  0.00    -0.277 C  
HETATM   45  O   UNL     1     -12.372  15.486  69.612  1.00  0.00    -0.313 OA 
BRANCH  44  46
HETATM   46  O   UNL     1     -11.346  13.746  70.733  1.00  0.00     0.144 OA 
HETATM   47  C   UNL     1     -12.503  12.948  70.975  1.00  0.00    -0.283 C  
ENDBRANCH  44  46
ENDBRANCH  25  44
BRANCH  28  48
HETATM   48  C   UNL     1      -5.126  13.344  72.117  1.00  0.00    -0.133 C  
HETATM   49  C   UNL     1      -5.339  13.266  73.674  1.00  0.00     0.158 C  
ENDBRANCH  28  48
ENDBRANCH   7  25
BRANCH  18  50
HETATM   50  C   UNL     1      -5.685   7.779  67.068  1.00  0.00    -0.032 C  
HETATM   51  C   UNL     1      -5.276   6.392  66.493  1.00  0.00    -0.013 C  
ENDBRANCH  18  50
BRANCH  16  52
HETATM   52  O   UNL     1      -8.756   6.703  69.115  1.00  0.00    -0.129 OA 
BRANCH  52  53
HETATM   53  C   UNL     1      -9.132   5.385  69.121  1.00  0.00    -0.107 C  
HETATM   54  C   UNL     1     -10.500   5.171  69.729  1.00  0.00    -0.274 C  
HETATM   55  O   UNL     1      -8.401   4.465  68.808  1.00  0.00    -0.083 OA 
ENDBRANCH  52  53
ENDBRANCH  16  52
BRANCH  14  56
HETATM   56  C   UNL     1      -9.475   7.552  65.901  1.00  0.00     0.161 C  
HETATM   57  O   UNL     1      -8.823   7.169  64.931  1.00  0.00     0.188 OA 
BRANCH  56  58
HETATM   58  O   UNL     1     -10.785   7.224  66.136  1.00  0.00     0.562 OA 
HETATM   59  C   UNL     1     -11.038   5.908  66.620  1.00  0.00    -0.022 C  
ENDBRANCH  56  58
ENDBRANCH  14  56
TORSDOF 10
ENDMDL
MODEL       26
REMARK 921   NORMALIZED FREE ENERGY PREDICTED BY IDOCK:    4.59 KCAL/MOL
REMARK 922        TOTAL FREE ENERGY PREDICTED BY IDOCK:    5.32 KCAL/MOL
REMARK 923 INTER-LIGAND FREE ENERGY PREDICTED BY IDOCK:    2.53 KCAL/MOL
REMARK 924 INTRA-LIGAND FREE ENERGY PREDICTED BY IDOCK:    2.79 KCAL/MOL
REMARK 927      BINDING AFFINITY PREDICTED BY RF-SCORE:    0.00 PKD
ROOT
HETATM    1  C   UNL     1     -11.452  12.889  66.910  1.00  0.00    -0.341 C  
HETATM    2  N   UNL     1     -11.241  11.760  66.010  1.00  0.00    -0.318 NA 
HETATM    3  C   UNL     1     -10.512  10.810  66.678  1.00  0.00    -0.246 A  
HETATM    4  C   UNL     1     -12.080  11.497  64.858  1.00  0.00     0.446 C  
HETATM    5  C   UNL     1     -10.161   9.592  66.112  1.00  0.00    -0.326 A  
HETATM    6  C   UNL     1      -9.367   8.652  66.770  1.00  0.00    -0.179 A  
HETATM    7  C   UNL     1      -8.902   8.939  68.080  1.00  0.00    -0.133 A  
HETATM    8  N   UNL     1     -10.465  13.715  70.418  1.00  0.00     1.561 NA 
HETATM    9  H   UNL     1      -8.681  14.499  66.068  1.00  0.00     0.000 HD 
HETATM   10  C   UNL     1     -10.243  14.898  71.204  1.00  0.00     1.220 C  
HETATM   11  C   UNL     1      -9.391  10.220  68.668  1.00  0.00    -0.162 A  
HETATM   12  C   UNL     1     -10.151  11.178  67.969  1.00  0.00    -0.191 A  
HETATM   13  O   UNL     1      -9.186  13.760  66.387  1.00  0.00    -0.232 OA 
HETATM   14  C   UNL     1     -10.588  14.152  66.363  1.00  0.00    -0.280 C  
HETATM   15  C   UNL     1     -10.570  13.846  68.995  1.00  0.00    -0.167 C  
HETATM   16  C   UNL     1     -10.807  15.487  67.215  1.00  0.00    -0.313 C  
HETATM   17  C   UNL     1     -10.963  12.457  68.383  1.00  0.00    -0.272 C  
HETATM   18  C   UNL     1     -11.563  15.104  68.507  1.00  0.00    -0.354 C  
HETATM   19  C   UNL     1     -11.591  16.216  69.566  1.00  0.00    -0.254 C  
HETATM   20  C   UNL     1     -11.858  11.999  69.583  1.00  0.00    -0.401 C  
HETATM   21  C   UNL     1     -11.072  16.079  70.770  1.00  0.00    -0.321 C  
HETATM   22  C   UNL     1     -11.162  12.548  70.869  1.00  0.00     2.193 C  
ENDROOT
BRANCH   6  23
HETATM   23  O   UNL     1      -9.036   7.476  66.142  1.00  0.00    -0.163 OA 
HETATM   24  C   UNL     1      -8.534   7.545  64.806  1.00  0.00     0.080 C  
ENDBRANCH   6  23
BRANCH   7  25
HETATM   25  C   UNL     1      -7.958   7.879  68.993  1.00  0.00    -0.122 C  
HETATM   26  C   UNL     1     -12.219   7.090  70.444  1.00  0.00    -0.087 C  
HETATM   27  C   UNL     1      -9.323   5.920  68.192  1.00  0.00    -0.117 A  
HETATM   28  C   UNL     1     -11.814   6.821  71.906  1.00  0.00    -0.366 C  
HETATM   29  N   UNL     1     -10.996   7.441  69.660  1.00  0.00    -0.213 NA 
HETATM   30  C   UNL     1      -9.143   4.912  67.159  1.00  0.00    -0.122 A  
HETATM   31  C   UNL     1     -10.582   6.173  71.990  1.00  0.00    -0.259 C  
HETATM   32  C   UNL     1      -8.114   6.604  68.239  1.00  0.00    -0.111 A  
HETATM   33  C   UNL     1     -10.662   6.207  68.860  1.00  0.00    -0.312 C  
HETATM   34  N   UNL     1      -7.204   6.042  67.397  1.00  0.00    -0.074 NA 
HETATM   35  C   UNL     1     -10.001   3.989  66.591  1.00  0.00    -0.084 A  
HETATM   36  C   UNL     1     -10.074   8.023  70.660  1.00  0.00    -0.194 C  
HETATM   37  C   UNL     1      -7.840   5.051  66.661  1.00  0.00    -0.100 A  
HETATM   38  C   UNL     1      -9.346   7.023  71.477  1.00  0.00    -0.154 C  
HETATM   39  H   UNL     1      -6.221   6.304  67.319  1.00  0.00     0.000 HD 
HETATM   40  C   UNL     1      -7.391   4.323  65.562  1.00  0.00    -0.076 A  
HETATM   41  C   UNL     1      -8.044   7.057  70.587  1.00  0.00    -0.117 C  
HETATM   42  C   UNL     1      -9.578   3.250  65.478  1.00  0.00    -0.052 A  
HETATM   43  C   UNL     1      -8.295   3.438  64.969  1.00  0.00    -0.097 A  
BRANCH  25  44
HETATM   44  C   UNL     1      -6.604   8.627  69.091  1.00  0.00    -0.047 C  
HETATM   45  O   UNL     1      -5.991   8.932  70.104  1.00  0.00    -0.033 OA 
BRANCH  44  46
HETATM   46  O   UNL     1      -6.132   8.762  67.805  1.00  0.00    -0.046 OA 
HETATM   47  C   UNL     1      -5.178   9.753  67.426  1.00  0.00    -0.035 C  
ENDBRANCH  44  46
ENDBRANCH  25  44
BRANCH  28  48
HETATM   48  C   UNL     1     -12.232   8.043  72.828  1.00  0.00    -0.125 C  
HETATM   49  C   UNL     1     -12.841   9.384  72.275  1.00  0.00    -0.452 C  
ENDBRANCH  28  48
ENDBRANCH   7  25
BRANCH  18  50
HETATM   50  C   UNL     1     -13.147  14.956  68.248  1.00  0.00     2.479 C  
HETATM   51  C   UNL     1     -14.085  15.245  69.457  1.00  0.00     3.703 C  
ENDBRANCH  18  50
BRANCH  16  52
HETATM   52  O   UNL     1      -9.537  16.124  67.626  1.00  0.00    -0.221 OA 
BRANCH  52  53
HETATM   53  C   UNL     1      -9.180  17.236  66.910  1.00  0.00    -0.254 C  
HETATM   54  C   UNL     1      -9.144  18.489  67.756  1.00  0.00    -0.292 C  
HETATM   55  O   UNL     1      -9.046  17.256  65.701  1.00  0.00    -0.487 OA 
ENDBRANCH  52  53
ENDBRANCH  16  52
BRANCH  14  56
HETATM   56  C   UNL     1     -10.964  14.582  64.951  1.00  0.00    -0.410 C  
HETATM   57  O   UNL     1     -11.847  15.385  64.653  1.00  0.00    -0.330 OA 
BRANCH  56  58
HETATM   58  O   UNL     1     -10.054  14.063  64.067  1.00  0.00     0.261 OA 
HETATM   59  C   UNL     1     -10.489  12.962  63.274  1.00  0.00     0.627 C  
ENDBRANCH  56  58
ENDBRANCH  14  56
TORSDOF 10
ENDMDL
MODEL       27
REMARK 921   NORMALIZED FREE ENERGY PREDICTED BY IDOCK:    4.69 KCAL/MOL
REMARK 922        TOTAL FREE ENERGY PREDICTED BY IDOCK:    5.48 KCAL/MOL
REMARK 923 INTER-LIGAND FREE ENERGY PREDICTED BY IDOCK:    5.58 KCAL/MOL
REMARK 924 INTRA-LIGAND FREE ENERGY PREDICTED BY IDOCK:   -0.10 KCAL/MOL
REMARK 927      BINDING AFFINITY PREDICTED BY RF-SCORE:    0.00 PKD
ROOT
HETATM    1  C   UNL     1      -7.183  16.165  68.003  1.00  0.00    -0.129 C  
HETATM    2  N   UNL     1      -6.509  15.021  68.607  1.00  0.00    -0.085 NA 
HETATM    3  C   UNL     1      -7.184  13.885  68.244  1.00  0.00    -0.112 A  
HETATM    4  C   UNL     1      -5.128  15.056  69.045  1.00  0.00    -0.091 C  
HETATM    5  C   UNL     1      -6.785  12.613  68.632  1.00  0.00    -0.088 A  
HETATM    6  C   UNL     1      -7.508  11.462  68.315  1.00  0.00    -0.101 A  
HETATM    7  C   UNL     1      -8.699  11.585  67.553  1.00  0.00    -0.145 A  
HETATM    8  N   UNL     1     -10.192  16.640  65.838  1.00  0.00    -0.429 NA 
HETATM    9  H   UNL     1      -9.280  16.673  70.517  1.00  0.00     0.000 HD 
HETATM   10  C   UNL     1     -11.148  17.679  65.569  1.00  0.00     0.436 C  
HETATM   11  C   UNL     1      -9.024  12.965  67.088  1.00  0.00    -0.219 A  
HETATM   12  C   UNL     1      -8.308  14.120  67.460  1.00  0.00    -0.194 A  
HETATM   13  O   UNL     1      -8.868  16.167  69.826  1.00  0.00     0.031 OA 
HETATM   14  C   UNL     1      -7.888  17.031  69.184  1.00  0.00    -0.089 C  
HETATM   15  C   UNL     1      -9.330  16.779  66.974  1.00  0.00    -0.233 C  
HETATM   16  C   UNL     1      -8.587  18.370  68.658  1.00  0.00    -0.292 C  
HETATM   17  C   UNL     1      -8.284  15.610  66.965  1.00  0.00    -0.268 C  
HETATM   18  C   UNL     1      -8.642  18.299  67.115  1.00  0.00    -0.249 C  
HETATM   19  C   UNL     1      -9.543  19.364  66.474  1.00  0.00    -0.440 C  
HETATM   20  C   UNL     1      -8.157  15.518  65.407  1.00  0.00     3.527 C  
HETATM   21  C   UNL     1     -10.595  19.070  65.737  1.00  0.00    -0.388 C  
HETATM   22  C   UNL     1      -9.587  15.804  64.846  1.00  0.00     0.996 C  
ENDROOT
BRANCH   6  23
HETATM   23  O   UNL     1      -7.069  10.236  68.751  1.00  0.00    -0.067 OA 
HETATM   24  C   UNL     1      -7.347   9.864  70.102  1.00  0.00    -0.160 C  
ENDBRANCH   6  23
BRANCH   7  25
HETATM   25  C   UNL     1      -9.649  10.273  67.081  1.00  0.00    -0.199 C  
HETATM   26  C   UNL     1     -12.150  12.352  70.292  1.00  0.00    -0.297 C  
HETATM   27  C   UNL     1     -11.561  11.816  66.525  1.00  0.00    -0.256 A  
HETATM   28  C   UNL     1     -12.742  11.050  70.864  1.00  0.00    -0.452 C  
HETATM   29  N   UNL     1     -11.201  12.009  69.190  1.00  0.00    -0.245 NA 
HETATM   30  C   UNL     1     -12.067  12.401  65.293  1.00  0.00    -0.451 A  
HETATM   31  C   UNL     1     -12.965  10.102  69.866  1.00  0.00     0.409 C  
HETATM   32  C   UNL     1     -10.591  10.909  66.117  1.00  0.00    -0.206 A  
HETATM   33  C   UNL     1     -11.938  12.322  67.912  1.00  0.00    -0.173 C  
HETATM   34  N   UNL     1     -10.534  10.833  64.758  1.00  0.00    -0.311 NA 
HETATM   35  C   UNL     1     -12.972  13.415  65.041  1.00  0.00    -0.220 A  
HETATM   36  C   UNL     1     -10.722  10.650  69.528  1.00  0.00    -0.251 C  
HETATM   37  C   UNL     1     -11.376  11.802  64.231  1.00  0.00    -0.325 A  
HETATM   38  C   UNL     1     -11.655   9.561  69.155  1.00  0.00     0.327 C  
HETATM   39  H   UNL     1      -9.970  10.176  64.221  1.00  0.00     0.000 HD 
HETATM   40  C   UNL     1     -11.529  12.238  62.916  1.00  0.00     0.229 A  
HETATM   41  C   UNL     1     -10.930   9.235  67.793  1.00  0.00    -0.072 C  
HETATM   42  C   UNL     1     -13.138  13.879  63.729  1.00  0.00     1.257 A  
HETATM   43  C   UNL     1     -12.406  13.303  62.694  1.00  0.00     1.299 A  
BRANCH  25  44
HETATM   44  C   UNL     1      -8.594   9.225  66.645  1.00  0.00    -0.127 C  
HETATM   45  O   UNL     1      -8.435   8.097  67.089  1.00  0.00    -0.121 OA 
BRANCH  44  46
HETATM   46  O   UNL     1      -7.947   9.748  65.548  1.00  0.00    -0.115 OA 
HETATM   47  C   UNL     1      -6.530   9.705  65.387  1.00  0.00    -0.080 C  
ENDBRANCH  44  46
ENDBRANCH  25  44
BRANCH  28  48
HETATM   48  C   UNL     1     -12.082  10.713  72.267  1.00  0.00     1.266 C  
HETATM   49  C   UNL     1     -12.059   9.270  72.895  1.00  0.00     0.905 C  
ENDBRANCH  28  48
ENDBRANCH   7  25
BRANCH  18  50
HETATM   50  C   UNL     1      -7.235  18.720  66.450  1.00  0.00    -0.263 C  
HETATM   51  C   UNL     1      -6.839  20.223  66.538  1.00  0.00    -0.274 C  
ENDBRANCH  18  50
BRANCH  16  52
HETATM   52  O   UNL     1      -9.978  18.520  69.136  1.00  0.00    -0.335 OA 
BRANCH  52  53
HETATM   53  C   UNL     1     -10.262  19.713  69.749  1.00  0.00     0.322 C  
HETATM   54  C   UNL     1     -10.532  20.826  68.762  1.00  0.00     0.428 C  
HETATM   55  O   UNL     1     -10.168  19.904  70.946  1.00  0.00     0.917 OA 
ENDBRANCH  52  53
ENDBRANCH  16  52
BRANCH  14  56
HETATM   56  C   UNL     1      -6.909  17.544  70.230  1.00  0.00     1.174 C  
HETATM   57  O   UNL     1      -6.282  16.853  71.032  1.00  0.00     0.846 OA 
BRANCH  56  58
HETATM   58  O   UNL     1      -6.703  18.885  70.032  1.00  0.00    -0.025 OA 
HETATM   59  C   UNL     1      -5.350  19.311  69.899  1.00  0.00    -0.207 C  
ENDBRANCH  56  58
ENDBRANCH  14  56
TORSDOF 10
ENDMDL
MODEL       28
REMARK 921   NORMALIZED FREE ENERGY PREDICTED BY IDOCK:    4.75 KCAL/MOL
REMARK 922        TOTAL FREE ENERGY PREDICTED BY IDOCK:    5.58 KCAL/MOL
REMARK 923 INTER-LIGAND FREE ENERGY PREDICTED BY IDOCK:   -0.72 KCAL/MOL
REMARK 924 INTRA-LIGAND FREE ENERGY PREDICTED BY IDOCK:    6.30 KCAL/MOL
REMARK 927      BINDING AFFINITY PREDICTED BY RF-SCORE:    0.00 PKD
ROOT
HETATM    1  C   UNL     1     -10.185  14.276  69.064  1.00  0.00    -0.149 C  
HETATM    2  N   UNL     1     -10.731  13.069  69.673  1.00  0.00     0.305 NA 
HETATM    3  C   UNL     1      -9.792  12.075  69.569  1.00  0.00     0.986 A  
HETATM    4  C   UNL     1     -11.809  13.087  70.641  1.00  0.00     0.019 C  
HETATM    5  C   UNL     1      -9.986  10.797  70.078  1.00  0.00     0.413 A  
HETATM    6  C   UNL     1      -9.056   9.769  69.917  1.00  0.00    -0.229 A  
HETATM    7  C   UNL     1      -7.851  10.033  69.214  1.00  0.00    -0.125 A  
HETATM    8  N   UNL     1      -6.989  15.183  67.353  1.00  0.00    -0.190 NA 
HETATM    9  H   UNL     1     -11.289  13.627  66.008  1.00  0.00     0.000 HD 
HETATM   10  C   UNL     1      -6.545  16.143  66.380  1.00  0.00     0.854 C  
HETATM   11  C   UNL     1      -7.661  11.446  68.775  1.00  0.00    -0.135 A  
HETATM   12  C   UNL     1      -8.633  12.457  68.903  1.00  0.00     0.281 A  
HETATM   13  O   UNL     1     -10.807  13.448  66.807  1.00  0.00    -0.279 OA 
HETATM   14  C   UNL     1     -11.010  14.582  67.697  1.00  0.00    -0.288 C  
HETATM   15  C   UNL     1      -8.397  14.992  67.536  1.00  0.00    -0.176 C  
HETATM   16  C   UNL     1     -10.567  15.940  66.978  1.00  0.00    -0.306 C  
HETATM   17  C   UNL     1      -8.626  14.020  68.745  1.00  0.00    -0.032 C  
HETATM   18  C   UNL     1      -9.260  16.423  67.647  1.00  0.00    -0.199 C  
HETATM   19  C   UNL     1      -8.547  17.547  66.882  1.00  0.00    -0.267 C  
HETATM   20  C   UNL     1      -7.395  14.508  69.580  1.00  0.00    -0.011 C  
HETATM   21  C   UNL     1      -7.327  17.431  66.399  1.00  0.00    -0.340 C  
HETATM   22  C   UNL     1      -6.274  14.826  68.541  1.00  0.00    -0.088 C  
ENDROOT
BRANCH   6  23
HETATM   23  O   UNL     1      -9.321   8.520  70.425  1.00  0.00    -0.156 OA 
HETATM   24  C   UNL     1     -10.362   8.398  71.396  1.00  0.00    -0.222 C  
ENDBRANCH   6  23
BRANCH   7  25
HETATM   25  C   UNL     1      -6.637   8.887  68.973  1.00  0.00    -0.048 C  
HETATM   26  C   UNL     1     -10.487   6.647  67.952  1.00  0.00    -0.219 C  
HETATM   27  C   UNL     1      -7.407   8.522  66.603  1.00  0.00    -0.081 A  
HETATM   28  C   UNL     1     -10.005   5.294  68.508  1.00  0.00    -0.227 C  
HETATM   29  N   UNL     1      -9.421   7.670  68.178  1.00  0.00    -0.144 NA 
HETATM   30  C   UNL     1      -6.963   9.009  65.306  1.00  0.00    -0.083 A  
HETATM   31  C   UNL     1      -8.640   5.105  68.297  1.00  0.00    -0.098 C  
HETATM   32  C   UNL     1      -6.438   8.959  67.498  1.00  0.00    -0.061 A  
HETATM   33  C   UNL     1      -8.764   7.871  66.836  1.00  0.00    -0.131 C  
HETATM   34  N   UNL     1      -5.416   9.580  66.846  1.00  0.00    -0.045 NA 
HETATM   35  C   UNL     1      -7.535   8.975  64.047  1.00  0.00    -0.110 A  
HETATM   36  C   UNL     1      -8.687   7.179  69.366  1.00  0.00    -0.134 C  
HETATM   37  C   UNL     1      -5.758   9.696  65.506  1.00  0.00    -0.059 A  
HETATM   38  C   UNL     1      -7.698   6.114  69.077  1.00  0.00    -0.096 C  
HETATM   39  H   UNL     1      -4.548   9.906  67.271  1.00  0.00     0.000 HD 
HETATM   40  C   UNL     1      -5.136  10.403  64.480  1.00  0.00    -0.135 A  
HETATM   41  C   UNL     1      -6.469   7.099  69.003  1.00  0.00    -0.036 C  
HETATM   42  C   UNL     1      -6.935   9.686  63.000  1.00  0.00    -0.105 A  
HETATM   43  C   UNL     1      -5.762  10.402  63.231  1.00  0.00    -0.149 A  
BRANCH  25  44
HETATM   44  C   UNL     1      -5.546   9.328  69.982  1.00  0.00    -0.027 C  
HETATM   45  O   UNL     1      -5.200  10.468  70.257  1.00  0.00    -0.039 OA 
BRANCH  44  46
HETATM   46  O   UNL     1      -5.126   8.190  70.634  1.00  0.00    -0.023 OA 
HETATM   47  C   UNL     1      -5.328   7.973  72.029  1.00  0.00    -0.035 C  
ENDBRANCH  44  46
ENDBRANCH  25  44
BRANCH  28  48
HETATM   48  C   UNL     1     -10.738   4.967  69.878  1.00  0.00     0.110 C  
HETATM   49  C   UNL     1     -10.247   3.864  70.887  1.00  0.00     0.158 C  
ENDBRANCH  28  48
ENDBRANCH   7  25
BRANCH  18  50
HETATM   50  C   UNL     1      -9.551  17.198  69.030  1.00  0.00    -0.189 C  
HETATM   51  C   UNL     1      -9.826  18.728  68.933  1.00  0.00    -0.415 C  
ENDBRANCH  18  50
BRANCH  16  52
HETATM   52  O   UNL     1     -10.280  15.763  65.539  1.00  0.00    -0.344 OA 
BRANCH  52  53
HETATM   53  C   UNL     1     -10.924  16.635  64.701  1.00  0.00     0.004 C  
HETATM   54  C   UNL     1     -10.725  18.080  65.098  1.00  0.00     0.593 C  
HETATM   55  O   UNL     1     -11.691  16.295  63.820  1.00  0.00    -0.969 OA 
ENDBRANCH  52  53
ENDBRANCH  16  52
BRANCH  14  56
HETATM   56  C   UNL     1     -12.503  14.784  67.919  1.00  0.00     0.421 C  
HETATM   57  O   UNL     1     -13.015  15.645  68.633  1.00  0.00     1.030 OA 
BRANCH  56  58
HETATM   58  O   UNL     1     -13.198  13.964  67.069  1.00  0.00     0.983 OA 
HETATM   59  C   UNL     1     -13.239  14.351  65.698  1.00  0.00     0.318 C  
ENDBRANCH  56  58
ENDBRANCH  14  56
TORSDOF 10
ENDMDL
MODEL       29
REMARK 921   NORMALIZED FREE ENERGY PREDICTED BY IDOCK:    5.09 KCAL/MOL
REMARK 922        TOTAL FREE ENERGY PREDICTED BY IDOCK:    6.10 KCAL/MOL
REMARK 923 INTER-LIGAND FREE ENERGY PREDICTED BY IDOCK:   -1.98 KCAL/MOL
REMARK 924 INTRA-LIGAND FREE ENERGY PREDICTED BY IDOCK:    8.09 KCAL/MOL
REMARK 927      BINDING AFFINITY PREDICTED BY RF-SCORE:    0.00 PKD
ROOT
HETATM    1  C   UNL     1      -8.897  14.196  68.038  1.00  0.00    -0.182 C  
HETATM    2  N   UNL     1      -7.775  13.895  68.921  1.00  0.00    -0.088 NA 
HETATM    3  C   UNL     1      -7.547  12.543  68.879  1.00  0.00     0.047 A  
HETATM    4  C   UNL     1      -6.797  14.885  69.325  1.00  0.00    -0.148 C  
HETATM    5  C   UNL     1      -6.525  11.928  69.590  1.00  0.00    -0.101 A  
HETATM    6  C   UNL     1      -6.333  10.546  69.595  1.00  0.00    -0.074 A  
HETATM    7  C   UNL     1      -7.207   9.725  68.835  1.00  0.00    -0.072 A  
HETATM    8  N   UNL     1     -11.166  12.195  65.844  1.00  0.00    -0.326 NA 
HETATM    9  H   UNL     1     -11.245  13.781  70.338  1.00  0.00     0.000 HD 
HETATM   10  C   UNL     1     -12.497  12.310  65.314  1.00  0.00    -0.024 C  
HETATM   11  C   UNL     1      -8.224  10.452  68.021  1.00  0.00    -0.114 A  
HETATM   12  C   UNL     1      -8.434  11.844  68.068  1.00  0.00    -0.162 A  
HETATM   13  O   UNL     1     -10.504  13.518  69.805  1.00  0.00     0.385 OA 
HETATM   14  C   UNL     1     -10.165  14.646  68.949  1.00  0.00    -0.241 C  
HETATM   15  C   UNL     1     -10.768  13.082  66.896  1.00  0.00    -0.262 C  
HETATM   16  C   UNL     1     -11.437  15.093  68.090  1.00  0.00    -0.342 C  
HETATM   17  C   UNL     1      -9.243  12.868  67.193  1.00  0.00    -0.225 C  
HETATM   18  C   UNL     1     -11.184  14.681  66.622  1.00  0.00    -0.349 C  
HETATM   19  C   UNL     1     -12.428  14.772  65.726  1.00  0.00     0.045 C  
HETATM   20  C   UNL     1      -8.834  12.551  65.715  1.00  0.00     0.476 C  
HETATM   21  C   UNL     1     -12.944  13.733  65.100  1.00  0.00    -0.279 C  
HETATM   22  C   UNL     1     -10.025  11.743  65.107  1.00  0.00    -0.253 C  
ENDROOT
BRANCH   6  23
HETATM   23  O   UNL     1      -5.316   9.999  70.340  1.00  0.00    -0.040 OA 
HETATM   24  C   UNL     1      -5.153  10.449  71.686  1.00  0.00    -0.068 C  
ENDBRANCH   6  23
BRANCH   7  25
HETATM   25  C   UNL     1      -7.068   8.047  68.737  1.00  0.00    -0.071 C  
HETATM   26  C   UNL     1     -11.577   8.774  68.897  1.00  0.00     1.054 C  
HETATM   27  C   UNL     1      -8.521   8.013  66.680  1.00  0.00    -0.133 A  
HETATM   28  C   UNL     1     -11.887   7.507  69.717  1.00  0.00     0.424 C  
HETATM   29  N   UNL     1     -10.099   8.867  68.692  1.00  0.00    -0.183 NA 
HETATM   30  C   UNL     1      -8.256   7.943  65.252  1.00  0.00    -0.147 A  
HETATM   31  C   UNL     1     -11.045   6.450  69.374  1.00  0.00    -0.450 C  
HETATM   32  C   UNL     1      -7.286   7.806  67.283  1.00  0.00    -0.090 A  
HETATM   33  C   UNL     1      -9.862   8.439  67.266  1.00  0.00    -0.203 C  
HETATM   34  N   UNL     1      -6.330   7.531  66.353  1.00  0.00    -0.044 NA 
HETATM   35  C   UNL     1      -9.052   8.151  64.140  1.00  0.00     1.010 A  
HETATM   36  C   UNL     1      -9.522   8.152  69.852  1.00  0.00    -0.160 C  
HETATM   37  C   UNL     1      -6.886   7.692  65.092  1.00  0.00    -0.047 A  
HETATM   38  C   UNL     1      -9.514   6.676  69.719  1.00  0.00    -0.150 C  
HETATM   39  H   UNL     1      -5.368   7.254  66.551  1.00  0.00     0.000 HD 
HETATM   40  C   UNL     1      -6.279   7.700  63.838  1.00  0.00    -0.053 A  
HETATM   41  C   UNL     1      -8.022   6.602  69.215  1.00  0.00    -0.111 C  
HETATM   42  C   UNL     1      -8.464   8.175  62.869  1.00  0.00     0.021 A  
HETATM   43  C   UNL     1      -7.093   7.970  62.735  1.00  0.00    -0.087 A  
BRANCH  25  44
HETATM   44  C   UNL     1      -5.708   7.776  69.430  1.00  0.00    -0.026 C  
HETATM   45  O   UNL     1      -5.264   8.308  70.437  1.00  0.00    -0.023 OA 
BRANCH  44  46
HETATM   46  O   UNL     1      -5.139   6.704  68.780  1.00  0.00    -0.011 OA 
HETATM   47  C   UNL     1      -5.230   5.364  69.262  1.00  0.00    -0.003 C  
ENDBRANCH  44  46
ENDBRANCH  25  44
BRANCH  28  48
HETATM   48  C   UNL     1     -12.249   7.894  71.213  1.00  0.00    -0.314 C  
HETATM   49  C   UNL     1     -11.874   9.272  71.872  1.00  0.00    -0.426 C  
ENDBRANCH  28  48
ENDBRANCH   7  25
BRANCH  18  50
HETATM   50  C   UNL     1     -10.240  15.743  65.860  1.00  0.00    -0.377 C  
HETATM   51  C   UNL     1     -10.954  16.815  64.986  1.00  0.00    -0.118 C  
ENDBRANCH  18  50
BRANCH  16  52
HETATM   52  O   UNL     1     -12.686  14.428  68.520  1.00  0.00     0.250 OA 
BRANCH  52  53
HETATM   53  C   UNL     1     -12.835  14.280  69.874  1.00  0.00     0.101 C  
HETATM   54  C   UNL     1     -12.685  12.844  70.324  1.00  0.00     0.051 C  
HETATM   55  O   UNL     1     -13.189  15.170  70.623  1.00  0.00    -0.373 OA 
ENDBRANCH  52  53
ENDBRANCH  16  52
BRANCH  14  56
HETATM   56  C   UNL     1      -9.890  15.868  69.815  1.00  0.00    -0.173 C  
HETATM   57  O   UNL     1      -9.725  15.865  71.034  1.00  0.00     1.301 OA 
BRANCH  56  58
HETATM   58  O   UNL     1      -9.686  16.954  69.004  1.00  0.00    -0.260 OA 
HETATM   59  C   UNL     1     -10.312  18.172  69.398  1.00  0.00     0.237 C  
ENDBRANCH  56  58
ENDBRANCH  14  56
TORSDOF 10
ENDMDL
MODEL       30
REMARK 921   NORMALIZED FREE ENERGY PREDICTED BY IDOCK:    6.34 KCAL/MOL
REMARK 922        TOTAL FREE ENERGY PREDICTED BY IDOCK:    8.09 KCAL/MOL
REMARK 923 INTER-LIGAND FREE ENERGY PREDICTED BY IDOCK:    3.74 KCAL/MOL
REMARK 924 INTRA-LIGAND FREE ENERGY PREDICTED BY IDOCK:    4.35 KCAL/MOL
REMARK 927      BINDING AFFINITY PREDICTED BY RF-SCORE:    0.00 PKD
ROOT
HETATM    1  C   UNL     1      -7.238  10.037  67.214  1.00  0.00    -0.086 C  
HETATM    2  N   UNL     1      -6.882  11.174  66.373  1.00  0.00    -0.123 NA 
HETATM    3  C   UNL     1      -6.967  12.313  67.133  1.00  0.00    -0.102 A  
HETATM    4  C   UNL     1      -6.099  11.048  65.161  1.00  0.00     0.292 C  
HETATM    5  C   UNL     1      -6.665  13.575  66.638  1.00  0.00     1.963 A  
HETATM    6  C   UNL     1      -6.812  14.738  67.393  1.00  0.00    -0.070 A  
HETATM    7  C   UNL     1      -7.279  14.639  68.730  1.00  0.00    -0.124 A  
HETATM    8  N   UNL     1      -8.302   9.587  70.769  1.00  0.00    -0.278 NA 
HETATM    9  H   UNL     1     -10.486  10.159  66.571  1.00  0.00     0.000 HD 
HETATM   10  C   UNL     1      -9.061   8.636  71.533  1.00  0.00    -0.239 C  
HETATM   11  C   UNL     1      -7.497  13.251  69.232  1.00  0.00     0.277 A  
HETATM   12  C   UNL     1      -7.390  12.092  68.439  1.00  0.00    -0.096 A  
HETATM   13  O   UNL     1      -9.652  10.504  66.868  1.00  0.00    -0.169 OA 
HETATM   14  C   UNL     1      -8.665   9.447  66.707  1.00  0.00    -0.127 C  
HETATM   15  C   UNL     1      -8.365   9.525  69.338  1.00  0.00    -0.140 C  
HETATM   16  C   UNL     1      -9.124   8.133  67.494  1.00  0.00    -0.137 C  
HETATM   17  C   UNL     1      -7.342  10.551  68.739  1.00  0.00    -0.092 C  
HETATM   18  C   UNL     1      -8.205   7.974  68.725  1.00  0.00    -0.126 C  
HETATM   19  C   UNL     1      -8.698   6.935  69.742  1.00  0.00    -0.141 C  
HETATM   20  C   UNL     1      -6.270  10.390  69.868  1.00  0.00    -0.081 C  
HETATM   21  C   UNL     1      -8.997   7.232  70.990  1.00  0.00    -0.149 C  
HETATM   22  C   UNL     1      -7.073  10.188  71.192  1.00  0.00     0.809 C  
ENDROOT
BRANCH   6  23
HETATM   23  O   UNL     1      -6.517  15.959  66.835  1.00  0.00    -0.294 OA 
HETATM   24  C   UNL     1      -5.146  16.356  66.775  1.00  0.00     0.243 C  
ENDBRANCH   6  23
BRANCH   7  25
HETATM   25  C   UNL     1      -7.476  15.964  69.756  1.00  0.00     0.075 C  
HETATM   26  C   UNL     1      -9.291  17.351  65.797  1.00  0.00     0.182 C  
HETATM   27  C   UNL     1      -9.958  15.968  69.328  1.00  0.00    -0.252 A  
HETATM   28  C   UNL     1      -8.833  18.815  65.946  1.00  0.00     0.186 C  
HETATM   29  N   UNL     1      -8.797  16.568  66.971  1.00  0.00    -0.187 NA 
HETATM   30  C   UNL     1     -11.112  15.459  70.051  1.00  0.00    -0.317 A  
HETATM   31  C   UNL     1      -8.867  19.234  67.276  1.00  0.00    -0.329 C  
HETATM   32  C   UNL     1      -8.889  15.800  70.200  1.00  0.00     0.757 A  
HETATM   33  C   UNL     1      -9.999  16.374  67.860  1.00  0.00    -0.243 C  
HETATM   34  N   UNL     1      -9.310  15.323  71.403  1.00  0.00     1.992 NA 
HETATM   35  C   UNL     1     -12.435  15.274  69.694  1.00  0.00    -0.174 A  
HETATM   36  C   UNL     1      -7.582  17.290  67.409  1.00  0.00    -0.182 C  
HETATM   37  C   UNL     1     -10.663  15.028  71.308  1.00  0.00     0.306 A  
HETATM   38  C   UNL     1      -7.848  18.491  68.236  1.00  0.00    -0.323 C  
HETATM   39  H   UNL     1      -8.731  15.204  72.234  1.00  0.00     0.000 HD 
HETATM   40  C   UNL     1     -11.501  14.360  72.198  1.00  0.00     0.722 A  
HETATM   41  C   UNL     1      -7.630  17.747  69.610  1.00  0.00     0.598 C  
HETATM   42  C   UNL     1     -13.296  14.597  70.567  1.00  0.00    -0.065 A  
HETATM   43  C   UNL     1     -12.818  14.134  71.791  1.00  0.00    -0.428 A  
BRANCH  25  44
HETATM   44  C   UNL     1      -6.277  15.825  70.728  1.00  0.00     0.419 C  
HETATM   45  O   UNL     1      -5.400  16.647  70.955  1.00  0.00    -0.186 OA 
BRANCH  44  46
HETATM   46  O   UNL     1      -6.457  14.645  71.413  1.00  0.00     0.221 OA 
HETATM   47  C   UNL     1      -5.388  13.933  72.033  1.00  0.00    -0.212 C  
ENDBRANCH  44  46
ENDBRANCH  25  44
BRANCH  28  48
HETATM   48  C   UNL     1      -7.630  19.120  64.957  1.00  0.00     1.155 C  
HETATM   49  C   UNL     1      -6.366  19.967  65.359  1.00  0.00    -0.283 C  
ENDBRANCH  28  48
ENDBRANCH   7  25
BRANCH  18  50
HETATM   50  C   UNL     1      -6.795   7.299  68.332  1.00  0.00    -0.073 C  
HETATM   51  C   UNL     1      -5.901   6.805  69.507  1.00  0.00    -0.015 C  
ENDBRANCH  18  50
BRANCH  16  52
HETATM   52  O   UNL     1     -10.513   8.217  67.995  1.00  0.00    -0.215 OA 
BRANCH  52  53
HETATM   53  C   UNL     1     -11.197   7.030  68.028  1.00  0.00     0.078 C  
HETATM   54  C   UNL     1     -11.019   6.218  66.766  1.00  0.00    -0.328 C  
HETATM   55  O   UNL     1     -11.978   6.718  68.907  1.00  0.00     0.412 OA 
ENDBRANCH  52  53
ENDBRANCH  16  52
BRANCH  14  56
HETATM   56  C   UNL     1      -8.652   8.989  65.255  1.00  0.00    -0.174 C  
HETATM   57  O   UNL     1      -9.020   9.653  64.286  1.00  0.00    -0.220 OA 
BRANCH  56  58
HETATM   58  O   UNL     1      -8.010   7.782  65.170  1.00  0.00    -0.115 OA 
HETATM   59  C   UNL     1      -6.900   7.708  64.280  1.00  0.00    -0.056 C  
ENDBRANCH  56  58
ENDBRANCH  14  56
TORSDOF 10
ENDMDL
MODEL       31
REMARK 921   NORMALIZED FREE ENERGY PREDICTED BY IDOCK:    6.75 KCAL/MOL
REMARK 922        TOTAL FREE ENERGY PREDICTED BY IDOCK:    8.73 KCAL/MOL
REMARK 923 INTER-LIGAND FREE ENERGY PREDICTED BY IDOCK:    5.64 KCAL/MOL
REMARK 924 INTRA-LIGAND FREE ENERGY PREDICTED BY IDOCK:    3.09 KCAL/MOL
REMARK 927      BINDING AFFINITY PREDICTED BY RF-SCORE:    0.00 PKD
ROOT
HETATM    1  C   UNL     1     -11.748  13.932  67.535  1.00  0.00    -0.380 C  
HETATM    2  N   UNL     1     -11.566  13.134  66.328  1.00  0.00    -0.339 NA 
HETATM    3  C   UNL     1     -11.181  11.872  66.702  1.00  0.00    -0.328 A  
HETATM    4  C   UNL     1     -12.181  13.466  65.058  1.00  0.00    -0.424 C  
HETATM    5  C   UNL     1     -10.949  10.852  65.789  1.00  0.00    -0.045 A  
HETATM    6  C   UNL     1     -10.497   9.587  66.165  1.00  0.00    -0.007 A  
HETATM    7  C   UNL     1     -10.271   9.317  67.541  1.00  0.00    -0.300 A  
HETATM    8  N   UNL     1     -11.379  13.326  71.205  1.00  0.00     1.493 NA 
HETATM    9  H   UNL     1      -8.615  14.996  67.698  1.00  0.00     0.000 HD 
HETATM   10  C   UNL     1     -11.112  14.104  72.383  1.00  0.00     2.753 C  
HETATM   11  C   UNL     1     -10.627  10.422  68.478  1.00  0.00    -0.237 A  
HETATM   12  C   UNL     1     -11.035  11.708  68.074  1.00  0.00    -0.275 A  
HETATM   13  O   UNL     1      -9.303  14.341  67.663  1.00  0.00    -0.192 OA 
HETATM   14  C   UNL     1     -10.571  15.051  67.596  1.00  0.00    -0.267 C  
HETATM   15  C   UNL     1     -11.159  13.926  69.922  1.00  0.00     0.063 C  
HETATM   16  C   UNL     1     -10.714  16.055  68.832  1.00  0.00    -0.275 C  
HETATM   17  C   UNL     1     -11.665  12.946  68.808  1.00  0.00    -0.363 C  
HETATM   18  C   UNL     1     -11.780  15.477  69.790  1.00  0.00    -0.362 C  
HETATM   19  C   UNL     1     -11.822  16.163  71.163  1.00  0.00    -0.411 C  
HETATM   20  C   UNL     1     -12.860  12.363  69.635  1.00  0.00     0.827 C  
HETATM   21  C   UNL     1     -11.600  15.526  72.295  1.00  0.00    -0.554 C  
HETATM   22  C   UNL     1     -12.357  12.285  71.112  1.00  0.00    -0.147 C  
ENDROOT
BRANCH   6  23
HETATM   23  O   UNL     1     -10.265   8.629  65.208  1.00  0.00     0.987 OA 
HETATM   24  C   UNL     1      -9.726   9.051  63.954  1.00  0.00     1.761 C  
ENDBRANCH   6  23
BRANCH   7  25
HETATM   25  C   UNL     1      -9.750   7.825  68.130  1.00  0.00    -0.171 C  
HETATM   26  C   UNL     1      -7.586  10.869  70.764  1.00  0.00     2.400 C  
HETATM   27  C   UNL     1     -10.543   8.423  70.444  1.00  0.00    -0.236 A  
HETATM   28  C   UNL     1      -6.300  10.033  70.905  1.00  0.00    -0.030 C  
HETATM   29  N   UNL     1      -8.543  10.139  69.877  1.00  0.00    -0.143 NA 
HETATM   30  C   UNL     1     -11.735   8.115  71.219  1.00  0.00    -0.310 A  
HETATM   31  C   UNL     1      -6.575   8.667  70.956  1.00  0.00    -0.053 C  
HETATM   32  C   UNL     1     -10.643   7.631  69.306  1.00  0.00    -0.201 A  
HETATM   33  C   UNL     1      -9.576   9.545  70.801  1.00  0.00    -0.192 C  
HETATM   34  N   UNL     1     -11.732   6.817  69.373  1.00  0.00    -0.631 NA 
HETATM   35  C   UNL     1     -12.248   8.634  72.393  1.00  0.00    -0.419 A  
HETATM   36  C   UNL     1      -7.678   9.315  69.004  1.00  0.00    -0.075 C  
HETATM   37  C   UNL     1     -12.464   7.156  70.502  1.00  0.00    -0.001 A  
HETATM   38  C   UNL     1      -7.195   8.060  69.629  1.00  0.00    -0.066 C  
HETATM   39  H   UNL     1     -11.970   6.083  68.706  1.00  0.00     0.000 HD 
HETATM   40  C   UNL     1     -13.732   6.743  70.907  1.00  0.00     0.551 A  
HETATM   41  C   UNL     1      -8.319   7.159  68.987  1.00  0.00    -0.126 C  
HETATM   42  C   UNL     1     -13.525   8.243  72.817  1.00  0.00     0.127 A  
HETATM   43  C   UNL     1     -14.254   7.325  72.065  1.00  0.00    -0.370 A  
BRANCH  25  44
HETATM   44  C   UNL     1      -9.820   6.918  66.874  1.00  0.00    -0.183 C  
HETATM   45  O   UNL     1     -10.807   6.376  66.399  1.00  0.00    -0.111 OA 
BRANCH  44  46
HETATM   46  O   UNL     1      -8.572   6.950  66.292  1.00  0.00    -0.124 OA 
HETATM   47  C   UNL     1      -8.331   6.547  64.946  1.00  0.00    -0.047 C  
ENDBRANCH  44  46
ENDBRANCH  25  44
BRANCH  28  48
HETATM   48  C   UNL     1      -5.133  10.664  70.034  1.00  0.00    -0.040 C  
HETATM   49  C   UNL     1      -5.240  12.060  69.316  1.00  0.00    -0.056 C  
ENDBRANCH  28  48
ENDBRANCH   7  25
BRANCH  18  50
HETATM   50  C   UNL     1     -13.275  15.812  69.289  1.00  0.00     1.735 C  
HETATM   51  C   UNL     1     -14.398  15.785  70.366  1.00  0.00     1.864 C  
ENDBRANCH  18  50
BRANCH  16  52
HETATM   52  O   UNL     1      -9.462  16.196  69.607  1.00  0.00    -0.186 OA 
BRANCH  52  53
HETATM   53  C   UNL     1      -8.644  17.224  69.218  1.00  0.00     0.183 C  
HETATM   54  C   UNL     1      -7.177  16.873  69.321  1.00  0.00    -0.171 C  
HETATM   55  O   UNL     1      -9.035  18.345  68.956  1.00  0.00    -0.191 OA 
ENDBRANCH  52  53
ENDBRANCH  16  52
BRANCH  14  56
HETATM   56  C   UNL     1     -10.560  15.987  66.395  1.00  0.00    -0.284 C  
HETATM   57  O   UNL     1     -11.489  16.708  66.034  1.00  0.00     0.499 OA 
BRANCH  56  58
HETATM   58  O   UNL     1      -9.293  16.030  65.872  1.00  0.00    -0.326 OA 
HETATM   59  C   UNL     1      -8.649  17.301  65.860  1.00  0.00     0.046 C  
ENDBRANCH  56  58
ENDBRANCH  14  56
TORSDOF 10
ENDMDL
MODEL       32
REMARK 921   NORMALIZED FREE ENERGY PREDICTED BY IDOCK:    6.79 KCAL/MOL
REMARK 922        TOTAL FREE ENERGY PREDICTED BY IDOCK:    8.81 KCAL/MOL
REMARK 923 INTER-LIGAND FREE ENERGY PREDICTED BY IDOCK:    4.54 KCAL/MOL
REMARK 924 INTRA-LIGAND FREE ENERGY PREDICTED BY IDOCK:    4.27 KCAL/MOL
REMARK 927      BINDING AFFINITY PREDICTED BY RF-SCORE:    0.00 PKD
ROOT
HETATM    1  C   UNL     1      -9.860  10.105  68.345  1.00  0.00    -0.151 C  
HETATM    2  N   UNL     1     -10.851   9.036  68.390  1.00  0.00    -0.081 NA 
HETATM    3  C   UNL     1     -10.391   7.992  67.629  1.00  0.00    -0.246 A  
HETATM    4  C   UNL     1     -11.840   8.917  69.443  1.00  0.00     1.022 C  
HETATM    5  C   UNL     1     -11.087   6.800  67.483  1.00  0.00    -0.340 A  
HETATM    6  C   UNL     1     -10.649   5.763  66.659  1.00  0.00    -0.280 A  
HETATM    7  C   UNL     1      -9.433   5.919  65.943  1.00  0.00    -0.033 A  
HETATM    8  N   UNL     1      -6.553  10.598  66.675  1.00  0.00    -0.093 NA 
HETATM    9  H   UNL     1     -11.104  11.588  65.655  1.00  0.00     0.000 HD 
HETATM   10  C   UNL     1      -5.751  11.701  66.221  1.00  0.00     0.145 C  
HETATM   11  C   UNL     1      -8.686   7.182  66.214  1.00  0.00    -0.156 A  
HETATM   12  C   UNL     1      -9.170   8.237  67.011  1.00  0.00    -0.187 A  
HETATM   13  O   UNL     1     -10.741  10.863  66.150  1.00  0.00    -0.235 OA 
HETATM   14  C   UNL     1     -10.479  11.346  67.498  1.00  0.00    -0.201 C  
HETATM   15  C   UNL     1      -7.921  10.843  67.026  1.00  0.00    -0.132 C  
HETATM   16  C   UNL     1      -9.520  12.625  67.453  1.00  0.00    -0.189 C  
HETATM   17  C   UNL     1      -8.533   9.533  67.631  1.00  0.00    -0.122 C  
HETATM   18  C   UNL     1      -8.136  12.196  67.989  1.00  0.00    -0.155 C  
HETATM   19  C   UNL     1      -7.023  13.224  67.736  1.00  0.00    -0.154 C  
HETATM   20  C   UNL     1      -7.218   9.046  68.327  1.00  0.00    -0.078 C  
HETATM   21  C   UNL     1      -5.949  12.964  67.020  1.00  0.00     0.425 C  
HETATM   22  C   UNL     1      -6.054   9.449  67.367  1.00  0.00    -0.050 C  
ENDROOT
BRANCH   6  23
HETATM   23  O   UNL     1     -11.399   4.618  66.541  1.00  0.00     1.084 OA 
HETATM   24  C   UNL     1     -11.024   3.486  67.328  1.00  0.00     4.444 C  
ENDBRANCH   6  23
BRANCH   7  25
HETATM   25  C   UNL     1      -8.780   4.734  64.935  1.00  0.00    -0.148 C  
HETATM   26  C   UNL     1      -5.601   8.017  64.983  1.00  0.00    -0.044 C  
HETATM   27  C   UNL     1      -6.715   4.602  66.371  1.00  0.00    -0.053 A  
HETATM   28  C   UNL     1      -5.174   7.810  63.517  1.00  0.00    -0.041 C  
HETATM   29  N   UNL     1      -6.718   7.075  65.298  1.00  0.00    -0.050 NA 
HETATM   30  C   UNL     1      -6.268   3.704  67.424  1.00  0.00    -0.036 A  
HETATM   31  C   UNL     1      -5.234   6.467  63.146  1.00  0.00    -0.022 C  
HETATM   32  C   UNL     1      -7.867   4.011  65.864  1.00  0.00    -0.090 A  
HETATM   33  C   UNL     1      -6.096   5.971  66.115  1.00  0.00    -0.032 C  
HETATM   34  N   UNL     1      -8.096   2.805  66.452  1.00  0.00    -0.081 NA 
HETATM   35  C   UNL     1      -5.240   3.781  68.346  1.00  0.00    -0.012 A  
HETATM   36  C   UNL     1      -7.377   6.837  63.995  1.00  0.00    -0.082 C  
HETATM   37  C   UNL     1      -7.171   2.634  67.473  1.00  0.00    -0.053 A  
HETATM   38  C   UNL     1      -6.692   5.843  63.135  1.00  0.00    -0.033 C  
HETATM   39  H   UNL     1      -8.823   2.141  66.188  1.00  0.00     0.000 HD 
HETATM   40  C   UNL     1      -7.104   1.661  68.468  1.00  0.00    -0.039 A  
HETATM   41  C   UNL     1      -7.618   4.642  63.569  1.00  0.00    -0.060 C  
HETATM   42  C   UNL     1      -5.156   2.821  69.363  1.00  0.00    -0.011 A  
HETATM   43  C   UNL     1      -6.093   1.792  69.423  1.00  0.00    -0.024 A  
BRANCH  25  44
HETATM   44  C   UNL     1     -10.042   4.071  64.326  1.00  0.00    -0.178 C  
HETATM   45  O   UNL     1     -11.017   4.626  63.841  1.00  0.00     0.389 OA 
BRANCH  44  46
HETATM   46  O   UNL     1      -9.801   2.716  64.295  1.00  0.00    -0.150 OA 
HETATM   47  C   UNL     1      -9.892   1.936  63.104  1.00  0.00    -0.106 C  
ENDBRANCH  44  46
ENDBRANCH  25  44
BRANCH  28  48
HETATM   48  C   UNL     1      -5.710   8.998  62.613  1.00  0.00    -0.089 C  
HETATM   49  C   UNL     1      -6.194  10.381  63.188  1.00  0.00    -0.119 C  
ENDBRANCH  28  48
ENDBRANCH   7  25
BRANCH  18  50
HETATM   50  C   UNL     1      -8.103  12.173  69.600  1.00  0.00     1.349 C  
HETATM   51  C   UNL     1      -6.719  11.925  70.270  1.00  0.00     0.593 C  
ENDBRANCH  18  50
BRANCH  16  52
HETATM   52  O   UNL     1      -9.315  13.144  66.083  1.00  0.00    -0.194 OA 
BRANCH  52  53
HETATM   53  C   UNL     1     -10.197  14.115  65.686  1.00  0.00    -0.339 C  
HETATM   54  C   UNL     1     -10.395  15.188  66.734  1.00  0.00    -0.273 C  
HETATM   55  O   UNL     1     -10.862  14.058  64.670  1.00  0.00    -0.401 OA 
ENDBRANCH  52  53
ENDBRANCH  16  52
BRANCH  14  56
HETATM   56  C   UNL     1     -11.766  11.905  68.089  1.00  0.00    -0.320 C  
HETATM   57  O   UNL     1     -12.818  12.093  67.479  1.00  0.00     1.259 OA 
BRANCH  56  58
HETATM   58  O   UNL     1     -11.627  12.011  69.449  1.00  0.00    -0.288 OA 
HETATM   59  C   UNL     1     -11.374  13.314  69.966  1.00  0.00     0.081 C  
ENDBRANCH  56  58
ENDBRANCH  14  56
TORSDOF 10
ENDMDL
MODEL       33
REMARK 921   NORMALIZED FREE ENERGY PREDICTED BY IDOCK:    7.62 KCAL/MOL
REMARK 922        TOTAL FREE ENERGY PREDICTED BY IDOCK:   10.12 KCAL/MOL
REMARK 923 INTER-LIGAND FREE ENERGY PREDICTED BY IDOCK:    9.26 KCAL/MOL
REMARK 924 INTRA-LIGAND FREE ENERGY PREDICTED BY IDOCK:    0.86 KCAL/MOL
REMARK 927      BINDING AFFINITY PREDICTED BY RF-SCORE:    0.00 PKD
ROOT
HETATM    1  C   UNL     1     -11.081  12.723  66.653  1.00  0.00    -0.276 C  
HETATM    2  N   UNL     1     -11.537  11.505  65.992  1.00  0.00    -0.281 NA 
HETATM    3  C   UNL     1     -10.923  10.436  66.594  1.00  0.00     0.003 A  
HETATM    4  C   UNL     1     -12.768  11.428  65.232  1.00  0.00     2.800 C  
HETATM    5  C   UNL     1     -11.160   9.120  66.220  1.00  0.00     1.328 A  
HETATM    6  C   UNL     1     -10.489   8.038  66.790  1.00  0.00    -0.248 A  
HETATM    7  C   UNL     1      -9.528   8.281  67.806  1.00  0.00    -0.171 A  
HETATM    8  N   UNL     1      -8.719  13.516  69.438  1.00  0.00     0.774 NA 
HETATM    9  H   UNL     1      -8.454  13.195  64.689  1.00  0.00     0.000 HD 
HETATM   10  C   UNL     1      -7.903  14.625  69.850  1.00  0.00     0.306 C  
HETATM   11  C   UNL     1      -9.387   9.705  68.228  1.00  0.00    -0.138 A  
HETATM   12  C   UNL     1     -10.037  10.788  67.606  1.00  0.00    -0.205 A  
HETATM   13  O   UNL     1      -9.001  12.710  65.296  1.00  0.00     0.526 OA 
HETATM   14  C   UNL     1     -10.145  13.552  65.615  1.00  0.00    -0.278 C  
HETATM   15  C   UNL     1      -9.281  13.529  68.120  1.00  0.00    -0.208 C  
HETATM   16  C   UNL     1      -9.654  14.962  66.190  1.00  0.00    -0.310 C  
HETATM   17  C   UNL     1     -10.245  12.303  67.965  1.00  0.00    -0.206 C  
HETATM   18  C   UNL     1      -9.977  14.994  67.701  1.00  0.00    -0.225 C  
HETATM   19  C   UNL     1      -9.307  16.150  68.457  1.00  0.00    -0.209 C  
HETATM   20  C   UNL     1     -10.747  12.304  69.448  1.00  0.00     0.085 C  
HETATM   21  C   UNL     1      -8.457  15.968  69.447  1.00  0.00    -0.146 C  
HETATM   22  C   UNL     1      -9.513  12.710  70.315  1.00  0.00     4.658 C  
ENDROOT
BRANCH   6  23
HETATM   23  O   UNL     1     -10.755   6.762  66.356  1.00  0.00    -0.039 OA 
HETATM   24  C   UNL     1      -9.830   6.154  65.453  1.00  0.00     0.865 C  
ENDBRANCH   6  23
BRANCH   7  25
HETATM   25  C   UNL     1      -8.667   7.062  68.593  1.00  0.00    -0.123 C  
HETATM   26  C   UNL     1      -5.907   8.339  65.182  1.00  0.00    -0.045 C  
HETATM   27  C   UNL     1      -6.715   8.616  68.937  1.00  0.00    -0.053 A  
HETATM   28  C   UNL     1      -5.348   6.926  64.926  1.00  0.00    -0.027 C  
HETATM   29  N   UNL     1      -6.926   8.266  66.272  1.00  0.00    -0.065 NA 
HETATM   30  C   UNL     1      -6.247   9.424  70.051  1.00  0.00    -0.045 A  
HETATM   31  C   UNL     1      -5.223   6.198  66.109  1.00  0.00    -0.013 C  
HETATM   32  C   UNL     1      -7.748   7.848  69.462  1.00  0.00    -0.104 A  
HETATM   33  C   UNL     1      -6.243   8.810  67.501  1.00  0.00    -0.052 C  
HETATM   34  N   UNL     1      -7.879   8.057  70.801  1.00  0.00    -0.088 NA 
HETATM   35  C   UNL     1      -5.308  10.435  70.145  1.00  0.00    -0.044 A  
HETATM   36  C   UNL     1      -7.452   6.885  66.191  1.00  0.00    -0.080 C  
HETATM   37  C   UNL     1      -7.020   9.084  71.170  1.00  0.00    -0.092 A  
HETATM   38  C   UNL     1      -6.593   5.863  66.835  1.00  0.00    -0.056 C  
HETATM   39  H   UNL     1      -8.501   7.547  71.427  1.00  0.00     0.000 HD 
HETATM   40  C   UNL     1      -6.915   9.776  72.374  1.00  0.00     1.519 A  
HETATM   41  C   UNL     1      -7.402   5.853  68.188  1.00  0.00    -0.081 C  
HETATM   42  C   UNL     1      -5.189  11.154  71.342  1.00  0.00    -0.027 A  
HETATM   43  C   UNL     1      -6.001  10.832  72.427  1.00  0.00     1.472 A  
BRANCH  25  44
HETATM   44  C   UNL     1      -9.794   6.165  69.169  1.00  0.00    -0.145 C  
HETATM   45  O   UNL     1     -10.053   5.008  68.870  1.00  0.00    -0.178 OA 
BRANCH  44  46
HETATM   46  O   UNL     1     -10.370   6.869  70.202  1.00  0.00    -0.193 OA 
HETATM   47  C   UNL     1     -11.567   6.451  70.856  1.00  0.00    -0.331 C  
ENDBRANCH  44  46
ENDBRANCH  25  44
BRANCH  28  48
HETATM   48  C   UNL     1      -5.950   6.330  63.584  1.00  0.00    -0.022 C  
HETATM   49  C   UNL     1      -5.895   4.803  63.208  1.00  0.00    -0.017 C  
ENDBRANCH  28  48
ENDBRANCH   7  25
BRANCH  18  50
HETATM   50  C   UNL     1     -11.521  15.370  67.971  1.00  0.00    -0.333 C  
HETATM   51  C   UNL     1     -11.890  15.824  69.414  1.00  0.00    -0.361 C  
ENDBRANCH  18  50
BRANCH  16  52
HETATM   52  O   UNL     1      -8.196  15.165  66.051  1.00  0.00     0.433 OA 
BRANCH  52  53
HETATM   53  C   UNL     1      -7.786  16.472  66.019  1.00  0.00     0.115 C  
HETATM   54  C   UNL     1      -6.521  16.707  66.814  1.00  0.00    -0.186 C  
HETATM   55  O   UNL     1      -8.434  17.378  65.532  1.00  0.00    -0.242 OA 
ENDBRANCH  52  53
ENDBRANCH  16  52
BRANCH  14  56
HETATM   56  C   UNL     1     -10.858  13.938  64.326  1.00  0.00    -0.165 C  
HETATM   57  O   UNL     1     -11.728  14.801  64.214  1.00  0.00    -0.348 OA 
BRANCH  56  58
HETATM   58  O   UNL     1     -10.263  13.293  63.273  1.00  0.00     0.566 OA 
HETATM   59  C   UNL     1     -10.814  12.032  62.902  1.00  0.00     0.269 C  
ENDBRANCH  56  58
ENDBRANCH  14  56
TORSDOF 10
ENDMDL
MODEL       34
REMARK 921   NORMALIZED FREE ENERGY PREDICTED BY IDOCK:    8.02 KCAL/MOL
REMARK 922        TOTAL FREE ENERGY PREDICTED BY IDOCK:   10.76 KCAL/MOL
REMARK 923 INTER-LIGAND FREE ENERGY PREDICTED BY IDOCK:    4.14 KCAL/MOL
REMARK 924 INTRA-LIGAND FREE ENERGY PREDICTED BY IDOCK:    6.62 KCAL/MOL
REMARK 927      BINDING AFFINITY PREDICTED BY RF-SCORE:    0.00 PKD
ROOT
HETATM    1  C   UNL     1      -7.167  16.865  67.477  1.00  0.00    -0.149 C  
HETATM    2  N   UNL     1      -6.540  15.550  67.545  1.00  0.00    -0.174 NA 
HETATM    3  C   UNL     1      -7.518  14.601  67.399  1.00  0.00    -0.186 A  
HETATM    4  C   UNL     1      -5.131  15.330  67.287  1.00  0.00     0.408 C  
HETATM    5  C   UNL     1      -7.252  13.238  67.390  1.00  0.00    -0.119 A  
HETATM    6  C   UNL     1      -8.254  12.271  67.304  1.00  0.00    -0.182 A  
HETATM    7  C   UNL     1      -9.608  12.689  67.210  1.00  0.00    -0.203 A  
HETATM    8  N   UNL     1     -10.658  18.129  67.050  1.00  0.00    -0.363 NA 
HETATM    9  H   UNL     1      -7.799  17.094  70.722  1.00  0.00     0.000 HD 
HETATM   10  C   UNL     1     -11.406  19.307  67.394  1.00  0.00     0.345 C  
HETATM   11  C   UNL     1      -9.821  14.163  67.131  1.00  0.00    -0.253 A  
HETATM   12  C   UNL     1      -8.800  15.123  67.269  1.00  0.00    -0.216 A  
HETATM   13  O   UNL     1      -7.842  16.695  69.861  1.00  0.00     0.503 OA 
HETATM   14  C   UNL     1      -7.093  17.549  68.950  1.00  0.00    -0.253 C  
HETATM   15  C   UNL     1      -9.376  17.928  67.659  1.00  0.00    -0.258 C  
HETATM   16  C   UNL     1      -7.669  19.041  68.987  1.00  0.00    -0.253 C  
HETATM   17  C   UNL     1      -8.698  16.670  67.014  1.00  0.00    -0.223 C  
HETATM   18  C   UNL     1      -8.408  19.295  67.654  1.00  0.00    -0.325 C  
HETATM   19  C   UNL     1      -9.267  20.568  67.650  1.00  0.00    -0.377 C  
HETATM   20  C   UNL     1      -9.290  16.885  65.580  1.00  0.00     0.191 C  
HETATM   21  C   UNL     1     -10.570  20.558  67.459  1.00  0.00     0.107 C  
HETATM   22  C   UNL     1     -10.731  17.447  65.793  1.00  0.00    -0.120 C  
ENDROOT
BRANCH   6  23
HETATM   23  O   UNL     1      -7.924  10.938  67.325  1.00  0.00    -0.117 OA 
HETATM   24  C   UNL     1      -7.512  10.330  66.099  1.00  0.00    -0.121 C  
ENDBRANCH   6  23
BRANCH   7  25
HETATM   25  C   UNL     1     -10.910  11.624  67.075  1.00  0.00    -0.311 C  
HETATM   26  C   UNL     1      -8.129   9.594  70.080  1.00  0.00    -0.189 C  
HETATM   27  C   UNL     1     -11.293  11.726  69.563  1.00  0.00    -0.317 A  
HETATM   28  C   UNL     1      -8.447   8.161  69.610  1.00  0.00    -0.126 C  
HETATM   29  N   UNL     1      -8.885  10.561  69.229  1.00  0.00    -0.153 NA 
HETATM   30  C   UNL     1     -12.210  12.462  70.418  1.00  0.00    -0.370 A  
HETATM   31  C   UNL     1      -9.778   8.030  69.216  1.00  0.00    -0.167 C  
HETATM   32  C   UNL     1     -11.726  11.987  68.268  1.00  0.00    -0.334 A  
HETATM   33  C   UNL     1     -10.040  11.029  70.078  1.00  0.00     0.714 C  
HETATM   34  N   UNL     1     -12.864  12.733  68.275  1.00  0.00     1.083 NA 
HETATM   35  C   UNL     1     -12.253  12.671  71.784  1.00  0.00     0.606 A  
HETATM   36  C   UNL     1      -9.069   9.853  67.943  1.00  0.00    -0.131 C  
HETATM   37  C   UNL     1     -13.135  13.107  69.584  1.00  0.00     1.339 A  
HETATM   38  C   UNL     1     -10.182   8.874  67.936  1.00  0.00    -0.274 C  
HETATM   39  H   UNL     1     -13.424  12.977  67.458  1.00  0.00     0.000 HD 
HETATM   40  C   UNL     1     -14.071  14.008  70.084  1.00  0.00     2.604 A  
HETATM   41  C   UNL     1     -11.218   9.867  67.281  1.00  0.00     0.135 C  
HETATM   42  C   UNL     1     -13.179  13.580  72.312  1.00  0.00    -0.571 A  
HETATM   43  C   UNL     1     -14.058  14.247  71.461  1.00  0.00    -0.400 A  
BRANCH  25  44
HETATM   44  C   UNL     1     -11.401  11.867  65.625  1.00  0.00    -0.284 C  
HETATM   45  O   UNL     1     -12.492  12.288  65.268  1.00  0.00    -0.585 OA 
BRANCH  44  46
HETATM   46  O   UNL     1     -10.319  11.659  64.800  1.00  0.00    -0.254 OA 
HETATM   47  C   UNL     1     -10.401  10.927  63.579  1.00  0.00    -0.277 C  
ENDBRANCH  44  46
ENDBRANCH  25  44
BRANCH  28  48
HETATM   48  C   UNL     1      -7.224   7.565  68.792  1.00  0.00    -0.082 C  
HETATM   49  C   UNL     1      -5.723   7.940  69.074  1.00  0.00    -0.034 C  
ENDBRANCH  28  48
ENDBRANCH   7  25
BRANCH  18  50
HETATM   50  C   UNL     1      -7.384  19.672  66.468  1.00  0.00    -0.262 C  
HETATM   51  C   UNL     1      -6.744  21.090  66.518  1.00  0.00    -0.281 C  
ENDBRANCH  18  50
BRANCH  16  52
HETATM   52  O   UNL     1      -8.647  19.254  70.075  1.00  0.00     0.697 OA 
BRANCH  52  53
HETATM   53  C   UNL     1      -8.421  20.355  70.859  1.00  0.00     2.027 C  
HETATM   54  C   UNL     1      -7.096  20.293  71.585  1.00  0.00     0.963 C  
HETATM   55  O   UNL     1      -9.246  21.224  71.069  1.00  0.00     2.314 OA 
ENDBRANCH  52  53
ENDBRANCH  16  52
BRANCH  14  56
HETATM   56  C   UNL     1      -5.673  17.717  69.473  1.00  0.00    -0.226 C  
HETATM   57  O   UNL     1      -5.134  18.784  69.765  1.00  0.00    -0.169 OA 
BRANCH  56  58
HETATM   58  O   UNL     1      -5.140  16.481  69.729  1.00  0.00    -0.131 OA 
HETATM   59  C   UNL     1      -5.171  16.039  71.083  1.00  0.00    -0.076 C  
ENDBRANCH  56  58
ENDBRANCH  14  56
TORSDOF 10
ENDMDL
MODEL       35
REMARK 921   NORMALIZED FREE ENERGY PREDICTED BY IDOCK:    9.08 KCAL/MOL
REMARK 922        TOTAL FREE ENERGY PREDICTED BY IDOCK:   12.42 KCAL/MOL
REMARK 923 INTER-LIGAND FREE ENERGY PREDICTED BY IDOCK:    9.63 KCAL/MOL
REMARK 924 INTRA-LIGAND FREE ENERGY PREDICTED BY IDOCK:    2.80 KCAL/MOL
REMARK 927      BINDING AFFINITY PREDICTED BY RF-SCORE:    0.00 PKD
ROOT
HETATM    1  C   UNL     1      -8.690  15.657  69.410  1.00  0.00    -0.249 C  
HETATM    2  N   UNL     1      -8.003  14.609  70.156  1.00  0.00     0.497 NA 
HETATM    3  C   UNL     1      -7.765  13.561  69.304  1.00  0.00     0.345 A  
HETATM    4  C   UNL     1      -7.270  14.859  71.381  1.00  0.00     2.034 C  
HETATM    5  C   UNL     1      -7.099  12.406  69.694  1.00  0.00     0.359 A  
HETATM    6  C   UNL     1      -6.913  11.316  68.845  1.00  0.00    -0.099 A  
HETATM    7  C   UNL     1      -7.412  11.383  67.517  1.00  0.00    -0.113 A  
HETATM    8  N   UNL     1      -9.899  16.065  65.897  1.00  0.00    -0.328 NA 
HETATM    9  H   UNL     1     -11.749  14.539  70.017  1.00  0.00     0.000 HD 
HETATM   10  C   UNL     1     -10.915  16.811  65.209  1.00  0.00    -0.078 C  
HETATM   11  C   UNL     1      -8.034  12.683  67.131  1.00  0.00    -0.123 A  
HETATM   12  C   UNL     1      -8.257  13.754  68.018  1.00  0.00    -0.164 A  
HETATM   13  O   UNL     1     -10.856  14.478  69.698  1.00  0.00    -0.229 OA 
HETATM   14  C   UNL     1     -10.217  15.761  69.954  1.00  0.00    -0.273 C  
HETATM   15  C   UNL     1      -9.953  15.989  67.327  1.00  0.00    -0.242 C  
HETATM   16  C   UNL     1     -11.053  16.943  69.275  1.00  0.00    -0.010 C  
HETATM   17  C   UNL     1      -8.665  15.261  67.847  1.00  0.00    -0.164 C  
HETATM   18  C   UNL     1     -10.241  17.463  68.068  1.00  0.00    -0.345 C  
HETATM   19  C   UNL     1     -11.034  18.392  67.137  1.00  0.00    -0.113 C  
HETATM   20  C   UNL     1      -7.706  15.819  66.743  1.00  0.00    -0.216 C  
HETATM   21  C   UNL     1     -11.254  18.124  65.866  1.00  0.00     0.832 C  
HETATM   22  C   UNL     1      -8.556  15.885  65.434  1.00  0.00     1.685 C  
ENDROOT
BRANCH   6  23
HETATM   23  O   UNL     1      -6.266  10.194  69.302  1.00  0.00    -0.043 OA 
HETATM   24  C   UNL     1      -5.572  10.280  70.548  1.00  0.00    -0.078 C  
ENDBRANCH   6  23
BRANCH   7  25
HETATM   25  C   UNL     1      -7.232  10.146  66.384  1.00  0.00    -0.108 C  
HETATM   26  C   UNL     1     -10.337   8.516  69.313  1.00  0.00    -0.221 C  
HETATM   27  C   UNL     1      -9.703  10.183  65.901  1.00  0.00    -0.292 A  
HETATM   28  C   UNL     1      -9.857   7.055  69.217  1.00  0.00    -0.159 C  
HETATM   29  N   UNL     1      -9.458   9.371  68.459  1.00  0.00    -0.145 NA 
HETATM   30  C   UNL     1     -10.524  10.780  64.859  1.00  0.00    -0.324 A  
HETATM   31  C   UNL     1      -9.416   6.740  67.933  1.00  0.00    -0.118 C  
HETATM   32  C   UNL     1      -8.393  10.386  65.482  1.00  0.00    -0.168 A  
HETATM   33  C   UNL     1     -10.264   9.668  67.220  1.00  0.00    -0.233 C  
HETATM   34  N   UNL     1      -8.359  10.965  64.251  1.00  0.00    -0.371 NA 
HETATM   35  C   UNL     1     -11.887  10.975  64.738  1.00  0.00     0.993 A  
HETATM   36  C   UNL     1      -8.167   8.649  68.424  1.00  0.00    -0.122 C  
HETATM   37  C   UNL     1      -9.657  11.291  63.884  1.00  0.00    -0.245 A  
HETATM   38  C   UNL     1      -8.121   7.523  67.460  1.00  0.00    -0.113 C  
HETATM   39  H   UNL     1      -7.521  11.130  63.692  1.00  0.00     0.000 HD 
HETATM   40  C   UNL     1     -10.122  12.050  62.812  1.00  0.00     0.442 A  
HETATM   41  C   UNL     1      -7.428   8.362  66.319  1.00  0.00    -0.089 C  
HETATM   42  C   UNL     1     -12.381  11.743  63.674  1.00  0.00    -0.488 A  
HETATM   43  C   UNL     1     -11.498  12.283  62.742  1.00  0.00     0.605 A  
BRANCH  25  44
HETATM   44  C   UNL     1      -5.764  10.324  65.915  1.00  0.00    -0.085 C  
HETATM   45  O   UNL     1      -5.198  11.364  65.612  1.00  0.00    -0.284 OA 
BRANCH  44  46
HETATM   46  O   UNL     1      -5.156   9.095  66.044  1.00  0.00    -0.035 OA 
HETATM   47  C   UNL     1      -5.250   8.073  65.053  1.00  0.00    -0.032 C  
ENDBRANCH  44  46
ENDBRANCH  25  44
BRANCH  28  48
HETATM   48  C   UNL     1      -9.085   6.640  70.540  1.00  0.00    -0.152 C  
HETATM   49  C   UNL     1      -8.015   5.488  70.599  1.00  0.00    -0.103 C  
ENDBRANCH  28  48
ENDBRANCH   7  25
BRANCH  18  50
HETATM   50  C   UNL     1      -9.083  18.486  68.526  1.00  0.00    -0.353 C  
HETATM   51  C   UNL     1      -8.736  19.641  67.541  1.00  0.00    -0.364 C  
ENDBRANCH  18  50
BRANCH  16  52
HETATM   52  O   UNL     1     -12.366  16.498  68.758  1.00  0.00     0.407 OA 
BRANCH  52  53
HETATM   53  C   UNL     1     -13.049  15.628  69.567  1.00  0.00     0.930 C  
HETATM   54  C   UNL     1     -13.188  14.251  68.957  1.00  0.00     2.248 C  
HETATM   55  O   UNL     1     -13.612  15.951  70.595  1.00  0.00    -0.261 OA 
ENDBRANCH  52  53
ENDBRANCH  16  52
BRANCH  14  56
HETATM   56  C   UNL     1     -10.314  16.083  71.439  1.00  0.00     1.537 C  
HETATM   57  O   UNL     1     -10.115  17.183  71.953  1.00  0.00     4.440 OA 
BRANCH  56  58
HETATM   58  O   UNL     1     -10.821  14.995  72.102  1.00  0.00     0.101 OA 
HETATM   59  C   UNL     1     -11.635  15.263  73.240  1.00  0.00    -0.100 C  
ENDBRANCH  56  58
ENDBRANCH  14  56
TORSDOF 10
ENDMDL
MODEL       36
REMARK 921   NORMALIZED FREE ENERGY PREDICTED BY IDOCK:   10.01 KCAL/MOL
REMARK 922        TOTAL FREE ENERGY PREDICTED BY IDOCK:   13.91 KCAL/MOL
REMARK 923 INTER-LIGAND FREE ENERGY PREDICTED BY IDOCK:    7.57 KCAL/MOL
REMARK 924 INTRA-LIGAND FREE ENERGY PREDICTED BY IDOCK:    6.34 KCAL/MOL
REMARK 927      BINDING AFFINITY PREDICTED BY RF-SCORE:    0.00 PKD
ROOT
HETATM    1  C   UNL     1      -7.622  10.674  66.787  1.00  0.00    -0.120 C  
HETATM    2  N   UNL     1      -6.514  10.175  67.594  1.00  0.00    -0.062 NA 
HETATM    3  C   UNL     1      -6.931   9.037  68.236  1.00  0.00    -0.076 A  
HETATM    4  C   UNL     1      -5.130  10.519  67.339  1.00  0.00    -0.037 C  
HETATM    5  C   UNL     1      -6.104   8.294  69.069  1.00  0.00    -0.043 A  
HETATM    6  C   UNL     1      -6.547   7.173  69.770  1.00  0.00    -0.044 A  
HETATM    7  C   UNL     1      -7.896   6.758  69.626  1.00  0.00    -0.115 A  
HETATM    8  N   UNL     1     -11.147   9.606  66.156  1.00  0.00     0.701 NA 
HETATM    9  H   UNL     1      -8.936  12.565  69.169  1.00  0.00     0.000 HD 
HETATM   10  C   UNL     1     -12.385  10.222  65.764  1.00  0.00     6.474 C  
HETATM   11  C   UNL     1      -8.707   7.540  68.648  1.00  0.00    -0.128 A  
HETATM   12  C   UNL     1      -8.256   8.699  67.987  1.00  0.00    -0.115 A  
HETATM   13  O   UNL     1      -8.626  11.753  68.785  1.00  0.00    -0.101 OA 
HETATM   14  C   UNL     1      -8.154  12.063  67.444  1.00  0.00    -0.168 C  
HETATM   15  C   UNL     1     -10.059  10.448  66.558  1.00  0.00    -0.228 C  
HETATM   16  C   UNL     1      -9.314  12.763  66.594  1.00  0.00    -0.242 C  
HETATM   17  C   UNL     1      -8.787   9.560  66.785  1.00  0.00    -0.145 C  
HETATM   18  C   UNL     1      -9.802  11.749  65.535  1.00  0.00    -0.262 C  
HETATM   19  C   UNL     1     -11.107  12.156  64.836  1.00  0.00    -0.367 C  
HETATM   20  C   UNL     1      -9.107   8.526  65.654  1.00  0.00    -0.189 C  
HETATM   21  C   UNL     1     -12.208  11.435  64.887  1.00  0.00     0.825 C  
HETATM   22  C   UNL     1     -10.659   8.355  65.660  1.00  0.00     2.495 C  
ENDROOT
BRANCH   6  23
HETATM   23  O   UNL     1      -5.682   6.496  70.596  1.00  0.00    -0.022 OA 
HETATM   24  C   UNL     1      -5.487   6.997  71.920  1.00  0.00    -0.036 C  
ENDBRANCH   6  23
BRANCH   7  25
HETATM   25  C   UNL     1      -8.549   5.407  70.398  1.00  0.00    -0.127 C  
HETATM   26  C   UNL     1     -12.182   8.032  69.505  1.00  0.00     1.813 C  
HETATM   27  C   UNL     1     -10.079   4.987  68.441  1.00  0.00    -0.176 A  
HETATM   28  C   UNL     1     -12.941   7.651  70.790  1.00  0.00     0.132 C  
HETATM   29  N   UNL     1     -10.857   7.339  69.502  1.00  0.00    -0.233 NA 
HETATM   30  C   UNL     1     -10.037   4.094  67.294  1.00  0.00     0.035 A  
HETATM   31  C   UNL     1     -12.718   6.322  71.147  1.00  0.00     0.489 C  
HETATM   32  C   UNL     1      -9.014   4.590  69.242  1.00  0.00    -0.096 A  
HETATM   33  C   UNL     1     -11.003   6.195  68.531  1.00  0.00    -0.320 C  
HETATM   34  N   UNL     1      -8.400   3.490  68.726  1.00  0.00    -0.071 NA 
HETATM   35  C   UNL     1     -10.769   4.038  66.123  1.00  0.00     0.907 A  
HETATM   36  C   UNL     1     -10.543   7.143  70.935  1.00  0.00    -0.220 C  
HETATM   37  C   UNL     1      -8.960   3.217  67.486  1.00  0.00    -0.158 A  
HETATM   38  C   UNL     1     -11.224   5.982  71.557  1.00  0.00    -0.326 C  
HETATM   39  H   UNL     1      -7.655   2.957  69.175  1.00  0.00     0.000 HD 
HETATM   40  C   UNL     1      -8.560   2.317  66.500  1.00  0.00    -0.112 A  
HETATM   41  C   UNL     1      -9.996   5.008  71.384  1.00  0.00    -0.259 C  
HETATM   42  C   UNL     1     -10.383   3.149  65.111  1.00  0.00     0.518 A  
HETATM   43  C   UNL     1      -9.280   2.320  65.302  1.00  0.00    -0.083 A  
BRANCH  25  44
HETATM   44  C   UNL     1      -7.394   4.952  71.326  1.00  0.00    -0.069 C  
HETATM   45  O   UNL     1      -7.212   5.258  72.496  1.00  0.00    -0.087 OA 
BRANCH  44  46
HETATM   46  O   UNL     1      -6.674   4.009  70.630  1.00  0.00    -0.031 OA 
HETATM   47  C   UNL     1      -5.266   4.101  70.421  1.00  0.00    -0.004 C  
ENDBRANCH  44  46
ENDBRANCH  25  44
BRANCH  28  48
HETATM   48  C   UNL     1     -12.917   8.856  71.823  1.00  0.00    -0.418 C  
HETATM   49  C   UNL     1     -12.792  10.366  71.397  1.00  0.00    -0.556 C  
ENDBRANCH  28  48
ENDBRANCH   7  25
BRANCH  18  50
HETATM   50  C   UNL     1      -8.825  11.711  64.253  1.00  0.00     0.539 C  
HETATM   51  C   UNL     1      -9.368  11.000  62.979  1.00  0.00    -0.363 C  
ENDBRANCH  18  50
BRANCH  16  52
HETATM   52  O   UNL     1     -10.487  13.133  67.415  1.00  0.00    -0.240 OA 
BRANCH  52  53
HETATM   53  C   UNL     1     -10.529  14.441  67.821  1.00  0.00    -0.245 C  
HETATM   54  C   UNL     1     -11.132  15.356  66.778  1.00  0.00    -0.244 C  
HETATM   55  O   UNL     1     -10.013  14.857  68.840  1.00  0.00    -0.222 OA 
ENDBRANCH  52  53
ENDBRANCH  16  52
BRANCH  14  56
HETATM   56  C   UNL     1      -7.087  13.146  67.524  1.00  0.00    -0.150 C  
HETATM   57  O   UNL     1      -7.100  14.217  66.918  1.00  0.00     0.129 OA 
BRANCH  56  58
HETATM   58  O   UNL     1      -6.189  12.819  68.506  1.00  0.00    -0.061 OA 
HETATM   59  C   UNL     1      -6.101  13.710  69.615  1.00  0.00    -0.120 C  
ENDBRANCH  56  58
ENDBRANCH  14  56
TORSDOF 10
ENDMDL
MODEL       37
REMARK 921   NORMALIZED FREE ENERGY PREDICTED BY IDOCK:   13.94 KCAL/MOL
REMARK 922        TOTAL FREE ENERGY PREDICTED BY IDOCK:   20.13 KCAL/MOL
REMARK 923 INTER-LIGAND FREE ENERGY PREDICTED BY IDOCK:    2.80 KCAL/MOL
REMARK 924 INTRA-LIGAND FREE ENERGY PREDICTED BY IDOCK:   17.34 KCAL/MOL
REMARK 927      BINDING AFFINITY PREDICTED BY RF-SCORE:    0.00 PKD
ROOT
HETATM    1  C   UNL     1     -10.187  13.831  69.161  1.00  0.00     0.079 C  
HETATM    2  N   UNL     1     -10.668  12.518  69.576  1.00  0.00     0.177 NA 
HETATM    3  C   UNL     1      -9.741  11.582  69.195  1.00  0.00     0.148 A  
HETATM    4  C   UNL     1     -11.647  12.328  70.627  1.00  0.00     0.519 C  
HETATM    5  C   UNL     1      -9.881  10.227  69.464  1.00  0.00    -0.244 A  
HETATM    6  C   UNL     1      -8.969   9.269  69.021  1.00  0.00    -0.140 A  
HETATM    7  C   UNL     1      -7.839   9.688  68.271  1.00  0.00    -0.085 A  
HETATM    8  N   UNL     1      -7.174  15.115  67.361  1.00  0.00    -0.203 NA 
HETATM    9  H   UNL     1     -11.581  13.755  66.157  1.00  0.00     0.000 HD 
HETATM   10  C   UNL     1      -6.830  16.253  66.554  1.00  0.00     0.224 C  
HETATM   11  C   UNL     1      -7.696  11.163  68.096  1.00  0.00    -0.107 A  
HETATM   12  C   UNL     1      -8.653  12.110  68.508  1.00  0.00    -0.079 A  
HETATM   13  O   UNL     1     -11.023  13.437  66.857  1.00  0.00    -0.278 OA 
HETATM   14  C   UNL     1     -11.142  14.375  67.964  1.00  0.00    -0.272 C  
HETATM   15  C   UNL     1      -8.558  14.863  67.637  1.00  0.00    -0.174 C  
HETATM   16  C   UNL     1     -10.774  15.854  67.481  1.00  0.00    -0.318 C  
HETATM   17  C   UNL     1      -8.666  13.674  68.653  1.00  0.00    -0.027 C  
HETATM   18  C   UNL     1      -9.409  16.228  68.103  1.00  0.00    -0.210 C  
HETATM   19  C   UNL     1      -8.777  17.493  67.504  1.00  0.00    -0.225 C  
HETATM   20  C   UNL     1      -7.361  14.019  69.446  1.00  0.00     0.077 C  
HETATM   21  C   UNL     1      -7.609  17.497  66.894  1.00  0.00    -0.245 C  
HETATM   22  C   UNL     1      -6.346  14.553  68.385  1.00  0.00    -0.101 C  
ENDROOT
BRANCH   6  23
HETATM   23  O   UNL     1      -9.180   7.941  69.302  1.00  0.00    -0.148 OA 
HETATM   24  C   UNL     1     -10.275   7.601  70.154  1.00  0.00    -0.204 C  
ENDBRANCH   6  23
BRANCH   7  25
HETATM   25  C   UNL     1      -6.650   8.635  67.699  1.00  0.00    -0.062 C  
HETATM   26  C   UNL     1      -7.460   7.180  71.955  1.00  0.00    -0.085 C  
HETATM   27  C   UNL     1      -8.120   6.652  68.199  1.00  0.00    -0.111 A  
HETATM   28  C   UNL     1      -6.001   6.772  72.236  1.00  0.00    -0.038 C  
HETATM   29  N   UNL     1      -7.542   7.767  70.583  1.00  0.00    -0.077 NA 
HETATM   30  C   UNL     1      -8.999   5.814  67.398  1.00  0.00    -0.108 A  
HETATM   31  C   UNL     1      -5.377   6.266  71.097  1.00  0.00    -0.018 C  
HETATM   32  C   UNL     1      -7.461   7.459  67.278  1.00  0.00    -0.103 A  
HETATM   33  C   UNL     1      -8.157   6.694  69.721  1.00  0.00    -0.126 C  
HETATM   34  N   UNL     1      -7.798   7.119  66.003  1.00  0.00    -0.102 NA 
HETATM   35  C   UNL     1      -9.962   4.879  67.732  1.00  0.00    -0.186 A  
HETATM   36  C   UNL     1      -6.190   8.318  70.339  1.00  0.00    -0.035 C  
HETATM   37  C   UNL     1      -8.805   6.166  66.055  1.00  0.00    -0.153 A  
HETATM   38  C   UNL     1      -5.186   7.311  69.920  1.00  0.00    -0.019 C  
HETATM   39  H   UNL     1      -7.380   7.501  65.155  1.00  0.00     0.000 HD 
HETATM   40  C   UNL     1      -9.597   5.642  65.036  1.00  0.00     0.532 A  
HETATM   41  C   UNL     1      -5.342   7.610  68.380  1.00  0.00    -0.027 C  
HETATM   42  C   UNL     1     -10.778   4.344  66.728  1.00  0.00     0.687 A  
HETATM   43  C   UNL     1     -10.601   4.743  65.405  1.00  0.00    -0.105 A  
BRANCH  25  44
HETATM   44  C   UNL     1      -5.873   9.515  66.687  1.00  0.00    -0.055 C  
HETATM   45  O   UNL     1      -5.774   9.353  65.479  1.00  0.00    -0.051 OA 
BRANCH  44  46
HETATM   46  O   UNL     1      -5.425  10.616  67.382  1.00  0.00    -0.040 OA 
HETATM   47  C   UNL     1      -5.353  11.921  66.810  1.00  0.00    -0.051 C  
ENDBRANCH  44  46
ENDBRANCH  25  44
BRANCH  28  48
HETATM   48  C   UNL     1      -5.320   7.808  73.227  1.00  0.00    -0.044 C  
HETATM   49  C   UNL     1      -6.096   8.983  73.927  1.00  0.00    -0.007 C  
ENDBRANCH  28  48
ENDBRANCH   7  25
BRANCH  18  50
HETATM   50  C   UNL     1      -9.567  16.718  69.630  1.00  0.00     0.272 C  
HETATM   51  C   UNL     1      -9.399  18.243  69.899  1.00  0.00     1.241 C  
ENDBRANCH  18  50
BRANCH  16  52
HETATM   52  O   UNL     1     -10.628  15.962  66.013  1.00  0.00    -0.317 OA 
BRANCH  52  53
HETATM   53  C   UNL     1     -10.925  17.190  65.483  1.00  0.00     0.064 C  
HETATM   54  C   UNL     1     -11.112  18.253  66.541  1.00  0.00     0.431 C  
HETATM   55  O   UNL     1     -11.159  17.386  64.305  1.00  0.00    -0.659 OA 
ENDBRANCH  52  53
ENDBRANCH  16  52
BRANCH  14  56
HETATM   56  C   UNL     1     -12.606  14.499  68.361  1.00  0.00     0.485 C  
HETATM   57  O   UNL     1     -13.546  14.711  67.595  1.00  0.00     3.718 OA 
BRANCH  56  58
HETATM   58  O   UNL     1     -12.741  14.171  69.685  1.00  0.00    -0.169 OA 
HETATM   59  C   UNL     1     -13.470  15.085  70.500  1.00  0.00    -0.050 C  
ENDBRANCH  56  58
ENDBRANCH  14  56
TORSDOF 10
ENDMDL
MODEL       38
REMARK 921   NORMALIZED FREE ENERGY PREDICTED BY IDOCK:   14.82 KCAL/MOL
REMARK 922        TOTAL FREE ENERGY PREDICTED BY IDOCK:   21.53 KCAL/MOL
REMARK 923 INTER-LIGAND FREE ENERGY PREDICTED BY IDOCK:   14.46 KCAL/MOL
REMARK 924 INTRA-LIGAND FREE ENERGY PREDICTED BY IDOCK:    7.07 KCAL/MOL
REMARK 927      BINDING AFFINITY PREDICTED BY RF-SCORE:    0.00 PKD
ROOT
HETATM    1  C   UNL     1     -10.465  13.944  68.431  1.00  0.00    -0.247 C  
HETATM    2  N   UNL     1     -10.073  13.315  69.688  1.00  0.00     0.849 NA 
HETATM    3  C   UNL     1      -9.351  12.187  69.395  1.00  0.00     1.057 A  
HETATM    4  C   UNL     1     -10.012  14.030  70.946  1.00  0.00     3.651 C  
HETATM    5  C   UNL     1      -8.803  11.366  70.372  1.00  0.00     3.654 A  
HETATM    6  C   UNL     1      -8.123  10.185  70.075  1.00  0.00    -0.061 A  
HETATM    7  C   UNL     1      -7.968   9.802  68.717  1.00  0.00    -0.087 A  
HETATM    8  N   UNL     1      -9.986  13.173  64.806  1.00  0.00    -0.190 NA 
HETATM    9  H   UNL     1     -13.309  12.276  68.104  1.00  0.00     0.000 HD 
HETATM   10  C   UNL     1     -10.660  13.451  63.568  1.00  0.00     0.889 C  
HETATM   11  C   UNL     1      -8.497  10.771  67.712  1.00  0.00    -0.120 A  
HETATM   12  C   UNL     1      -9.224  11.933  68.034  1.00  0.00    -0.190 A  
HETATM   13  O   UNL     1     -12.368  12.366  68.206  1.00  0.00    -0.170 OA 
HETATM   14  C   UNL     1     -12.073  13.790  68.258  1.00  0.00    -0.279 C  
HETATM   15  C   UNL     1     -10.674  13.435  66.036  1.00  0.00    -0.278 C  
HETATM   16  C   UNL     1     -12.644  14.524  66.956  1.00  0.00     0.436 C  
HETATM   17  C   UNL     1      -9.687  13.202  67.231  1.00  0.00    -0.230 C  
HETATM   18  C   UNL     1     -11.441  14.923  66.073  1.00  0.00    -0.275 C  
HETATM   19  C   UNL     1     -11.828  15.370  64.656  1.00  0.00    -0.218 C  
HETATM   20  C   UNL     1      -8.405  13.698  66.482  1.00  0.00     0.434 C  
HETATM   21  C   UNL     1     -11.414  14.755  63.567  1.00  0.00     1.338 C  
HETATM   22  C   UNL     1      -8.568  13.229  65.001  1.00  0.00     3.088 C  
ENDROOT
BRANCH   6  23
HETATM   23  O   UNL     1      -7.625   9.407  71.092  1.00  0.00    -0.306 OA 
HETATM   24  C   UNL     1      -8.554   8.823  72.006  1.00  0.00    -0.062 C  
ENDBRANCH   6  23
BRANCH   7  25
HETATM   25  C   UNL     1      -7.147   8.414  68.222  1.00  0.00    -0.085 C  
HETATM   26  C   UNL     1     -11.533   7.135  68.294  1.00  0.00     0.555 C  
HETATM   27  C   UNL     1      -8.556   8.281  66.139  1.00  0.00    -0.156 A  
HETATM   28  C   UNL     1     -11.245   5.696  68.764  1.00  0.00     0.281 C  
HETATM   29  N   UNL     1     -10.242   7.881  68.204  1.00  0.00    -0.199 NA 
HETATM   30  C   UNL     1      -8.359   8.679  64.754  1.00  0.00    -0.167 A  
HETATM   31  C   UNL     1     -10.058   5.204  68.223  1.00  0.00    -0.199 C  
HETATM   32  C   UNL     1      -7.318   8.467  66.743  1.00  0.00    -0.082 A  
HETATM   33  C   UNL     1      -9.921   7.954  66.732  1.00  0.00    -0.263 C  
HETATM   34  N   UNL     1      -6.383   8.851  65.831  1.00  0.00    -0.056 NA 
HETATM   35  C   UNL     1      -9.224   8.802  63.682  1.00  0.00     0.813 A  
HETATM   36  C   UNL     1      -9.361   7.212  69.186  1.00  0.00    -0.141 C  
HETATM   37  C   UNL     1      -7.019   9.068  64.616  1.00  0.00    -0.085 A  
HETATM   38  C   UNL     1      -8.745   5.955  68.700  1.00  0.00    -0.109 C  
HETATM   39  H   UNL     1      -5.385   8.961  66.010  1.00  0.00     0.000 HD 
HETATM   40  C   UNL     1      -6.535   9.635  63.439  1.00  0.00    -0.108 A  
HETATM   41  C   UNL     1      -7.386   6.635  68.280  1.00  0.00    -0.090 C  
HETATM   42  C   UNL     1      -8.766   9.377  62.490  1.00  0.00    -0.238 A  
HETATM   43  C   UNL     1      -7.442   9.801  62.390  1.00  0.00    -0.121 A  
BRANCH  25  44
HETATM   44  C   UNL     1      -5.764   8.573  68.905  1.00  0.00    -0.040 C  
HETATM   45  O   UNL     1      -5.239   7.819  69.712  1.00  0.00    -0.022 OA 
BRANCH  44  46
HETATM   46  O   UNL     1      -5.157   9.662  68.322  1.00  0.00    -0.034 OA 
HETATM   47  C   UNL     1      -5.246  10.982  68.857  1.00  0.00    -0.040 C  
ENDBRANCH  44  46
ENDBRANCH  25  44
BRANCH  28  48
HETATM   48  C   UNL     1     -11.659   5.518  70.286  1.00  0.00     0.988 C  
HETATM   49  C   UNL     1     -12.121   6.707  71.207  1.00  0.00    -0.395 C  
ENDBRANCH  28  48
ENDBRANCH   7  25
BRANCH  18  50
HETATM   50  C   UNL     1     -10.748  16.284  66.590  1.00  0.00    -0.197 C  
HETATM   51  C   UNL     1     -10.505  17.395  65.528  1.00  0.00    -0.112 C  
ENDBRANCH  18  50
BRANCH  16  52
HETATM   52  O   UNL     1     -13.515  13.652  66.139  1.00  0.00     0.254 OA 
BRANCH  52  53
HETATM   53  C   UNL     1     -12.906  12.542  65.614  1.00  0.00     0.706 C  
HETATM   54  C   UNL     1     -13.401  12.207  64.225  1.00  0.00     0.458 C  
HETATM   55  O   UNL     1     -12.157  11.816  66.238  1.00  0.00    -0.446 OA 
ENDBRANCH  52  53
ENDBRANCH  16  52
BRANCH  14  56
HETATM   56  C   UNL     1     -12.871  14.427  69.387  1.00  0.00     0.503 C  
HETATM   57  O   UNL     1     -13.176  15.616  69.474  1.00  0.00     0.421 OA 
BRANCH  56  58
HETATM   58  O   UNL     1     -13.346  13.441  70.213  1.00  0.00     0.404 OA 
HETATM   59  C   UNL     1     -13.791  13.847  71.504  1.00  0.00    -0.218 C  
ENDBRANCH  56  58
ENDBRANCH  14  56
TORSDOF 10
ENDMDL
MODEL       39
REMARK 921   NORMALIZED FREE ENERGY PREDICTED BY IDOCK:   16.69 KCAL/MOL
REMARK 922        TOTAL FREE ENERGY PREDICTED BY IDOCK:   24.48 KCAL/MOL
REMARK 923 INTER-LIGAND FREE ENERGY PREDICTED BY IDOCK:    7.71 KCAL/MOL
REMARK 924 INTRA-LIGAND FREE ENERGY PREDICTED BY IDOCK:   16.77 KCAL/MOL
REMARK 927      BINDING AFFINITY PREDICTED BY RF-SCORE:    0.00 PKD
ROOT
HETATM    1  C   UNL     1     -10.412   7.581  69.629  1.00  0.00    -0.234 C  
HETATM    2  N   UNL     1     -11.124   8.752  70.130  1.00  0.00    -0.236 NA 
HETATM    3  C   UNL     1     -10.600   9.864  69.522  1.00  0.00    -0.242 A  
HETATM    4  C   UNL     1     -12.442   8.683  70.727  1.00  0.00     0.111 C  
HETATM    5  C   UNL     1     -11.074  11.148  69.759  1.00  0.00    -0.271 A  
HETATM    6  C   UNL     1     -10.499  12.284  69.189  1.00  0.00     0.082 A  
HETATM    7  C   UNL     1      -9.389  12.132  68.319  1.00  0.00    -0.198 A  
HETATM    8  N   UNL     1      -7.616   6.997  67.220  1.00  0.00    -0.105 NA 
HETATM    9  H   UNL     1      -8.025   7.644  71.925  1.00  0.00     0.000 HD 
HETATM   10  C   UNL     1      -6.600   6.004  66.999  1.00  0.00    -0.056 C  
HETATM   11  C   UNL     1      -8.986  10.725  68.032  1.00  0.00    -0.139 A  
HETATM   12  C   UNL     1      -9.547   9.594  68.656  1.00  0.00    -0.154 A  
HETATM   13  O   UNL     1      -8.553   8.000  71.220  1.00  0.00    -0.115 OA 
HETATM   14  C   UNL     1      -9.509   6.972  70.835  1.00  0.00    -0.160 C  
HETATM   15  C   UNL     1      -8.337   6.977  68.458  1.00  0.00    -0.121 C  
HETATM   16  C   UNL     1      -8.747   5.624  70.437  1.00  0.00    -0.133 C  
HETATM   17  C   UNL     1      -9.483   8.045  68.397  1.00  0.00    -0.148 C  
HETATM   18  C   UNL     1      -8.861   5.450  68.906  1.00  0.00    -0.105 C  
HETATM   19  C   UNL     1      -7.936   4.368  68.330  1.00  0.00    -0.078 C  
HETATM   20  C   UNL     1      -9.780   7.877  66.869  1.00  0.00    -0.285 C  
HETATM   21  C   UNL     1      -6.999   4.620  67.438  1.00  0.00    -0.061 C  
HETATM   22  C   UNL     1      -8.397   7.615  66.192  1.00  0.00    -0.134 C  
ENDROOT
BRANCH   6  23
HETATM   23  O   UNL     1     -11.004  13.528  69.484  1.00  0.00    -0.124 OA 
HETATM   24  C   UNL     1     -12.421  13.705  69.443  1.00  0.00     0.008 C  
ENDBRANCH   6  23
BRANCH   7  25
HETATM   25  C   UNL     1      -8.620  13.420  67.546  1.00  0.00    -0.200 C  
HETATM   26  C   UNL     1     -12.637  13.081  65.394  1.00  0.00    -0.422 C  
HETATM   27  C   UNL     1     -10.566  14.934  68.059  1.00  0.00    -0.248 A  
HETATM   28  C   UNL     1     -12.081  13.475  64.012  1.00  0.00    -0.494 C  
HETATM   29  N   UNL     1     -11.512  13.052  66.377  1.00  0.00    -0.324 NA 
HETATM   30  C   UNL     1     -10.831  15.934  69.082  1.00  0.00    -0.268 A  
HETATM   31  C   UNL     1     -11.067  14.427  64.115  1.00  0.00     0.125 C  
HETATM   32  C   UNL     1      -9.229  14.595  68.230  1.00  0.00    -0.198 A  
HETATM   33  C   UNL     1     -11.652  14.315  67.188  1.00  0.00    -0.380 C  
HETATM   34  N   UNL     1      -8.651  15.362  69.196  1.00  0.00    -0.226 NA 
HETATM   35  C   UNL     1     -11.984  16.587  69.477  1.00  0.00     0.531 A  
HETATM   36  C   UNL     1     -10.316  12.753  65.558  1.00  0.00    -0.284 C  
HETATM   37  C   UNL     1      -9.639  16.135  69.790  1.00  0.00     0.066 A  
HETATM   38  C   UNL     1      -9.753  13.925  64.846  1.00  0.00     0.185 C  
HETATM   39  H   UNL     1      -7.661  15.367  69.440  1.00  0.00     0.000 HD 
HETATM   40  C   UNL     1      -9.586  16.936  70.929  1.00  0.00     3.829 A  
HETATM   41  C   UNL     1      -8.654  14.219  65.938  1.00  0.00     1.138 C  
HETATM   42  C   UNL     1     -11.961  17.391  70.624  1.00  0.00     3.950 A  
HETATM   43  C   UNL     1     -10.777  17.540  71.341  1.00  0.00     2.313 A  
BRANCH  25  44
HETATM   44  C   UNL     1      -7.119  13.059  67.691  1.00  0.00    -0.156 C  
HETATM   45  O   UNL     1      -6.602  11.957  67.578  1.00  0.00    -0.084 OA 
BRANCH  44  46
HETATM   46  O   UNL     1      -6.438  14.247  67.830  1.00  0.00    -0.136 OA 
HETATM   47  C   UNL     1      -6.842  15.456  67.190  1.00  0.00     0.006 C  
ENDBRANCH  44  46
ENDBRANCH  25  44
BRANCH  28  48
HETATM   48  C   UNL     1     -12.003  12.204  63.066  1.00  0.00    -0.117 C  
HETATM   49  C   UNL     1     -13.262  11.374  62.616  1.00  0.00     2.042 C  
ENDBRANCH  28  48
ENDBRANCH   7  25
BRANCH  18  50
HETATM   50  C   UNL     1     -10.284   4.823  68.483  1.00  0.00    -0.054 C  
HETATM   51  C   UNL     1     -10.743   5.053  67.013  1.00  0.00    -0.025 C  
ENDBRANCH  18  50
BRANCH  16  52
HETATM   52  O   UNL     1      -7.305   5.659  70.765  1.00  0.00    -0.078 OA 
BRANCH  52  53
HETATM   53  C   UNL     1      -6.956   5.039  71.937  1.00  0.00    -0.065 C  
HETATM   54  C   UNL     1      -6.113   3.803  71.714  1.00  0.00    -0.014 C  
HETATM   55  O   UNL     1      -7.387   5.353  73.030  1.00  0.00    -0.088 OA 
ENDBRANCH  52  53
ENDBRANCH  16  52
BRANCH  14  56
HETATM   56  C   UNL     1     -10.321   6.560  72.055  1.00  0.00    -0.199 C  
HETATM   57  O   UNL     1     -10.159   5.534  72.715  1.00  0.00    -0.174 OA 
BRANCH  56  58
HETATM   58  O   UNL     1     -11.154   7.589  72.408  1.00  0.00    -0.260 OA 
HETATM   59  C   UNL     1     -10.546   8.721  73.023  1.00  0.00     0.924 C  
ENDBRANCH  56  58
ENDBRANCH  14  56
TORSDOF 10
ENDMDL
MODEL       40
REMARK 921   NORMALIZED FREE ENERGY PREDICTED BY IDOCK:   17.27 KCAL/MOL
REMARK 922        TOTAL FREE ENERGY PREDICTED BY IDOCK:   25.41 KCAL/MOL
REMARK 923 INTER-LIGAND FREE ENERGY PREDICTED BY IDOCK:   20.65 KCAL/MOL
REMARK 924 INTRA-LIGAND FREE ENERGY PREDICTED BY IDOCK:    4.76 KCAL/MOL
REMARK 927      BINDING AFFINITY PREDICTED BY RF-SCORE:    0.00 PKD
ROOT
HETATM    1  C   UNL     1     -12.207  14.688  68.637  1.00  0.00    -0.103 C  
HETATM    2  N   UNL     1     -12.099  14.008  67.351  1.00  0.00    -0.393 NA 
HETATM    3  C   UNL     1     -11.472  12.805  67.554  1.00  0.00    -0.336 A  
HETATM    4  C   UNL     1     -12.949  14.315  66.219  1.00  0.00     0.406 C  
HETATM    5  C   UNL     1     -11.236  11.895  66.531  1.00  0.00    -0.383 A  
HETATM    6  C   UNL     1     -10.543  10.700  66.726  1.00  0.00    -0.237 A  
HETATM    7  C   UNL     1     -10.065  10.385  68.025  1.00  0.00    -0.189 A  
HETATM    8  N   UNL     1     -11.175  13.921  72.146  1.00  0.00     2.413 NA 
HETATM    9  H   UNL     1      -9.285  16.237  68.433  1.00  0.00     0.000 HD 
HETATM   10  C   UNL     1     -10.846  14.657  73.336  1.00  0.00     2.697 C  
HETATM   11  C   UNL     1     -10.431  11.356  69.097  1.00  0.00    -0.159 A  
HETATM   12  C   UNL     1     -11.088  12.581  68.871  1.00  0.00    -0.309 A  
HETATM   13  O   UNL     1      -9.862  15.482  68.442  1.00  0.00    -0.205 OA 
HETATM   14  C   UNL     1     -11.219  15.978  68.622  1.00  0.00    -0.366 C  
HETATM   15  C   UNL     1     -11.254  14.629  70.903  1.00  0.00    -0.008 C  
HETATM   16  C   UNL     1     -11.314  16.866  69.949  1.00  0.00     0.489 C  
HETATM   17  C   UNL     1     -11.775  13.651  69.793  1.00  0.00    -0.364 C  
HETATM   18  C   UNL     1     -12.115  16.062  70.998  1.00  0.00    -0.372 C  
HETATM   19  C   UNL     1     -12.044  16.645  72.417  1.00  0.00    -0.117 C  
HETATM   20  C   UNL     1     -12.722  12.830  70.732  1.00  0.00    -0.217 C  
HETATM   21  C   UNL     1     -11.552  15.983  73.445  1.00  0.00     0.029 C  
HETATM   22  C   UNL     1     -11.986  12.742  72.107  1.00  0.00     2.097 C  
ENDROOT
BRANCH   6  23
HETATM   23  O   UNL     1     -10.323   9.855  65.666  1.00  0.00    -0.220 OA 
HETATM   24  C   UNL     1     -10.553  10.358  64.348  1.00  0.00     0.339 C  
ENDBRANCH   6  23
BRANCH   7  25
HETATM   25  C   UNL     1      -9.236   8.964  68.400  1.00  0.00    -0.140 C  
HETATM   26  C   UNL     1      -6.742  10.851  65.068  1.00  0.00     0.331 C  
HETATM   27  C   UNL     1      -7.132  10.270  68.854  1.00  0.00    -0.075 A  
HETATM   28  C   UNL     1      -6.338   9.509  64.427  1.00  0.00    -0.093 C  
HETATM   29  N   UNL     1      -7.646  10.580  66.226  1.00  0.00    -0.127 NA 
HETATM   30  C   UNL     1      -6.482  10.760  70.060  1.00  0.00    -0.151 A  
HETATM   31  C   UNL     1      -6.155   8.513  65.386  1.00  0.00    -0.049 C  
HETATM   32  C   UNL     1      -8.167   9.463  69.310  1.00  0.00    -0.111 A  
HETATM   33  C   UNL     1      -6.795  10.773  67.456  1.00  0.00    -0.079 C  
HETATM   34  N   UNL     1      -8.140   9.354  70.666  1.00  0.00    -0.196 NA 
HETATM   35  C   UNL     1      -5.455  11.661  70.271  1.00  0.00    -0.125 A  
HETATM   36  C   UNL     1      -8.296   9.293  65.893  1.00  0.00    -0.118 C  
HETATM   37  C   UNL     1      -7.162  10.209  71.155  1.00  0.00     0.959 A  
HETATM   38  C   UNL     1      -7.466   8.098  66.175  1.00  0.00    -0.078 C  
HETATM   39  H   UNL     1      -8.737   8.747  71.228  1.00  0.00     0.000 HD 
HETATM   40  C   UNL     1      -6.874  10.586  72.465  1.00  0.00     3.741 A  
HETATM   41  C   UNL     1      -8.130   7.813  67.577  1.00  0.00    -0.124 C  
HETATM   42  C   UNL     1      -5.151  12.064  71.577  1.00  0.00    -0.052 A  
HETATM   43  C   UNL     1      -5.871  11.542  72.649  1.00  0.00     2.014 A  
BRANCH  25  44
HETATM   44  C   UNL     1     -10.371   8.025  68.885  1.00  0.00    -0.209 C  
HETATM   45  O   UNL     1     -10.919   7.130  68.258  1.00  0.00    -0.137 OA 
BRANCH  44  46
HETATM   46  O   UNL     1     -10.555   8.287  70.224  1.00  0.00    -0.218 OA 
HETATM   47  C   UNL     1     -11.087   7.330  71.138  1.00  0.00    -0.253 C  
ENDBRANCH  44  46
ENDBRANCH  25  44
BRANCH  28  48
HETATM   48  C   UNL     1      -7.124   9.287  63.067  1.00  0.00    -0.091 C  
HETATM   49  C   UNL     1      -8.122  10.339  62.457  1.00  0.00    -0.169 C  
ENDBRANCH  28  48
ENDBRANCH   7  25
BRANCH  18  50
HETATM   50  C   UNL     1     -13.704  16.180  70.751  1.00  0.00     2.048 C  
HETATM   51  C   UNL     1     -14.372  15.042  69.924  1.00  0.00     3.065 C  
ENDBRANCH  18  50
BRANCH  16  52
HETATM   52  O   UNL     1      -9.992  17.160  70.542  1.00  0.00     1.323 OA 
BRANCH  52  53
HETATM   53  C   UNL     1      -9.156  17.916  69.764  1.00  0.00     1.204 C  
HETATM   54  C   UNL     1      -7.725  17.427  69.798  1.00  0.00     0.957 C  
HETATM   55  O   UNL     1      -9.483  18.952  69.218  1.00  0.00    -0.181 OA 
ENDBRANCH  52  53
ENDBRANCH  16  52
BRANCH  14  56
HETATM   56  C   UNL     1     -11.539  16.977  67.519  1.00  0.00     0.736 C  
HETATM   57  O   UNL     1     -12.420  17.835  67.556  1.00  0.00     3.140 OA 
BRANCH  56  58
HETATM   58  O   UNL     1     -10.583  16.886  66.540  1.00  0.00    -0.280 OA 
HETATM   59  C   UNL     1      -9.807  18.056  66.294  1.00  0.00    -0.307 C  
ENDBRANCH  56  58
ENDBRANCH  14  56
TORSDOF 10
ENDMDL
MODEL       41
REMARK 921   NORMALIZED FREE ENERGY PREDICTED BY IDOCK:   17.65 KCAL/MOL
REMARK 922        TOTAL FREE ENERGY PREDICTED BY IDOCK:   26.02 KCAL/MOL
REMARK 923 INTER-LIGAND FREE ENERGY PREDICTED BY IDOCK:   11.76 KCAL/MOL
REMARK 924 INTRA-LIGAND FREE ENERGY PREDICTED BY IDOCK:   14.26 KCAL/MOL
REMARK 927      BINDING AFFINITY PREDICTED BY RF-SCORE:    0.00 PKD
ROOT
HETATM    1  C   UNL     1     -11.577  14.027  68.018  1.00  0.00    -0.337 C  
HETATM    2  N   UNL     1     -11.407  12.967  67.031  1.00  0.00    -0.293 NA 
HETATM    3  C   UNL     1     -11.247  11.780  67.699  1.00  0.00    -0.281 A  
HETATM    4  C   UNL     1     -11.850  13.086  65.656  1.00  0.00    -0.399 C  
HETATM    5  C   UNL     1     -11.088  10.563  67.049  1.00  0.00    -0.183 A  
HETATM    6  C   UNL     1     -10.862   9.366  67.729  1.00  0.00    -0.159 A  
HETATM    7  C   UNL     1     -10.803   9.379  69.147  1.00  0.00    -0.176 A  
HETATM    8  N   UNL     1     -11.631  14.202  71.751  1.00  0.00     0.469 NA 
HETATM    9  H   UNL     1      -8.348  14.701  68.331  1.00  0.00     0.000 HD 
HETATM   10  C   UNL     1     -11.358  15.180  72.768  1.00  0.00     0.005 C  
HETATM   11  C   UNL     1     -11.074  10.699  69.789  1.00  0.00    -0.358 A  
HETATM   12  C   UNL     1     -11.250  11.905  69.084  1.00  0.00    -0.314 A  
HETATM   13  O   UNL     1      -9.119  14.146  68.349  1.00  0.00    -0.186 OA 
HETATM   14  C   UNL     1     -10.258  14.976  67.987  1.00  0.00    -0.228 C  
HETATM   15  C   UNL     1     -11.211  14.473  70.408  1.00  0.00    -0.070 C  
HETATM   16  C   UNL     1     -10.360  16.237  68.965  1.00  0.00    -0.264 C  
HETATM   17  C   UNL     1     -11.754  13.343  69.467  1.00  0.00    -0.385 C  
HETATM   18  C   UNL     1     -11.581  16.021  69.888  1.00  0.00    -0.301 C  
HETATM   19  C   UNL     1     -11.645  16.993  71.075  1.00  0.00     1.103 C  
HETATM   20  C   UNL     1     -13.091  13.110  70.248  1.00  0.00     0.489 C  
HETATM   21  C   UNL     1     -11.621  16.598  72.332  1.00  0.00    -0.077 C  
HETATM   22  C   UNL     1     -12.739  13.296  71.758  1.00  0.00    -0.192 C  
ENDROOT
BRANCH   6  23
HETATM   23  O   UNL     1     -10.690   8.200  67.023  1.00  0.00    -0.321 OA 
HETATM   24  C   UNL     1     -10.039   8.274  65.753  1.00  0.00     0.772 C  
ENDBRANCH   6  23
BRANCH   7  25
HETATM   25  C   UNL     1     -10.562   7.999  70.088  1.00  0.00    -0.237 C  
HETATM   26  C   UNL     1      -7.838   7.361  66.475  1.00  0.00    -0.098 C  
HETATM   27  C   UNL     1      -8.084   8.442  70.162  1.00  0.00    -0.108 A  
HETATM   28  C   UNL     1      -8.045   5.836  66.419  1.00  0.00    -0.106 C  
HETATM   29  N   UNL     1      -8.669   7.922  67.583  1.00  0.00    -0.126 NA 
HETATM   30  C   UNL     1      -7.190   9.049  71.137  1.00  0.00    -0.111 A  
HETATM   31  C   UNL     1      -8.179   5.285  67.694  1.00  0.00    -0.099 C  
HETATM   32  C   UNL     1      -9.307   8.340  70.815  1.00  0.00    -0.161 A  
HETATM   33  C   UNL     1      -7.704   8.210  68.705  1.00  0.00    -0.107 C  
HETATM   34  N   UNL     1      -9.203   8.745  72.111  1.00  0.00    -0.371 NA 
HETATM   35  C   UNL     1      -5.879   9.482  71.063  1.00  0.00    -0.069 A  
HETATM   36  C   UNL     1      -9.794   6.971  67.716  1.00  0.00    -0.139 C  
HETATM   37  C   UNL     1      -7.931   9.263  72.308  1.00  0.00     0.947 A  
HETATM   38  C   UNL     1      -9.473   5.746  68.487  1.00  0.00    -0.141 C  
HETATM   39  H   UNL     1      -9.936   8.679  72.817  1.00  0.00     0.000 HD 
HETATM   40  C   UNL     1      -7.403   9.956  73.395  1.00  0.00     3.159 A  
HETATM   41  C   UNL     1     -10.067   6.291  69.842  1.00  0.00    -0.216 C  
HETATM   42  C   UNL     1      -5.327  10.191  72.139  1.00  0.00     0.097 A  
HETATM   43  C   UNL     1      -6.096  10.434  73.275  1.00  0.00     1.656 A  
BRANCH  25  44
HETATM   44  C   UNL     1     -11.924   7.837  70.811  1.00  0.00    -0.149 C  
HETATM   45  O   UNL     1     -12.582   6.815  70.942  1.00  0.00    -0.336 OA 
BRANCH  44  46
HETATM   46  O   UNL     1     -12.196   9.042  71.418  1.00  0.00    -0.298 OA 
HETATM   47  C   UNL     1     -13.033   9.164  72.567  1.00  0.00    -0.346 C  
ENDBRANCH  44  46
ENDBRANCH  25  44
BRANCH  28  48
HETATM   48  C   UNL     1      -8.974   5.450  65.191  1.00  0.00    -0.074 C  
HETATM   49  C   UNL     1     -10.546   5.476  65.246  1.00  0.00     0.988 C  
ENDBRANCH  28  48
ENDBRANCH   7  25
BRANCH  18  50
HETATM   50  C   UNL     1     -12.960  16.422  69.154  1.00  0.00     2.630 C  
HETATM   51  C   UNL     1     -12.952  17.734  68.315  1.00  0.00     7.013 C  
ENDBRANCH  18  50
BRANCH  16  52
HETATM   52  O   UNL     1      -9.176  16.387  69.838  1.00  0.00     0.271 OA 
BRANCH  52  53
HETATM   53  C   UNL     1      -8.201  17.225  69.364  1.00  0.00     0.344 C  
HETATM   54  C   UNL     1      -8.626  18.676  69.365  1.00  0.00     0.332 C  
HETATM   55  O   UNL     1      -7.161  16.845  68.860  1.00  0.00    -0.197 OA 
ENDBRANCH  52  53
ENDBRANCH  16  52
BRANCH  14  56
HETATM   56  C   UNL     1     -10.001  15.616  66.630  1.00  0.00    -0.258 C  
HETATM   57  O   UNL     1     -10.405  16.719  66.264  1.00  0.00    -0.312 OA 
BRANCH  56  58
HETATM   58  O   UNL     1      -9.106  14.847  65.933  1.00  0.00    -0.197 OA 
HETATM   59  C   UNL     1      -8.293  13.960  66.697  1.00  0.00     0.263 C  
ENDBRANCH  56  58
ENDBRANCH  14  56
TORSDOF 10
ENDMDL
MODEL       42
REMARK 921   NORMALIZED FREE ENERGY PREDICTED BY IDOCK:   18.77 KCAL/MOL
REMARK 922        TOTAL FREE ENERGY PREDICTED BY IDOCK:   27.79 KCAL/MOL
REMARK 923 INTER-LIGAND FREE ENERGY PREDICTED BY IDOCK:   24.44 KCAL/MOL
REMARK 924 INTRA-LIGAND FREE ENERGY PREDICTED BY IDOCK:    3.35 KCAL/MOL
REMARK 927      BINDING AFFINITY PREDICTED BY RF-SCORE:    0.00 PKD
ROOT
HETATM    1  C   UNL     1     -11.060   8.096  69.885  1.00  0.00    -0.102 C  
HETATM    2  N   UNL     1     -11.947   7.596  68.841  1.00  0.00     1.625 NA 
HETATM    3  C   UNL     1     -11.192   6.889  67.940  1.00  0.00    -0.019 A  
HETATM    4  C   UNL     1     -13.376   7.439  69.024  1.00  0.00     8.363 C  
HETATM    5  C   UNL     1     -11.738   6.254  66.833  1.00  0.00     1.079 A  
HETATM    6  C   UNL     1     -10.962   5.588  65.883  1.00  0.00     0.390 A  
HETATM    7  C   UNL     1      -9.554   5.542  66.054  1.00  0.00    -0.128 A  
HETATM    8  N   UNL     1      -7.392   7.909  70.575  1.00  0.00    -0.066 NA 
HETATM    9  H   UNL     1     -10.323  10.940  68.352  1.00  0.00     0.000 HD 
HETATM   10  C   UNL     1      -6.406   8.685  71.277  1.00  0.00    -0.053 C  
HETATM   11  C   UNL     1      -9.039   6.161  67.310  1.00  0.00    -0.115 A  
HETATM   12  C   UNL     1      -9.833   6.871  68.230  1.00  0.00    -0.141 A  
HETATM   13  O   UNL     1     -10.383   9.995  68.435  1.00  0.00    -0.173 OA 
HETATM   14  C   UNL     1     -10.956   9.712  69.743  1.00  0.00    -0.240 C  
HETATM   15  C   UNL     1      -8.673   8.497  70.320  1.00  0.00    -0.142 C  
HETATM   16  C   UNL     1     -10.081  10.396  70.894  1.00  0.00     1.199 C  
HETATM   17  C   UNL     1      -9.614   7.412  69.689  1.00  0.00    -0.156 C  
HETATM   18  C   UNL     1      -9.334   9.273  71.649  1.00  0.00     0.049 C  
HETATM   19  C   UNL     1      -8.228   9.781  72.586  1.00  0.00     3.639 C  
HETATM   20  C   UNL     1      -9.022   6.201  70.486  1.00  0.00    -0.148 C  
HETATM   21  C   UNL     1      -6.960   9.451  72.450  1.00  0.00     0.718 C  
HETATM   22  C   UNL     1      -7.491   6.481  70.611  1.00  0.00    -0.080 C  
ENDROOT
BRANCH   6  23
HETATM   23  O   UNL     1     -11.564   5.000  64.797  1.00  0.00     0.733 OA 
HETATM   24  C   UNL     1     -12.992   4.950  64.767  1.00  0.00     7.150 C  
ENDBRANCH   6  23
BRANCH   7  25
HETATM   25  C   UNL     1      -8.507   4.749  64.994  1.00  0.00    -0.137 C  
HETATM   26  C   UNL     1      -6.258   8.564  66.123  1.00  0.00    -0.052 C  
HETATM   27  C   UNL     1      -6.676   4.784  66.724  1.00  0.00    -0.051 A  
HETATM   28  C   UNL     1      -5.606   8.749  64.739  1.00  0.00    -0.054 C  
HETATM   29  N   UNL     1      -7.143   7.360  66.083  1.00  0.00    -0.068 NA 
HETATM   30  C   UNL     1      -6.164   3.813  67.678  1.00  0.00    -0.036 A  
HETATM   31  C   UNL     1      -5.289   7.526  64.149  1.00  0.00    -0.029 C  
HETATM   32  C   UNL     1      -7.573   4.071  65.937  1.00  0.00    -0.089 A  
HETATM   33  C   UNL     1      -6.382   6.277  66.804  1.00  0.00    -0.041 C  
HETATM   34  N   UNL     1      -7.576   2.752  66.273  1.00  0.00    -0.075 NA 
HETATM   35  C   UNL     1      -5.316   3.925  68.764  1.00  0.00    -0.012 A  
HETATM   36  C   UNL     1      -7.549   7.249  64.665  1.00  0.00    -0.106 C  
HETATM   37  C   UNL     1      -6.778   2.585  67.396  1.00  0.00    -0.040 A  
HETATM   38  C   UNL     1      -6.536   6.617  63.786  1.00  0.00    -0.037 C  
HETATM   39  H   UNL     1      -8.079   2.012  65.783  1.00  0.00     0.000 HD 
HETATM   40  C   UNL     1      -6.606   1.472  68.216  1.00  0.00    -0.029 A  
HETATM   41  C   UNL     1      -7.190   5.183  63.853  1.00  0.00    -0.050 C  
HETATM   42  C   UNL     1      -5.132   2.824  69.610  1.00  0.00    -0.004 A  
HETATM   43  C   UNL     1      -5.790   1.626  69.340  1.00  0.00    -0.023 A  
BRANCH  25  44
HETATM   44  C   UNL     1      -9.479   3.964  64.077  1.00  0.00    -0.157 C  
HETATM   45  O   UNL     1      -9.940   4.317  63.001  1.00  0.00    -0.130 OA 
BRANCH  44  46
HETATM   46  O   UNL     1      -9.620   2.711  64.630  1.00  0.00    -0.151 OA 
HETATM   47  C   UNL     1     -10.107   1.587  63.899  1.00  0.00    -0.084 C  
ENDBRANCH  44  46
ENDBRANCH  25  44
BRANCH  28  48
HETATM   48  C   UNL     1      -6.294   9.949  63.961  1.00  0.00    -0.126 C  
HETATM   49  C   UNL     1      -6.311  10.075  62.393  1.00  0.00    -0.114 C  
ENDBRANCH  28  48
ENDBRANCH   7  25
BRANCH  18  50
HETATM   50  C   UNL     1     -10.282   8.554  72.736  1.00  0.00    -0.147 C  
HETATM   51  C   UNL     1      -9.584   7.621  73.768  1.00  0.00    -0.275 C  
ENDBRANCH  18  50
BRANCH  16  52
HETATM   52  O   UNL     1      -9.056  11.321  70.365  1.00  0.00     2.037 OA 
BRANCH  52  53
HETATM   53  C   UNL     1      -9.503  12.220  69.432  1.00  0.00     1.065 C  
HETATM   54  C   UNL     1      -8.539  12.395  68.281  1.00  0.00    -0.172 C  
HETATM   55  O   UNL     1     -10.493  12.913  69.572  1.00  0.00     0.258 OA 
ENDBRANCH  52  53
ENDBRANCH  16  52
BRANCH  14  56
HETATM   56  C   UNL     1     -12.298  10.421  69.867  1.00  0.00    -0.108 C  
HETATM   57  O   UNL     1     -12.787  11.188  69.039  1.00  0.00    -0.055 OA 
BRANCH  56  58
HETATM   58  O   UNL     1     -12.958   9.943  70.970  1.00  0.00    -0.352 OA 
HETATM   59  C   UNL     1     -13.814  10.857  71.649  1.00  0.00     0.505 C  
ENDBRANCH  56  58
ENDBRANCH  14  56
TORSDOF 10
ENDMDL
MODEL       43
REMARK 921   NORMALIZED FREE ENERGY PREDICTED BY IDOCK:   19.20 KCAL/MOL
REMARK 922        TOTAL FREE ENERGY PREDICTED BY IDOCK:   28.46 KCAL/MOL
REMARK 923 INTER-LIGAND FREE ENERGY PREDICTED BY IDOCK:   18.27 KCAL/MOL
REMARK 924 INTRA-LIGAND FREE ENERGY PREDICTED BY IDOCK:   10.19 KCAL/MOL
REMARK 927      BINDING AFFINITY PREDICTED BY RF-SCORE:    0.00 PKD
ROOT
HETATM    1  C   UNL     1      -6.711  17.696  68.715  1.00  0.00    -0.230 C  
HETATM    2  N   UNL     1      -6.887  16.850  69.890  1.00  0.00     0.146 NA 
HETATM    3  C   UNL     1      -8.075  16.178  69.760  1.00  0.00     0.415 A  
HETATM    4  C   UNL     1      -5.788  16.427  70.734  1.00  0.00     0.244 C  
HETATM    5  C   UNL     1      -8.533  15.264  70.700  1.00  0.00     1.732 A  
HETATM    6  C   UNL     1      -9.770  14.628  70.597  1.00  0.00     1.607 A  
HETATM    7  C   UNL     1     -10.600  14.911  69.481  1.00  0.00    -0.242 A  
HETATM    8  N   UNL     1      -8.693  18.410  65.629  1.00  0.00    -0.082 NA 
HETATM    9  H   UNL     1      -8.278  20.331  69.972  1.00  0.00     0.000 HD 
HETATM   10  C   UNL     1      -8.829  19.485  64.684  1.00  0.00     3.953 C  
HETATM   11  C   UNL     1     -10.013  15.828  68.461  1.00  0.00    -0.208 A  
HETATM   12  C   UNL     1      -8.784  16.499  68.607  1.00  0.00    -0.244 A  
HETATM   13  O   UNL     1      -8.195  19.423  69.704  1.00  0.00     0.062 OA 
HETATM   14  C   UNL     1      -6.852  19.250  69.173  1.00  0.00    -0.336 C  
HETATM   15  C   UNL     1      -8.000  18.661  66.858  1.00  0.00    -0.242 C  
HETATM   16  C   UNL     1      -6.585  20.287  67.985  1.00  0.00    -0.292 C  
HETATM   17  C   UNL     1      -7.849  17.311  67.641  1.00  0.00    -0.192 C  
HETATM   18  C   UNL     1      -6.560  19.492  66.660  1.00  0.00    -0.193 C  
HETATM   19  C   UNL     1      -6.610  20.373  65.403  1.00  0.00    -0.302 C  
HETATM   20  C   UNL     1      -7.689  16.406  66.374  1.00  0.00    -0.249 C  
HETATM   21  C   UNL     1      -7.576  20.302  64.510  1.00  0.00     1.149 C  
HETATM   22  C   UNL     1      -8.629  17.021  65.289  1.00  0.00     1.966 C  
ENDROOT
BRANCH   6  23
HETATM   23  O   UNL     1     -10.173  13.752  71.576  1.00  0.00     4.651 OA 
HETATM   24  C   UNL     1     -10.880  14.279  72.700  1.00  0.00     3.317 C  
ENDBRANCH   6  23
BRANCH   7  25
HETATM   25  C   UNL     1     -12.105  14.192  69.226  1.00  0.00    -0.364 C  
HETATM   26  C   UNL     1      -9.937  13.665  65.237  1.00  0.00    -0.204 C  
HETATM   27  C   UNL     1     -10.996  12.031  68.559  1.00  0.00    -0.280 A  
HETATM   28  C   UNL     1     -11.203  13.834  64.374  1.00  0.00    -0.364 C  
HETATM   29  N   UNL     1     -10.307  13.832  66.676  1.00  0.00    -0.275 NA 
HETATM   30  C   UNL     1     -10.712  10.782  69.248  1.00  0.00    -0.268 A  
HETATM   31  C   UNL     1     -12.327  13.289  64.993  1.00  0.00    -0.499 C  
HETATM   32  C   UNL     1     -11.795  12.750  69.440  1.00  0.00    -0.300 A  
HETATM   33  C   UNL     1     -10.331  12.438  67.250  1.00  0.00    -0.215 C  
HETATM   34  N   UNL     1     -12.087  12.013  70.547  1.00  0.00    -0.448 NA 
HETATM   35  C   UNL     1      -9.909   9.701  68.934  1.00  0.00    -0.179 A  
HETATM   36  C   UNL     1     -11.498  14.710  66.649  1.00  0.00    -0.357 C  
HETATM   37  C   UNL     1     -11.364  10.830  70.488  1.00  0.00    -0.199 A  
HETATM   38  C   UNL     1     -12.767  14.012  66.334  1.00  0.00    -0.138 C  
HETATM   39  H   UNL     1     -12.728  12.284  71.292  1.00  0.00     0.000 HD 
HETATM   40  C   UNL     1     -11.183   9.841  71.453  1.00  0.00    -0.368 A  
HETATM   41  C   UNL     1     -13.198  13.849  67.843  1.00  0.00     3.407 C  
HETATM   42  C   UNL     1      -9.703   8.697  69.890  1.00  0.00    -0.175 A  
HETATM   43  C   UNL     1     -10.321   8.788  71.134  1.00  0.00    -0.315 A  
BRANCH  25  44
HETATM   44  C   UNL     1     -13.032  14.993  70.175  1.00  0.00    -0.084 C  
HETATM   45  O   UNL     1     -13.514  16.101  69.988  1.00  0.00     0.658 OA 
BRANCH  44  46
HETATM   46  O   UNL     1     -13.341  14.158  71.225  1.00  0.00    -0.338 OA 
HETATM   47  C   UNL     1     -14.065  14.590  72.376  1.00  0.00    -0.448 C  
ENDBRANCH  44  46
ENDBRANCH  25  44
BRANCH  28  48
HETATM   48  C   UNL     1     -11.193  15.248  63.653  1.00  0.00     1.499 C  
HETATM   49  C   UNL     1     -11.660  16.582  64.344  1.00  0.00     0.211 C  
ENDBRANCH  28  48
ENDBRANCH   7  25
BRANCH  18  50
HETATM   50  C   UNL     1      -5.132  18.783  66.420  1.00  0.00    -0.161 C  
HETATM   51  C   UNL     1      -5.143  17.427  65.654  1.00  0.00     0.174 C  
ENDBRANCH  18  50
BRANCH  16  52
HETATM   52  O   UNL     1      -7.649  21.307  67.861  1.00  0.00    -0.072 OA 
BRANCH  52  53
HETATM   53  C   UNL     1      -8.912  20.877  68.173  1.00  0.00     0.529 C  
HETATM   54  C   UNL     1      -9.908  21.137  67.066  1.00  0.00     0.273 C  
HETATM   55  O   UNL     1      -9.241  20.462  69.269  1.00  0.00     0.465 OA 
ENDBRANCH  52  53
ENDBRANCH  16  52
BRANCH  14  56
HETATM   56  C   UNL     1      -5.837  19.669  70.227  1.00  0.00    -0.274 C  
HETATM   57  O   UNL     1      -5.154  20.692  70.204  1.00  0.00    -0.254 OA 
BRANCH  56  58
HETATM   58  O   UNL     1      -5.919  18.813  71.294  1.00  0.00     0.132 OA 
HETATM   59  C   UNL     1      -5.638  19.363  72.578  1.00  0.00     1.074 C  
ENDBRANCH  56  58
ENDBRANCH  14  56
TORSDOF 10
ENDMDL
MODEL       44
REMARK 921   NORMALIZED FREE ENERGY PREDICTED BY IDOCK:   22.44 KCAL/MOL
REMARK 922        TOTAL FREE ENERGY PREDICTED BY IDOCK:   33.60 KCAL/MOL
REMARK 923 INTER-LIGAND FREE ENERGY PREDICTED BY IDOCK:   17.15 KCAL/MOL
REMARK 924 INTRA-LIGAND FREE ENERGY PREDICTED BY IDOCK:   16.45 KCAL/MOL
REMARK 927      BINDING AFFINITY PREDICTED BY RF-SCORE:    0.00 PKD
ROOT
HETATM    1  C   UNL     1     -10.213  10.035  69.991  1.00  0.00    -0.255 C  
HETATM    2  N   UNL     1     -10.685  11.070  70.904  1.00  0.00     1.320 NA 
HETATM    3  C   UNL     1     -10.743  12.254  70.216  1.00  0.00     1.732 A  
HETATM    4  C   UNL     1     -11.431  10.780  72.112  1.00  0.00     3.006 C  
HETATM    5  C   UNL     1     -11.181  13.440  70.790  1.00  0.00     1.234 A  
HETATM    6  C   UNL     1     -11.181  14.657  70.108  1.00  0.00    -0.184 A  
HETATM    7  C   UNL     1     -10.725  14.694  68.764  1.00  0.00    -0.252 A  
HETATM    8  N   UNL     1      -9.158   9.927  66.407  1.00  0.00    -0.147 NA 
HETATM    9  H   UNL     1      -6.992  10.493  70.616  1.00  0.00     0.000 HD 
HETATM   10  C   UNL     1      -8.306   9.119  65.580  1.00  0.00    -0.133 C  
HETATM   11  C   UNL     1     -10.356  13.373  68.175  1.00  0.00    -0.249 A  
HETATM   12  C   UNL     1     -10.317  12.164  68.896  1.00  0.00    -0.098 A  
HETATM   13  O   UNL     1      -7.864  10.756  70.347  1.00  0.00     0.342 OA 
HETATM   14  C   UNL     1      -8.721   9.584  70.450  1.00  0.00    -0.223 C  
HETATM   15  C   UNL     1      -9.067   9.786  67.831  1.00  0.00    -0.121 C  
HETATM   16  C   UNL     1      -8.125   8.382  69.579  1.00  0.00    -0.113 C  
HETATM   17  C   UNL     1     -10.192  10.648  68.501  1.00  0.00    -0.191 C  
HETATM   18  C   UNL     1      -9.039   8.193  68.347  1.00  0.00    -0.136 C  
HETATM   19  C   UNL     1      -8.444   7.282  67.264  1.00  0.00    -0.118 C  
HETATM   20  C   UNL     1     -11.255  10.434  67.372  1.00  0.00    -0.205 C  
HETATM   21  C   UNL     1      -8.200   7.687  66.034  1.00  0.00    -0.128 C  
HETATM   22  C   UNL     1     -10.454  10.407  66.031  1.00  0.00    -0.140 C  
ENDROOT
BRANCH   6  23
HETATM   23  O   UNL     1     -11.606  15.799  70.743  1.00  0.00    -0.330 OA 
HETATM   24  C   UNL     1     -10.706  16.436  71.652  1.00  0.00     1.424 C  
ENDBRANCH   6  23
BRANCH   7  25
HETATM   25  C   UNL     1     -10.697  16.093  67.821  1.00  0.00    -0.325 C  
HETATM   26  C   UNL     1      -6.305  14.861  68.102  1.00  0.00    -0.136 C  
HETATM   27  C   UNL     1      -9.512  14.862  65.971  1.00  0.00    -0.316 A  
HETATM   28  C   UNL     1      -5.764  16.304  68.134  1.00  0.00    -0.110 C  
HETATM   29  N   UNL     1      -7.798  14.906  68.050  1.00  0.00    -0.119 NA 
HETATM   30  C   UNL     1      -9.942  14.243  64.727  1.00  0.00    -0.009 A  
HETATM   31  C   UNL     1      -6.525  17.159  67.338  1.00  0.00    -0.173 C  
HETATM   32  C   UNL     1     -10.635  15.531  66.443  1.00  0.00    -0.311 A  
HETATM   33  C   UNL     1      -8.162  14.589  66.622  1.00  0.00     0.239 C  
HETATM   34  N   UNL     1     -11.664  15.444  65.555  1.00  0.00     0.012 NA 
HETATM   35  C   UNL     1      -9.316  13.384  63.843  1.00  0.00     2.897 A  
HETATM   36  C   UNL     1      -8.149  16.187  68.703  1.00  0.00    -0.203 C  
HETATM   37  C   UNL     1     -11.287  14.587  64.530  1.00  0.00    -0.316 A  
HETATM   38  C   UNL     1      -8.017  17.376  67.829  1.00  0.00    -0.208 C  
HETATM   39  H   UNL     1     -12.559  15.927  65.630  1.00  0.00     0.000 HD 
HETATM   40  C   UNL     1     -12.041  14.042  63.494  1.00  0.00    -0.015 A  
HETATM   41  C   UNL     1      -9.544  17.415  67.437  1.00  0.00    -0.257 C  
HETATM   42  C   UNL     1     -10.054  12.814  62.797  1.00  0.00     2.540 A  
HETATM   43  C   UNL     1     -11.402  13.132  62.648  1.00  0.00     2.422 A  
BRANCH  25  44
HETATM   44  C   UNL     1     -11.925  16.881  68.344  1.00  0.00     1.045 C  
HETATM   45  O   UNL     1     -12.790  16.491  69.115  1.00  0.00     1.007 OA 
BRANCH  44  46
HETATM   46  O   UNL     1     -11.788  18.174  67.890  1.00  0.00     1.246 OA 
HETATM   47  C   UNL     1     -11.273  19.232  68.697  1.00  0.00     1.532 C  
ENDBRANCH  44  46
ENDBRANCH  25  44
BRANCH  28  48
HETATM   48  C   UNL     1      -5.264  16.672  69.594  1.00  0.00    -0.145 C  
HETATM   49  C   UNL     1      -5.732  17.954  70.378  1.00  0.00    -0.154 C  
ENDBRANCH  28  48
ENDBRANCH   7  25
BRANCH  18  50
HETATM   50  C   UNL     1     -10.356   7.337  68.709  1.00  0.00    -0.209 C  
HETATM   51  C   UNL     1     -10.167   5.802  68.890  1.00  0.00    -0.267 C  
ENDBRANCH  18  50
BRANCH  16  52
HETATM   52  O   UNL     1      -6.763   8.657  69.074  1.00  0.00    -0.050 OA 
BRANCH  52  53
HETATM   53  C   UNL     1      -6.573   8.412  67.739  1.00  0.00    -0.062 C  
HETATM   54  C   UNL     1      -6.281   6.957  67.448  1.00  0.00    -0.037 C  
HETATM   55  O   UNL     1      -6.500   9.279  66.889  1.00  0.00    -0.065 OA 
ENDBRANCH  52  53
ENDBRANCH  16  52
BRANCH  14  56
HETATM   56  C   UNL     1      -8.659   9.040  71.871  1.00  0.00     0.168 C  
HETATM   57  O   UNL     1      -8.450   9.701  72.887  1.00  0.00     1.806 OA 
BRANCH  56  58
HETATM   58  O   UNL     1      -9.040   7.724  71.864  1.00  0.00    -0.126 OA 
HETATM   59  C   UNL     1      -9.746   7.256  73.011  1.00  0.00    -0.186 C  
ENDBRANCH  56  58
ENDBRANCH  14  56
TORSDOF 10
ENDMDL
MODEL       45
REMARK 921   NORMALIZED FREE ENERGY PREDICTED BY IDOCK:   34.18 KCAL/MOL
REMARK 922        TOTAL FREE ENERGY PREDICTED BY IDOCK:   52.20 KCAL/MOL
REMARK 923 INTER-LIGAND FREE ENERGY PREDICTED BY IDOCK:   40.09 KCAL/MOL
REMARK 924 INTRA-LIGAND FREE ENERGY PREDICTED BY IDOCK:   12.11 KCAL/MOL
REMARK 927      BINDING AFFINITY PREDICTED BY RF-SCORE:    0.00 PKD
ROOT
HETATM    1  C   UNL     1      -8.603  16.575  67.481  1.00  0.00    -0.177 C  
HETATM    2  N   UNL     1      -7.587  15.545  67.668  1.00  0.00    -0.145 NA 
HETATM    3  C   UNL     1      -8.201  14.321  67.601  1.00  0.00    -0.185 A  
HETATM    4  C   UNL     1      -6.175  15.774  67.438  1.00  0.00    -0.109 C  
HETATM    5  C   UNL     1      -7.509  13.122  67.714  1.00  0.00    -0.150 A  
HETATM    6  C   UNL     1      -8.142  11.879  67.708  1.00  0.00    -0.146 A  
HETATM    7  C   UNL     1      -9.554  11.826  67.570  1.00  0.00    -0.179 A  
HETATM    8  N   UNL     1     -12.299  16.598  66.926  1.00  0.00     2.571 NA 
HETATM    9  H   UNL     1      -9.384  16.851  70.689  1.00  0.00     0.000 HD 
HETATM   10  C   UNL     1     -13.398  17.493  67.160  1.00  0.00     9.122 C  
HETATM   11  C   UNL     1     -10.229  13.139  67.360  1.00  0.00    -0.232 A  
HETATM   12  C   UNL     1      -9.578  14.387  67.418  1.00  0.00    -0.216 A  
HETATM   13  O   UNL     1      -9.267  16.390  69.866  1.00  0.00     0.271 OA 
HETATM   14  C   UNL     1      -8.804  17.363  68.888  1.00  0.00    -0.153 C  
HETATM   15  C   UNL     1     -11.042  16.874  67.556  1.00  0.00    -0.012 C  
HETATM   16  C   UNL     1      -9.831  18.586  68.790  1.00  0.00    -0.376 C  
HETATM   17  C   UNL     1      -9.973  15.856  67.028  1.00  0.00    -0.248 C  
HETATM   18  C   UNL     1     -10.567  18.476  67.436  1.00  0.00    -0.463 C  
HETATM   19  C   UNL     1     -11.790  19.397  67.315  1.00  0.00     1.687 C  
HETATM   20  C   UNL     1     -10.553  15.750  65.578  1.00  0.00    -0.424 C  
HETATM   21  C   UNL     1     -13.014  18.949  67.119  1.00  0.00     7.064 C  
HETATM   22  C   UNL     1     -12.105  15.829  65.733  1.00  0.00     1.040 C  
ENDROOT
BRANCH   6  23
HETATM   23  O   UNL     1      -7.400  10.732  67.847  1.00  0.00    -0.086 OA 
HETATM   24  C   UNL     1      -6.062  10.853  68.337  1.00  0.00    -0.046 C  
ENDBRANCH   6  23
BRANCH   7  25
HETATM   25  C   UNL     1     -10.437  10.389  67.523  1.00  0.00    -0.292 C  
HETATM   26  C   UNL     1      -7.218   9.603  70.670  1.00  0.00    -0.103 C  
HETATM   27  C   UNL     1     -10.889  10.546  69.995  1.00  0.00    -0.320 A  
HETATM   28  C   UNL     1      -7.043   8.114  70.313  1.00  0.00    -0.047 C  
HETATM   29  N   UNL     1      -8.227  10.206  69.747  1.00  0.00    -0.170 NA 
HETATM   30  C   UNL     1     -12.015  11.007  70.793  1.00  0.00    -0.436 A  
HETATM   31  C   UNL     1      -8.251   7.529  69.935  1.00  0.00    -0.131 C  
HETATM   32  C   UNL     1     -11.354  10.555  68.685  1.00  0.00    -0.252 A  
HETATM   33  C   UNL     1      -9.490  10.335  70.560  1.00  0.00     0.700 C  
HETATM   34  N   UNL     1     -12.673  10.890  68.638  1.00  0.00    -0.075 NA 
HETATM   35  C   UNL     1     -12.154  11.293  72.139  1.00  0.00     1.570 A  
HETATM   36  C   UNL     1      -8.142   9.382  68.521  1.00  0.00    -0.105 C  
HETATM   37  C   UNL     1     -13.079  11.252  69.914  1.00  0.00     0.577 A  
HETATM   38  C   UNL     1      -8.878   8.097  68.594  1.00  0.00    -0.134 C  
HETATM   39  H   UNL     1     -13.262  10.876  67.805  1.00  0.00     0.000 HD 
HETATM   40  C   UNL     1     -14.269  11.835  70.345  1.00  0.00     5.079 A  
HETATM   41  C   UNL     1     -10.164   8.647  67.866  1.00  0.00    -0.273 C  
HETATM   42  C   UNL     1     -13.337  11.888  72.597  1.00  0.00     0.792 A  
HETATM   43  C   UNL     1     -14.364  12.168  71.699  1.00  0.00     2.118 A  
BRANCH  25  44
HETATM   44  C   UNL     1     -10.948  10.350  66.060  1.00  0.00     0.240 C  
HETATM   45  O   UNL     1     -10.593   9.596  65.165  1.00  0.00     0.488 OA 
BRANCH  44  46
HETATM   46  O   UNL     1     -11.998  11.236  65.983  1.00  0.00     0.073 OA 
HETATM   47  C   UNL     1     -11.841  12.596  65.583  1.00  0.00    -0.437 C  
ENDBRANCH  44  46
ENDBRANCH  25  44
BRANCH  28  48
HETATM   48  C   UNL     1      -5.675   7.888  69.542  1.00  0.00    -0.026 C  
HETATM   49  C   UNL     1      -5.549   7.894  67.974  1.00  0.00    -0.033 C  
ENDBRANCH  28  48
ENDBRANCH   7  25
BRANCH  18  50
HETATM   50  C   UNL     1      -9.680  19.067  66.227  1.00  0.00    -0.392 C  
HETATM   51  C   UNL     1     -10.113  20.446  65.648  1.00  0.00    -0.031 C  
ENDBRANCH  18  50
BRANCH  16  52
HETATM   52  O   UNL     1     -10.861  18.558  69.850  1.00  0.00     1.166 OA 
BRANCH  52  53
HETATM   53  C   UNL     1     -11.171  19.775  70.398  1.00  0.00     4.140 C  
HETATM   54  C   UNL     1     -10.462  20.023  71.710  1.00  0.00     3.821 C  
HETATM   55  O   UNL     1     -12.028  20.521  69.963  1.00  0.00     4.284 OA 
ENDBRANCH  52  53
ENDBRANCH  16  52
BRANCH  14  56
HETATM   56  C   UNL     1      -7.532  18.026  69.402  1.00  0.00     0.150 C  
HETATM   57  O   UNL     1      -6.699  17.508  70.144  1.00  0.00     0.279 OA 
BRANCH  56  58
HETATM   58  O   UNL     1      -7.371  19.234  68.775  1.00  0.00    -0.319 OA 
HETATM   59  C   UNL     1      -6.512  19.255  67.638  1.00  0.00    -0.212 C  
ENDBRANCH  56  58
ENDBRANCH  14  56
TORSDOF 10
ENDMDL
MODEL       46
REMARK 921   NORMALIZED FREE ENERGY PREDICTED BY IDOCK:   35.30 KCAL/MOL
REMARK 922        TOTAL FREE ENERGY PREDICTED BY IDOCK:   53.98 KCAL/MOL
REMARK 923 INTER-LIGAND FREE ENERGY PREDICTED BY IDOCK:   20.43 KCAL/MOL
REMARK 924 INTRA-LIGAND FREE ENERGY PREDICTED BY IDOCK:   33.55 KCAL/MOL
REMARK 927      BINDING AFFINITY PREDICTED BY RF-SCORE:    0.00 PKD
ROOT
HETATM    1  C   UNL     1      -8.920  16.126  69.593  1.00  0.00     0.153 C  
HETATM    2  N   UNL     1      -9.577  15.037  70.306  1.00  0.00     0.316 NA 
HETATM    3  C   UNL     1      -9.084  13.851  69.825  1.00  0.00     1.473 A  
HETATM    4  C   UNL     1     -10.208  15.203  71.599  1.00  0.00     1.659 C  
HETATM    5  C   UNL     1      -9.483  12.614  70.313  1.00  0.00     4.604 A  
HETATM    6  C   UNL     1      -9.028  11.407  69.781  1.00  0.00     1.353 A  
HETATM    7  C   UNL     1      -8.107  11.434  68.701  1.00  0.00    -0.141 A  
HETATM    8  N   UNL     1      -6.363  16.370  66.878  1.00  0.00    -0.289 NA 
HETATM    9  H   UNL     1     -11.123  16.275  67.123  1.00  0.00     0.000 HD 
HETATM   10  C   UNL     1      -5.994  17.307  65.854  1.00  0.00     0.218 C  
HETATM   11  C   UNL     1      -7.646  12.790  68.284  1.00  0.00    -0.134 A  
HETATM   12  C   UNL     1      -8.155  13.997  68.801  1.00  0.00    -0.065 A  
HETATM   13  O   UNL     1     -10.482  15.852  67.683  1.00  0.00    -0.275 OA 
HETATM   14  C   UNL     1     -10.015  16.849  68.634  1.00  0.00    -0.279 C  
HETATM   15  C   UNL     1      -7.615  16.547  67.552  1.00  0.00    -0.148 C  
HETATM   16  C   UNL     1      -9.439  18.126  67.863  1.00  0.00    -0.281 C  
HETATM   17  C   UNL     1      -7.718  15.504  68.718  1.00  0.00    -0.159 C  
HETATM   18  C   UNL     1      -7.902  18.126  68.031  1.00  0.00    -0.266 C  
HETATM   19  C   UNL     1      -7.174  19.114  67.109  1.00  0.00    -0.221 C  
HETATM   20  C   UNL     1      -6.192  15.503  69.070  1.00  0.00    -0.111 C  
HETATM   21  C   UNL     1      -6.285  18.742  66.211  1.00  0.00    -0.212 C  
HETATM   22  C   UNL     1      -5.441  15.655  67.708  1.00  0.00    -0.123 C  
ENDROOT
BRANCH   6  23
HETATM   23  O   UNL     1      -9.482  10.217  70.296  1.00  0.00    -0.096 OA 
HETATM   24  C   UNL     1      -8.766   9.025  69.964  1.00  0.00    -0.157 C  
ENDBRANCH   6  23
BRANCH   7  25
HETATM   25  C   UNL     1      -7.462  10.049  67.985  1.00  0.00    -0.088 C  
HETATM   26  C   UNL     1     -11.819   8.940  68.804  1.00  0.00     1.743 C  
HETATM   27  C   UNL     1      -9.236  10.106  66.197  1.00  0.00    -0.196 A  
HETATM   28  C   UNL     1     -11.522   7.464  69.130  1.00  0.00     0.385 C  
HETATM   29  N   UNL     1     -10.531   9.641  68.515  1.00  0.00    -0.205 NA 
HETATM   30  C   UNL     1      -9.277  10.584  64.824  1.00  0.00    -0.266 A  
HETATM   31  C   UNL     1     -10.481   6.962  68.350  1.00  0.00    -0.235 C  
HETATM   32  C   UNL     1      -7.900  10.205  66.569  1.00  0.00    -0.112 A  
HETATM   33  C   UNL     1     -10.482   9.795  67.016  1.00  0.00    -0.227 C  
HETATM   34  N   UNL     1      -7.131  10.610  65.521  1.00  0.00    -0.309 NA 
HETATM   35  C   UNL     1     -10.318  10.809  63.942  1.00  0.00    -0.329 A  
HETATM   36  C   UNL     1      -9.519   8.876  69.277  1.00  0.00    -0.161 C  
HETATM   37  C   UNL     1      -7.968  10.929  64.461  1.00  0.00     0.311 A  
HETATM   38  C   UNL     1      -9.067   7.629  68.614  1.00  0.00    -0.135 C  
HETATM   39  H   UNL     1      -6.113  10.668  65.516  1.00  0.00     0.000 HD 
HETATM   40  C   UNL     1      -7.681  11.550  63.248  1.00  0.00     1.319 A  
HETATM   41  C   UNL     1      -7.775   8.281  67.987  1.00  0.00    -0.107 C  
HETATM   42  C   UNL     1     -10.058  11.442  62.719  1.00  0.00    -0.115 A  
HETATM   43  C   UNL     1      -8.756  11.820  62.397  1.00  0.00     0.713 A  
BRANCH  25  44
HETATM   44  C   UNL     1      -5.971  10.110  68.406  1.00  0.00    -0.041 C  
HETATM   45  O   UNL     1      -5.227  11.080  68.379  1.00  0.00    -0.041 OA 
BRANCH  44  46
HETATM   46  O   UNL     1      -5.667   8.889  68.963  1.00  0.00    -0.039 OA 
HETATM   47  C   UNL     1      -5.303   7.748  68.187  1.00  0.00    -0.031 C  
ENDBRANCH  44  46
ENDBRANCH  25  44
BRANCH  28  48
HETATM   48  C   UNL     1     -11.657   7.206  70.690  1.00  0.00    -0.354 C  
HETATM   49  C   UNL     1     -12.297   8.237  71.691  1.00  0.00    -0.349 C  
ENDBRANCH  28  48
ENDBRANCH   7  25
BRANCH  18  50
HETATM   50  C   UNL     1      -7.460  18.732  69.458  1.00  0.00     0.127 C  
HETATM   51  C   UNL     1      -8.572  18.865  70.539  1.00  0.00     2.922 C  
ENDBRANCH  18  50
BRANCH  16  52
HETATM   52  O   UNL     1      -9.718  18.097  66.411  1.00  0.00    -0.322 OA 
BRANCH  52  53
HETATM   53  C   UNL     1      -9.204  19.146  65.695  1.00  0.00     0.575 C  
HETATM   54  C   UNL     1      -7.816  18.865  65.163  1.00  0.00     1.364 C  
HETATM   55  O   UNL     1      -9.732  20.238  65.609  1.00  0.00    -0.266 OA 
ENDBRANCH  52  53
ENDBRANCH  16  52
BRANCH  14  56
HETATM   56  C   UNL     1     -11.207  17.417  69.393  1.00  0.00     0.900 C  
HETATM   57  O   UNL     1     -11.156  18.049  70.447  1.00  0.00     1.586 OA 
BRANCH  56  58
HETATM   58  O   UNL     1     -12.338  17.261  68.633  1.00  0.00     1.656 OA 
HETATM   59  C   UNL     1     -13.360  16.427  69.172  1.00  0.00     3.938 C  
ENDBRANCH  56  58
ENDBRANCH  14  56
TORSDOF 10
ENDMDL
MODEL       47
REMARK 921   NORMALIZED FREE ENERGY PREDICTED BY IDOCK:   35.70 KCAL/MOL
REMARK 922        TOTAL FREE ENERGY PREDICTED BY IDOCK:   54.61 KCAL/MOL
REMARK 923 INTER-LIGAND FREE ENERGY PREDICTED BY IDOCK:   29.89 KCAL/MOL
REMARK 924 INTRA-LIGAND FREE ENERGY PREDICTED BY IDOCK:   24.72 KCAL/MOL
REMARK 927      BINDING AFFINITY PREDICTED BY RF-SCORE:    0.00 PKD
ROOT
HETATM    1  C   UNL     1     -10.002   8.984  66.146  1.00  0.00    -0.241 C  
HETATM    2  N   UNL     1     -11.076   9.791  66.714  1.00  0.00     0.127 NA 
HETATM    3  C   UNL     1     -10.531  10.962  67.178  1.00  0.00    -0.237 A  
HETATM    4  C   UNL     1     -12.471   9.610  66.371  1.00  0.00     9.710 C  
HETATM    5  C   UNL     1     -11.291  11.970  67.757  1.00  0.00    -0.370 A  
HETATM    6  C   UNL     1     -10.729  13.133  68.284  1.00  0.00    -0.245 A  
HETATM    7  C   UNL     1      -9.322  13.309  68.221  1.00  0.00    -0.205 A  
HETATM    8  N   UNL     1      -6.309   9.376  65.735  1.00  0.00    -0.066 NA 
HETATM    9  H   UNL     1      -9.223   7.440  68.972  1.00  0.00     0.000 HD 
HETATM   10  C   UNL     1      -5.162   8.520  65.608  1.00  0.00    -0.034 C  
HETATM   11  C   UNL     1      -8.573  12.236  67.504  1.00  0.00    -0.174 A  
HETATM   12  C   UNL     1      -9.153  11.046  67.023  1.00  0.00    -0.154 A  
HETATM   13  O   UNL     1      -9.362   8.194  68.411  1.00  0.00    -0.136 OA 
HETATM   14  C   UNL     1      -9.764   7.694  67.105  1.00  0.00    -0.183 C  
HETATM   15  C   UNL     1      -7.551   8.801  66.159  1.00  0.00    -0.094 C  
HETATM   16  C   UNL     1      -8.669   6.675  66.539  1.00  0.00    -0.135 C  
HETATM   17  C   UNL     1      -8.673   9.892  66.070  1.00  0.00    -0.152 C  
HETATM   18  C   UNL     1      -7.933   7.373  65.373  1.00  0.00    -0.125 C  
HETATM   19  C   UNL     1      -6.660   6.647  64.916  1.00  0.00    -0.042 C  
HETATM   20  C   UNL     1      -8.093  10.620  64.811  1.00  0.00    -0.004 C  
HETATM   21  C   UNL     1      -5.463   7.195  64.957  1.00  0.00    -0.032 C  
HETATM   22  C   UNL     1      -6.539  10.560  64.963  1.00  0.00    -0.014 C  
ENDROOT
BRANCH   6  23
HETATM   23  O   UNL     1     -11.536  14.081  68.866  1.00  0.00    -0.271 OA 
HETATM   24  C   UNL     1     -12.571  13.634  69.744  1.00  0.00    -0.001 C  
ENDBRANCH   6  23
BRANCH   7  25
HETATM   25  C   UNL     1      -8.521  14.677  68.798  1.00  0.00    -0.161 C  
HETATM   26  C   UNL     1     -11.774  16.369  66.070  1.00  0.00     1.199 C  
HETATM   27  C   UNL     1     -10.686  15.611  69.684  1.00  0.00    -0.278 A  
HETATM   28  C   UNL     1     -10.922  17.548  65.561  1.00  0.00     0.174 C  
HETATM   29  N   UNL     1     -10.949  15.543  67.003  1.00  0.00    -0.311 NA 
HETATM   30  C   UNL     1     -11.315  15.642  70.995  1.00  0.00    -0.426 A  
HETATM   31  C   UNL     1     -10.079  18.043  66.556  1.00  0.00    -0.379 C  
HETATM   32  C   UNL     1      -9.412  15.105  69.913  1.00  0.00     0.063 A  
HETATM   33  C   UNL     1     -11.433  15.894  68.387  1.00  0.00    -0.348 C  
HETATM   34  N   UNL     1      -9.193  14.917  71.244  1.00  0.00     2.113 NA 
HETATM   35  C   UNL     1     -12.595  15.959  71.412  1.00  0.00    -0.437 A  
HETATM   36  C   UNL     1      -9.556  15.768  66.558  1.00  0.00    -0.265 C  
HETATM   37  C   UNL     1     -10.379  15.163  71.922  1.00  0.00     1.712 A  
HETATM   38  C   UNL     1      -8.956  17.034  67.041  1.00  0.00    -0.236 C  
HETATM   39  H   UNL     1      -8.308  14.643  71.670  1.00  0.00     0.000 HD 
HETATM   40  C   UNL     1     -10.712  14.937  73.255  1.00  0.00     2.619 A  
HETATM   41  C   UNL     1      -8.220  16.366  68.265  1.00  0.00    -0.177 C  
HETATM   42  C   UNL     1     -12.960  15.733  72.746  1.00  0.00    -0.585 A  
HETATM   43  C   UNL     1     -12.028  15.211  73.640  1.00  0.00    -0.498 A  
BRANCH  25  44
HETATM   44  C   UNL     1      -7.081  14.155  69.036  1.00  0.00    -0.111 C  
HETATM   45  O   UNL     1      -6.458  13.349  68.360  1.00  0.00    -0.077 OA 
BRANCH  44  46
HETATM   46  O   UNL     1      -6.564  14.884  70.083  1.00  0.00    -0.174 OA 
HETATM   47  C   UNL     1      -5.772  16.056  69.899  1.00  0.00    -0.161 C  
ENDBRANCH  44  46
ENDBRANCH  25  44
BRANCH  28  48
HETATM   48  C   UNL     1     -10.462  17.291  64.064  1.00  0.00     4.890 C  
HETATM   49  C   UNL     1      -9.540  16.093  63.630  1.00  0.00     9.589 C  
ENDBRANCH  28  48
ENDBRANCH   7  25
BRANCH  18  50
HETATM   50  C   UNL     1      -8.780   7.294  64.003  1.00  0.00     0.656 C  
HETATM   51  C   UNL     1      -7.974   7.050  62.694  1.00  0.00    -0.116 C  
ENDBRANCH  18  50
BRANCH  16  52
HETATM   52  O   UNL     1      -7.647   6.311  67.543  1.00  0.00    -0.093 OA 
BRANCH  52  53
HETATM   53  C   UNL     1      -6.458   5.859  67.033  1.00  0.00    -0.050 C  
HETATM   54  C   UNL     1      -6.620   5.177  65.693  1.00  0.00    -0.044 C  
HETATM   55  O   UNL     1      -5.406   5.871  67.642  1.00  0.00    -0.004 OA 
ENDBRANCH  52  53
ENDBRANCH  16  52
BRANCH  14  56
HETATM   56  C   UNL     1     -10.999   6.816  67.263  1.00  0.00    -0.363 C  
HETATM   57  O   UNL     1     -11.998   7.090  67.926  1.00  0.00     1.181 OA 
BRANCH  56  58
HETATM   58  O   UNL     1     -10.898   5.744  66.415  1.00  0.00    -0.233 OA 
HETATM   59  C   UNL     1     -11.236   5.975  65.050  1.00  0.00     4.300 C  
ENDBRANCH  56  58
ENDBRANCH  14  56
TORSDOF 10
ENDMDL
MODEL       48
REMARK 921   NORMALIZED FREE ENERGY PREDICTED BY IDOCK:   38.13 KCAL/MOL
REMARK 922        TOTAL FREE ENERGY PREDICTED BY IDOCK:   58.46 KCAL/MOL
REMARK 923 INTER-LIGAND FREE ENERGY PREDICTED BY IDOCK:   44.71 KCAL/MOL
REMARK 924 INTRA-LIGAND FREE ENERGY PREDICTED BY IDOCK:   13.75 KCAL/MOL
REMARK 927      BINDING AFFINITY PREDICTED BY RF-SCORE:    0.00 PKD
ROOT
HETATM    1  C   UNL     1     -10.622   9.992  70.323  1.00  0.00    -0.295 C  
HETATM    2  N   UNL     1     -11.561   8.879  70.241  1.00  0.00    -0.113 NA 
HETATM    3  C   UNL     1     -11.027   7.928  69.409  1.00  0.00    -0.020 A  
HETATM    4  C   UNL     1     -12.575   8.622  71.244  1.00  0.00    -0.235 C  
HETATM    5  C   UNL     1     -11.661   6.723  69.136  1.00  0.00    -0.016 A  
HETATM    6  C   UNL     1     -11.147   5.784  68.241  1.00  0.00     0.096 A  
HETATM    7  C   UNL     1      -9.918   6.057  67.585  1.00  0.00    -0.154 A  
HETATM    8  N   UNL     1      -7.293  10.781  68.819  1.00  0.00    -0.095 NA 
HETATM    9  H   UNL     1     -11.852  11.648  67.729  1.00  0.00     0.000 HD 
HETATM   10  C   UNL     1      -6.532  11.955  68.491  1.00  0.00    -0.057 C  
HETATM   11  C   UNL     1      -9.242   7.324  67.990  1.00  0.00    -0.131 A  
HETATM   12  C   UNL     1      -9.801   8.282  68.858  1.00  0.00    -0.183 A  
HETATM   13  O   UNL     1     -11.471  10.899  68.172  1.00  0.00    -0.333 OA 
HETATM   14  C   UNL     1     -11.275  11.273  69.565  1.00  0.00    -0.272 C  
HETATM   15  C   UNL     1      -8.681  10.931  69.141  1.00  0.00    -0.043 C  
HETATM   16  C   UNL     1     -10.378  12.594  69.665  1.00  0.00     0.938 C  
HETATM   17  C   UNL     1      -9.248   9.546  69.609  1.00  0.00    -0.212 C  
HETATM   18  C   UNL     1      -8.991  12.183  70.210  1.00  0.00     4.659 C  
HETATM   19  C   UNL     1      -7.923  13.279  70.086  1.00  0.00     2.637 C  
HETATM   20  C   UNL     1      -7.932   9.060  70.306  1.00  0.00    -0.124 C  
HETATM   21  C   UNL     1      -6.815  13.131  69.388  1.00  0.00     0.032 C  
HETATM   22  C   UNL     1      -6.760   9.599  69.426  1.00  0.00    -0.053 C  
ENDROOT
BRANCH   6  23
HETATM   23  O   UNL     1     -11.836   4.620  67.998  1.00  0.00     5.385 OA 
HETATM   24  C   UNL     1     -11.146   3.556  67.341  1.00  0.00     5.433 C  
ENDBRANCH   6  23
BRANCH   7  25
HETATM   25  C   UNL     1      -9.178   4.997  66.501  1.00  0.00    -0.135 C  
HETATM   26  C   UNL     1      -6.406   8.629  66.560  1.00  0.00    -0.058 C  
HETATM   27  C   UNL     1      -7.049   5.057  67.845  1.00  0.00    -0.062 A  
HETATM   28  C   UNL     1      -6.024   8.530  65.070  1.00  0.00    -0.052 C  
HETATM   29  N   UNL     1      -7.390   7.551  66.880  1.00  0.00    -0.091 NA 
HETATM   30  C   UNL     1      -6.452   4.180  68.840  1.00  0.00    -0.040 A  
HETATM   31  C   UNL     1      -5.944   7.204  64.645  1.00  0.00    -0.037 C  
HETATM   32  C   UNL     1      -8.145   4.353  67.361  1.00  0.00    -0.100 A  
HETATM   33  C   UNL     1      -6.606   6.498  67.622  1.00  0.00    -0.061 C  
HETATM   34  N   UNL     1      -8.204   3.107  67.906  1.00  0.00    -0.078 NA 
HETATM   35  C   UNL     1      -5.400   4.344  69.722  1.00  0.00    -0.008 A  
HETATM   36  C   UNL     1      -8.074   7.285  65.595  1.00  0.00    -0.133 C  
HETATM   37  C   UNL     1      -7.221   3.009  68.881  1.00  0.00    -0.048 A  
HETATM   38  C   UNL     1      -7.317   6.412  64.667  1.00  0.00    -0.073 C  
HETATM   39  H   UNL     1      -8.860   2.372  67.644  1.00  0.00     0.000 HD 
HETATM   40  C   UNL     1      -6.996   2.014  69.830  1.00  0.00    -0.033 A  
HETATM   41  C   UNL     1      -8.076   5.095  65.086  1.00  0.00    -0.118 C  
HETATM   42  C   UNL     1      -5.158   3.363  70.693  1.00  0.00    -0.004 A  
HETATM   43  C   UNL     1      -5.964   2.228  70.748  1.00  0.00    -0.018 A  
BRANCH  25  44
HETATM   44  C   UNL     1     -10.380   4.211  65.916  1.00  0.00    -0.017 C  
HETATM   45  O   UNL     1     -11.449   4.662  65.529  1.00  0.00     0.132 OA 
BRANCH  44  46
HETATM   46  O   UNL     1      -9.968   2.906  65.772  1.00  0.00     0.253 OA 
HETATM   47  C   UNL     1      -9.952   2.228  64.517  1.00  0.00     0.117 C  
ENDBRANCH  44  46
ENDBRANCH  25  44
BRANCH  28  48
HETATM   48  C   UNL     1      -6.736   9.679  64.240  1.00  0.00    -0.112 C  
HETATM   49  C   UNL     1      -6.461   9.950  62.714  1.00  0.00    -0.117 C  
ENDBRANCH  28  48
ENDBRANCH   7  25
BRANCH  18  50
HETATM   50  C   UNL     1      -9.007  12.019  71.813  1.00  0.00    17.379 C  
HETATM   51  C   UNL     1      -7.929  11.084  72.434  1.00  0.00    11.617 C  
ENDBRANCH  18  50
BRANCH  16  52
HETATM   52  O   UNL     1     -10.156  13.240  68.353  1.00  0.00    -0.238 OA 
BRANCH  52  53
HETATM   53  C   UNL     1     -10.765  14.456  68.188  1.00  0.00    -0.236 C  
HETATM   54  C   UNL     1     -11.245  14.682  66.773  1.00  0.00    -0.344 C  
HETATM   55  O   UNL     1     -10.795  15.325  69.039  1.00  0.00    -0.225 OA 
ENDBRANCH  52  53
ENDBRANCH  16  52
BRANCH  14  56
HETATM   56  C   UNL     1     -12.605  11.718  70.157  1.00  0.00     0.005 C  
HETATM   57  O   UNL     1     -13.708  11.243  69.890  1.00  0.00     1.438 OA 
BRANCH  56  58
HETATM   58  O   UNL     1     -12.370  12.619  71.163  1.00  0.00    -0.314 OA 
HETATM   59  C   UNL     1     -13.196  12.517  72.319  1.00  0.00    -0.320 C  
ENDBRANCH  56  58
ENDBRANCH  14  56
TORSDOF 10
ENDMDL
MODEL       49
REMARK 921   NORMALIZED FREE ENERGY PREDICTED BY IDOCK:   38.76 KCAL/MOL
REMARK 922        TOTAL FREE ENERGY PREDICTED BY IDOCK:   59.46 KCAL/MOL
REMARK 923 INTER-LIGAND FREE ENERGY PREDICTED BY IDOCK:   34.64 KCAL/MOL
REMARK 924 INTRA-LIGAND FREE ENERGY PREDICTED BY IDOCK:   24.82 KCAL/MOL
REMARK 927      BINDING AFFINITY PREDICTED BY RF-SCORE:    0.00 PKD
ROOT
HETATM    1  C   UNL     1     -10.301  12.053  65.042  1.00  0.00    -0.281 C  
HETATM    2  N   UNL     1     -11.025  13.312  65.183  1.00  0.00    -0.290 NA 
HETATM    3  C   UNL     1     -10.474  14.008  66.229  1.00  0.00    -0.286 A  
HETATM    4  C   UNL     1     -11.795  13.907  64.110  1.00  0.00    -0.385 C  
HETATM    5  C   UNL     1     -10.916  15.267  66.613  1.00  0.00    -0.297 A  
HETATM    6  C   UNL     1     -10.398  15.947  67.715  1.00  0.00    -0.278 A  
HETATM    7  C   UNL     1      -9.364  15.341  68.476  1.00  0.00    -0.200 A  
HETATM    8  N   UNL     1      -7.464  10.401  66.828  1.00  0.00    -0.106 NA 
HETATM    9  H   UNL     1     -12.221  10.337  67.127  1.00  0.00     0.000 HD 
HETATM   10  C   UNL     1      -6.991   9.063  67.053  1.00  0.00    -0.078 C  
HETATM   11  C   UNL     1      -8.870  14.032  67.958  1.00  0.00    -0.181 A  
HETATM   12  C   UNL     1      -9.440  13.339  66.873  1.00  0.00    -0.249 A  
HETATM   13  O   UNL     1     -11.643  11.047  66.873  1.00  0.00    -0.378 OA 
HETATM   14  C   UNL     1     -11.289  10.839  65.477  1.00  0.00     0.578 C  
HETATM   15  C   UNL     1      -8.783  10.584  66.300  1.00  0.00    -0.151 C  
HETATM   16  C   UNL     1     -10.641   9.390  65.278  1.00  0.00     1.647 C  
HETATM   17  C   UNL     1      -9.006  12.106  66.001  1.00  0.00     0.017 C  
HETATM   18  C   UNL     1      -9.132   9.582  65.003  1.00  0.00    -0.281 C  
HETATM   19  C   UNL     1      -8.314   8.286  65.083  1.00  0.00    -0.167 C  
HETATM   20  C   UNL     1      -7.528  12.407  65.581  1.00  0.00     2.679 C  
HETATM   21  C   UNL     1      -7.329   8.106  65.939  1.00  0.00    -0.076 C  
HETATM   22  C   UNL     1      -6.634  11.523  66.507  1.00  0.00    -0.022 C  
ENDROOT
BRANCH   6  23
HETATM   23  O   UNL     1     -10.897  17.181  68.055  1.00  0.00    -0.378 OA 
HETATM   24  C   UNL     1     -12.212  17.520  67.610  1.00  0.00     2.996 C  
ENDBRANCH   6  23
BRANCH   7  25
HETATM   25  C   UNL     1      -8.635  16.066  69.814  1.00  0.00     0.311 C  
HETATM   26  C   UNL     1     -11.095  19.429  67.936  1.00  0.00     0.123 C  
HETATM   27  C   UNL     1     -10.886  16.762  70.705  1.00  0.00     0.372 A  
HETATM   28  C   UNL     1     -10.084  20.541  68.279  1.00  0.00    -0.151 C  
HETATM   29  N   UNL     1     -10.547  18.119  68.400  1.00  0.00    -0.277 NA 
HETATM   30  C   UNL     1     -11.789  16.224  71.710  1.00  0.00    -0.510 A  
HETATM   31  C   UNL     1      -9.457  20.310  69.503  1.00  0.00     0.517 C  
HETATM   32  C   UNL     1      -9.726  16.006  70.827  1.00  0.00     1.667 A  
HETATM   33  C   UNL     1     -11.307  17.788  69.660  1.00  0.00     2.154 C  
HETATM   34  N   UNL     1      -9.821  15.132  71.866  1.00  0.00     1.937 NA 
HETATM   35  C   UNL     1     -13.109  16.492  72.022  1.00  0.00     1.354 A  
HETATM   36  C   UNL     1      -9.079  18.303  68.372  1.00  0.00    -0.316 C  
HETATM   37  C   UNL     1     -11.112  15.191  72.372  1.00  0.00     0.239 A  
HETATM   38  C   UNL     1      -8.530  19.024  69.545  1.00  0.00     0.351 C  
HETATM   39  H   UNL     1      -9.070  14.535  72.214  1.00  0.00     0.000 HD 
HETATM   40  C   UNL     1     -11.747  14.375  73.305  1.00  0.00     0.488 A  
HETATM   41  C   UNL     1      -8.126  17.712  70.321  1.00  0.00     2.974 C  
HETATM   42  C   UNL     1     -13.775  15.681  72.950  1.00  0.00    -0.628 A  
HETATM   43  C   UNL     1     -13.097  14.629  73.562  1.00  0.00    -0.205 A  
BRANCH  25  44
HETATM   44  C   UNL     1      -7.317  15.264  69.961  1.00  0.00     0.036 C  
HETATM   45  O   UNL     1      -7.192  14.076  70.222  1.00  0.00     0.346 OA 
BRANCH  44  46
HETATM   46  O   UNL     1      -6.295  16.111  69.596  1.00  0.00    -0.180 OA 
HETATM   47  C   UNL     1      -5.146  15.677  68.870  1.00  0.00    -0.099 C  
ENDBRANCH  44  46
ENDBRANCH  25  44
BRANCH  28  48
HETATM   48  C   UNL     1      -9.317  21.012  66.972  1.00  0.00    -0.091 C  
HETATM   49  C   UNL     1      -7.798  20.710  66.696  1.00  0.00    -0.141 C  
ENDBRANCH  28  48
ENDBRANCH   7  25
BRANCH  18  50
HETATM   50  C   UNL     1      -8.852   9.968  63.463  1.00  0.00    -0.251 C  
HETATM   51  C   UNL     1      -8.957   8.816  62.421  1.00  0.00     0.036 C  
ENDBRANCH  18  50
BRANCH  16  52
HETATM   52  O   UNL     1     -10.759   8.536  66.479  1.00  0.00    -0.099 OA 
BRANCH  52  53
HETATM   53  C   UNL     1     -10.847   7.190  66.235  1.00  0.00     1.037 C  
HETATM   54  C   UNL     1     -10.519   6.354  67.450  1.00  0.00    -0.312 C  
HETATM   55  O   UNL     1     -11.027   6.707  65.133  1.00  0.00     3.962 OA 
ENDBRANCH  52  53
ENDBRANCH  16  52
BRANCH  14  56
HETATM   56  C   UNL     1     -12.561  10.761  64.643  1.00  0.00     4.267 C  
HETATM   57  O   UNL     1     -12.796   9.936  63.761  1.00  0.00     7.819 OA 
BRANCH  56  58
HETATM   58  O   UNL     1     -13.479  11.649  65.141  1.00  0.00     2.160 OA 
HETATM   59  C   UNL     1     -13.751  12.800  64.346  1.00  0.00     1.914 C  
ENDBRANCH  56  58
ENDBRANCH  14  56
TORSDOF 10
ENDMDL
MODEL       50
REMARK 921   NORMALIZED FREE ENERGY PREDICTED BY IDOCK:   48.13 KCAL/MOL
REMARK 922        TOTAL FREE ENERGY PREDICTED BY IDOCK:   74.32 KCAL/MOL
REMARK 923 INTER-LIGAND FREE ENERGY PREDICTED BY IDOCK:   60.97 KCAL/MOL
REMARK 924 INTRA-LIGAND FREE ENERGY PREDICTED BY IDOCK:   13.35 KCAL/MOL
REMARK 927      BINDING AFFINITY PREDICTED BY RF-SCORE:    0.00 PKD
ROOT
HETATM    1  C   UNL     1     -10.513   9.736  65.685  1.00  0.00     0.204 C  
HETATM    2  N   UNL     1     -11.741  10.010  66.423  1.00  0.00     1.569 NA 
HETATM    3  C   UNL     1     -11.682  11.299  66.888  1.00  0.00     0.271 A  
HETATM    4  C   UNL     1     -12.963   9.256  66.236  1.00  0.00    16.777 C  
HETATM    5  C   UNL     1     -12.710  11.888  67.612  1.00  0.00     2.449 A  
HETATM    6  C   UNL     1     -12.624  13.178  68.137  1.00  0.00     0.792 A  
HETATM    7  C   UNL     1     -11.443  13.933  67.918  1.00  0.00    -0.350 A  
HETATM    8  N   UNL     1      -7.415  11.658  64.865  1.00  0.00     1.643 NA 
HETATM    9  H   UNL     1      -8.792   8.657  68.303  1.00  0.00     0.000 HD 
HETATM   10  C   UNL     1      -6.042  11.369  64.553  1.00  0.00     1.755 C  
HETATM   11  C   UNL     1     -10.414  13.282  67.056  1.00  0.00    -0.249 A  
HETATM   12  C   UNL     1     -10.499  11.960  66.576  1.00  0.00    -0.256 A  
HETATM   13  O   UNL     1      -9.307   9.283  67.808  1.00  0.00    -0.129 OA 
HETATM   14  C   UNL     1      -9.631   8.664  66.531  1.00  0.00    -0.237 C  
HETATM   15  C   UNL     1      -8.233  10.609  65.398  1.00  0.00    -0.125 C  
HETATM   16  C   UNL     1      -8.295   8.208  65.780  1.00  0.00    -0.136 C  
HETATM   17  C   UNL     1      -9.711  11.122  65.507  1.00  0.00    -0.271 C  
HETATM   18  C   UNL     1      -8.081   9.156  64.579  1.00  0.00    -0.139 C  
HETATM   19  C   UNL     1      -6.693   9.040  63.932  1.00  0.00    -0.088 C  
HETATM   20  C   UNL     1      -9.661  12.032  64.234  1.00  0.00    -0.006 C  
HETATM   21  C   UNL     1      -5.843  10.044  63.865  1.00  0.00    -0.129 C  
HETATM   22  C   UNL     1      -8.221  12.635  64.197  1.00  0.00     4.701 C  
ENDROOT
BRANCH   6  23
HETATM   23  O   UNL     1     -13.670  13.692  68.865  1.00  0.00     3.772 OA 
HETATM   24  C   UNL     1     -13.488  13.865  70.272  1.00  0.00     0.804 C  
ENDBRANCH   6  23
BRANCH   7  25
HETATM   25  C   UNL     1     -11.221  15.510  68.477  1.00  0.00    -0.334 C  
HETATM   26  C   UNL     1     -11.297  12.989  72.287  1.00  0.00     5.242 C  
HETATM   27  C   UNL     1      -9.124  14.822  69.690  1.00  0.00     0.206 A  
HETATM   28  C   UNL     1     -12.009  14.057  73.140  1.00  0.00     0.802 C  
HETATM   29  N   UNL     1     -11.145  13.505  70.893  1.00  0.00     1.366 NA 
HETATM   30  C   UNL     1      -7.704  14.915  69.393  1.00  0.00    -0.150 A  
HETATM   31  C   UNL     1     -11.612  15.347  72.789  1.00  0.00    -0.464 C  
HETATM   32  C   UNL     1      -9.747  15.556  68.688  1.00  0.00    -0.208 A  
HETATM   33  C   UNL     1      -9.699  13.912  70.769  1.00  0.00     4.175 C  
HETATM   34  N   UNL     1      -8.830  16.150  67.876  1.00  0.00    -0.181 NA 
HETATM   35  C   UNL     1      -6.587  14.333  69.964  1.00  0.00    -0.088 A  
HETATM   36  C   UNL     1     -12.265  14.459  70.732  1.00  0.00    -0.343 C  
HETATM   37  C   UNL     1      -7.567  15.703  68.241  1.00  0.00    -0.119 A  
HETATM   38  C   UNL     1     -12.021  15.796  71.325  1.00  0.00    -0.485 C  
HETATM   39  H   UNL     1      -9.035  16.812  67.128  1.00  0.00     0.000 HD 
HETATM   40  C   UNL     1      -6.338  15.876  67.610  1.00  0.00    -0.189 A  
HETATM   41  C   UNL     1     -11.559  16.453  69.968  1.00  0.00     0.002 C  
HETATM   42  C   UNL     1      -5.340  14.484  69.345  1.00  0.00    -0.089 A  
HETATM   43  C   UNL     1      -5.233  15.231  68.174  1.00  0.00    -0.125 A  
BRANCH  25  44
HETATM   44  C   UNL     1     -11.934  16.360  67.393  1.00  0.00     1.076 C  
HETATM   45  O   UNL     1     -11.765  16.319  66.183  1.00  0.00     0.683 OA 
BRANCH  44  46
HETATM   46  O   UNL     1     -12.914  17.081  68.036  1.00  0.00     2.918 OA 
HETATM   47  C   UNL     1     -14.288  17.042  67.652  1.00  0.00    10.472 C  
ENDBRANCH  44  46
ENDBRANCH  25  44
BRANCH  28  48
HETATM   48  C   UNL     1     -13.518  13.639  73.399  1.00  0.00     1.496 C  
HETATM   49  C   UNL     1     -14.182  12.350  72.789  1.00  0.00     1.076 C  
ENDBRANCH  28  48
ENDBRANCH   7  25
BRANCH  18  50
HETATM   50  C   UNL     1      -8.989   8.731  63.316  1.00  0.00     0.313 C  
HETATM   51  C   UNL     1      -9.229   7.207  63.106  1.00  0.00     1.938 C  
ENDBRANCH  18  50
BRANCH  16  52
HETATM   52  O   UNL     1      -7.092   8.307  66.633  1.00  0.00    -0.074 OA 
BRANCH  52  53
HETATM   53  C   UNL     1      -7.201   7.727  67.870  1.00  0.00    -0.090 C  
HETATM   54  C   UNL     1      -6.144   6.674  68.116  1.00  0.00    -0.029 C  
HETATM   55  O   UNL     1      -8.124   7.924  68.637  1.00  0.00    -0.122 OA 
ENDBRANCH  52  53
ENDBRANCH  16  52
BRANCH  14  56
HETATM   56  C   UNL     1     -10.351   7.346  66.781  1.00  0.00    -0.251 C  
HETATM   57  O   UNL     1     -11.294   7.174  67.552  1.00  0.00    -0.049 OA 
BRANCH  56  58
HETATM   58  O   UNL     1      -9.896   6.410  65.889  1.00  0.00     0.113 OA 
HETATM   59  C   UNL     1      -9.223   5.280  66.435  1.00  0.00    -0.144 C  
ENDBRANCH  56  58
ENDBRANCH  14  56
TORSDOF 10
ENDMDL
MODEL       51
REMARK 921   NORMALIZED FREE ENERGY PREDICTED BY IDOCK:   54.18 KCAL/MOL
REMARK 922        TOTAL FREE ENERGY PREDICTED BY IDOCK:   83.90 KCAL/MOL
REMARK 923 INTER-LIGAND FREE ENERGY PREDICTED BY IDOCK:   70.28 KCAL/MOL
REMARK 924 INTRA-LIGAND FREE ENERGY PREDICTED BY IDOCK:   13.63 KCAL/MOL
REMARK 927      BINDING AFFINITY PREDICTED BY RF-SCORE:    0.00 PKD
ROOT
HETATM    1  C   UNL     1      -8.752   5.732  70.888  1.00  0.00    -0.134 C  
HETATM    2  N   UNL     1      -7.415   6.231  70.586  1.00  0.00    -0.085 NA 
HETATM    3  C   UNL     1      -7.445   6.813  69.344  1.00  0.00    -0.094 A  
HETATM    4  C   UNL     1      -6.426   6.515  71.606  1.00  0.00    -0.050 C  
HETATM    5  C   UNL     1      -6.335   7.414  68.765  1.00  0.00    -0.036 A  
HETATM    6  C   UNL     1      -6.350   7.950  67.477  1.00  0.00    -0.055 A  
HETATM    7  C   UNL     1      -7.550   7.893  66.721  1.00  0.00    -0.098 A  
HETATM    8  N   UNL     1     -12.034   5.668  69.102  1.00  0.00     2.290 NA 
HETATM    9  H   UNL     1      -8.296   2.741  69.535  1.00  0.00     0.000 HD 
HETATM   10  C   UNL     1     -13.225   4.863  69.106  1.00  0.00    19.239 C  
HETATM   11  C   UNL     1      -8.730   7.320  67.432  1.00  0.00    -0.121 A  
HETATM   12  C   UNL     1      -8.682   6.740  68.714  1.00  0.00    -0.125 A  
HETATM   13  O   UNL     1      -8.321   3.691  69.540  1.00  0.00    -0.053 OA 
HETATM   14  C   UNL     1      -8.709   4.107  70.879  1.00  0.00    -0.081 C  
HETATM   15  C   UNL     1     -10.867   5.170  69.768  1.00  0.00     0.250 C  
HETATM   16  C   UNL     1     -10.100   3.434  71.290  1.00  0.00     0.107 C  
HETATM   17  C   UNL     1      -9.762   6.282  69.759  1.00  0.00    -0.185 C  
HETATM   18  C   UNL     1     -11.179   4.540  71.289  1.00  0.00     1.298 C  
HETATM   19  C   UNL     1     -12.617   4.009  71.372  1.00  0.00     8.626 C  
HETATM   20  C   UNL     1     -10.749   7.492  69.879  1.00  0.00    -0.254 C  
HETATM   21  C   UNL     1     -13.521   4.225  70.438  1.00  0.00    19.343 C  
HETATM   22  C   UNL     1     -12.009   7.098  69.044  1.00  0.00     1.196 C  
ENDROOT
BRANCH   6  23
HETATM   23  O   UNL     1      -5.210   8.510  66.955  1.00  0.00    -0.034 OA 
HETATM   24  C   UNL     1      -5.182   9.926  66.767  1.00  0.00    -0.041 C  
ENDBRANCH   6  23
BRANCH   7  25
HETATM   25  C   UNL     1      -7.709   8.525  65.165  1.00  0.00    -0.102 C  
HETATM   26  C   UNL     1     -11.270   5.692  65.573  1.00  0.00     1.638 C  
HETATM   27  C   UNL     1     -10.034   9.336  65.694  1.00  0.00    -0.130 A  
HETATM   28  C   UNL     1     -11.250   5.239  64.100  1.00  0.00     2.903 C  
HETATM   29  N   UNL     1     -10.142   6.645  65.801  1.00  0.00     0.664 NA 
HETATM   30  C   UNL     1     -10.596  10.619  66.083  1.00  0.00    -0.211 A  
HETATM   31  C   UNL     1     -10.876   6.275  63.246  1.00  0.00     8.152 C  
HETATM   32  C   UNL     1      -8.709   9.609  65.375  1.00  0.00    -0.158 A  
HETATM   33  C   UNL     1     -10.774   8.013  65.848  1.00  0.00     2.329 C  
HETATM   34  N   UNL     1      -8.454  10.945  65.451  1.00  0.00    -0.308 NA 
HETATM   35  C   UNL     1     -11.832  10.987  66.584  1.00  0.00     0.958 A  
HETATM   36  C   UNL     1      -9.129   6.262  64.793  1.00  0.00     0.617 C  
HETATM   37  C   UNL     1      -9.579  11.576  65.965  1.00  0.00    -0.228 A  
HETATM   38  C   UNL     1      -9.388   6.791  63.433  1.00  0.00     2.301 C  
HETATM   39  H   UNL     1      -7.586  11.403  65.176  1.00  0.00     0.000 HD 
HETATM   40  C   UNL     1      -9.752  12.891  66.392  1.00  0.00    -0.263 A  
HETATM   41  C   UNL     1      -8.431   8.033  63.596  1.00  0.00     0.148 C  
HETATM   42  C   UNL     1     -12.030  12.301  67.030  1.00  0.00    -0.213 A  
HETATM   43  C   UNL     1     -10.990  13.224  66.947  1.00  0.00    -0.298 A  
BRANCH  25  44
HETATM   44  C   UNL     1      -6.240   8.816  64.763  1.00  0.00    -0.065 C  
HETATM   45  O   UNL     1      -5.315   8.019  64.688  1.00  0.00    -0.035 OA 
BRANCH  44  46
HETATM   46  O   UNL     1      -6.192  10.130  64.357  1.00  0.00    -0.124 OA 
HETATM   47  C   UNL     1      -5.584  10.546  63.136  1.00  0.00    -0.153 C  
ENDBRANCH  44  46
ENDBRANCH  25  44
BRANCH  28  48
HETATM   48  C   UNL     1     -10.690   3.758  63.986  1.00  0.00    -0.256 C  
HETATM   49  C   UNL     1      -9.396   3.376  63.177  1.00  0.00    -0.098 C  
ENDBRANCH  28  48
ENDBRANCH   7  25
BRANCH  18  50
HETATM   50  C   UNL     1     -11.146   5.405  72.649  1.00  0.00    -0.332 C  
HETATM   51  C   UNL     1     -11.455   4.643  73.972  1.00  0.00     0.499 C  
ENDBRANCH  18  50
BRANCH  16  52
HETATM   52  O   UNL     1     -10.542   2.395  70.334  1.00  0.00     1.429 OA 
BRANCH  52  53
HETATM   53  C   UNL     1      -9.905   2.406  69.121  1.00  0.00     0.378 C  
HETATM   54  C   UNL     1      -8.720   1.468  69.074  1.00  0.00    -0.103 C  
HETATM   55  O   UNL     1     -10.164   3.183  68.222  1.00  0.00     0.643 OA 
ENDBRANCH  52  53
ENDBRANCH  16  52
BRANCH  14  56
HETATM   56  C   UNL     1      -7.733   3.519  71.890  1.00  0.00    -0.058 C  
HETATM   57  O   UNL     1      -7.222   2.401  71.831  1.00  0.00    -0.037 OA 
BRANCH  56  58
HETATM   58  O   UNL     1      -7.380   4.490  72.790  1.00  0.00    -0.078 OA 
HETATM   59  C   UNL     1      -6.401   4.134  73.763  1.00  0.00    -0.037 C  
ENDBRANCH  56  58
ENDBRANCH  14  56
TORSDOF 10
ENDMDL
MODEL       52
REMARK 921   NORMALIZED FREE ENERGY PREDICTED BY IDOCK:   58.00 KCAL/MOL
REMARK 922        TOTAL FREE ENERGY PREDICTED BY IDOCK:   89.95 KCAL/MOL
REMARK 923 INTER-LIGAND FREE ENERGY PREDICTED BY IDOCK:   66.22 KCAL/MOL
REMARK 924 INTRA-LIGAND FREE ENERGY PREDICTED BY IDOCK:   23.73 KCAL/MOL
REMARK 927      BINDING AFFINITY PREDICTED BY RF-SCORE:    0.00 PKD
ROOT
HETATM    1  C   UNL     1      -9.179  10.299  66.931  1.00  0.00    -0.150 C  
HETATM    2  N   UNL     1     -10.050  11.394  66.518  1.00  0.00    -0.209 NA 
HETATM    3  C   UNL     1     -10.253  12.212  67.600  1.00  0.00    -0.197 A  
HETATM    4  C   UNL     1     -10.213  11.799  65.136  1.00  0.00    -0.268 C  
HETATM    5  C   UNL     1     -11.019  13.369  67.538  1.00  0.00    -0.284 A  
HETATM    6  C   UNL     1     -11.276  14.166  68.654  1.00  0.00    -0.266 A  
HETATM    7  C   UNL     1     -10.727  13.794  69.909  1.00  0.00     0.411 A  
HETATM    8  N   UNL     1      -7.512   9.283  70.117  1.00  0.00    -0.083 NA 
HETATM    9  H   UNL     1     -11.624   8.294  67.919  1.00  0.00     0.000 HD 
HETATM   10  C   UNL     1      -7.033   8.070  70.720  1.00  0.00    -0.045 C  
HETATM   11  C   UNL     1      -9.839  12.595  69.891  1.00  0.00     2.304 A  
HETATM   12  C   UNL     1      -9.632  11.775  68.764  1.00  0.00    -0.053 A  
HETATM   13  O   UNL     1     -11.116   9.097  67.914  1.00  0.00    -0.066 OA 
HETATM   14  C   UNL     1     -10.048   8.926  66.940  1.00  0.00    -0.273 C  
HETATM   15  C   UNL     1      -8.358   9.189  68.965  1.00  0.00    -0.127 C  
HETATM   16  C   UNL     1      -9.180   7.629  67.289  1.00  0.00    -0.131 C  
HETATM   17  C   UNL     1      -8.618  10.630  68.405  1.00  0.00    -0.134 C  
HETATM   18  C   UNL     1      -7.806   8.106  67.813  1.00  0.00    -0.118 C  
HETATM   19  C   UNL     1      -6.969   6.998  68.466  1.00  0.00    -0.075 C  
HETATM   20  C   UNL     1      -7.209  11.205  68.776  1.00  0.00    -0.098 C  
HETATM   21  C   UNL     1      -6.576   7.037  69.723  1.00  0.00    -0.044 C  
HETATM   22  C   UNL     1      -6.821  10.537  70.134  1.00  0.00    -0.141 C  
ENDROOT
BRANCH   6  23
HETATM   23  O   UNL     1     -12.062  15.286  68.529  1.00  0.00    -0.250 OA 
HETATM   24  C   UNL     1     -11.517  16.539  68.946  1.00  0.00    -0.131 C  
ENDBRANCH   6  23
BRANCH   7  25
HETATM   25  C   UNL     1     -10.942  14.682  71.327  1.00  0.00     0.432 C  
HETATM   26  C   UNL     1      -6.508  13.578  71.375  1.00  0.00     1.342 C  
HETATM   27  C   UNL     1      -9.135  16.293  70.631  1.00  0.00     2.686 A  
HETATM   28  C   UNL     1      -6.429  13.410  72.905  1.00  0.00     2.932 C  
HETATM   29  N   UNL     1      -7.913  13.919  70.998  1.00  0.00     3.567 NA 
HETATM   30  C   UNL     1      -9.133  17.610  70.013  1.00  0.00     1.944 A  
HETATM   31  C   UNL     1      -7.251  14.320  73.568  1.00  0.00     4.567 C  
HETATM   32  C   UNL     1     -10.471  16.034  70.915  1.00  0.00     0.561 A  
HETATM   33  C   UNL     1      -7.905  15.397  70.702  1.00  0.00     1.559 C  
HETATM   34  N   UNL     1     -11.251  17.107  70.608  1.00  0.00     0.052 NA 
HETATM   35  C   UNL     1      -8.133  18.373  69.438  1.00  0.00     0.329 A  
HETATM   36  C   UNL     1      -8.736  13.319  72.072  1.00  0.00    15.882 C  
HETATM   37  C   UNL     1     -10.461  18.057  69.976  1.00  0.00     1.120 A  
HETATM   38  C   UNL     1      -8.804  14.125  73.314  1.00  0.00    10.512 C  
HETATM   39  H   UNL     1     -12.247  17.198  70.810  1.00  0.00     0.000 HD 
HETATM   40  C   UNL     1     -10.823  19.232  69.321  1.00  0.00     1.207 A  
HETATM   41  C   UNL     1     -10.178  14.806  72.948  1.00  0.00     4.454 C  
HETATM   42  C   UNL     1      -8.471  19.554  68.765  1.00  0.00    -0.337 A  
HETATM   43  C   UNL     1      -9.803  19.957  68.698  1.00  0.00    -0.438 A  
BRANCH  25  44
HETATM   44  C   UNL     1     -12.421  14.392  71.692  1.00  0.00    -0.352 C  
HETATM   45  O   UNL     1     -12.848  13.527  72.442  1.00  0.00    -0.277 OA 
BRANCH  44  46
HETATM   46  O   UNL     1     -13.173  15.395  71.122  1.00  0.00    -0.462 OA 
HETATM   47  C   UNL     1     -14.280  15.142  70.259  1.00  0.00     1.359 C  
ENDBRANCH  44  46
ENDBRANCH  25  44
BRANCH  28  48
HETATM   48  C   UNL     1      -6.330  11.873  73.286  1.00  0.00     4.679 C  
HETATM   49  C   UNL     1      -6.337  10.710  72.226  1.00  0.00     2.115 C  
ENDBRANCH  28  48
ENDBRANCH   7  25
BRANCH  18  50
HETATM   50  C   UNL     1      -6.814   8.500  66.605  1.00  0.00    -0.072 C  
HETATM   51  C   UNL     1      -5.293   8.260  66.840  1.00  0.00    -0.032 C  
ENDBRANCH  18  50
BRANCH  16  52
HETATM   52  O   UNL     1      -9.786   6.799  68.352  1.00  0.00    -0.134 OA 
BRANCH  52  53
HETATM   53  C   UNL     1      -9.619   5.446  68.207  1.00  0.00    -0.125 C  
HETATM   54  C   UNL     1      -8.674   5.092  67.081  1.00  0.00    -0.103 C  
HETATM   55  O   UNL     1     -10.263   4.610  68.812  1.00  0.00    -0.081 OA 
ENDBRANCH  52  53
ENDBRANCH  16  52
BRANCH  14  56
HETATM   56  C   UNL     1     -10.652   8.579  65.587  1.00  0.00     2.329 C  
HETATM   57  O   UNL     1     -10.581   9.265  64.568  1.00  0.00     2.372 OA 
BRANCH  56  58
HETATM   58  O   UNL     1     -11.147   7.301  65.631  1.00  0.00     3.169 OA 
HETATM   59  C   UNL     1     -11.235   6.693  66.916  1.00  0.00    -0.108 C  
ENDBRANCH  56  58
ENDBRANCH  14  56
TORSDOF 10
ENDMDL
MODEL       53
REMARK 921   NORMALIZED FREE ENERGY PREDICTED BY IDOCK:   58.82 KCAL/MOL
REMARK 922        TOTAL FREE ENERGY PREDICTED BY IDOCK:   91.25 KCAL/MOL
REMARK 923 INTER-LIGAND FREE ENERGY PREDICTED BY IDOCK:   63.88 KCAL/MOL
REMARK 924 INTRA-LIGAND FREE ENERGY PREDICTED BY IDOCK:   27.38 KCAL/MOL
REMARK 927      BINDING AFFINITY PREDICTED BY RF-SCORE:    0.00 PKD
ROOT
HETATM    1  C   UNL     1      -8.839  16.558  69.482  1.00  0.00     0.233 C  
HETATM    2  N   UNL     1      -7.808  15.571  69.787  1.00  0.00    -0.126 NA 
HETATM    3  C   UNL     1      -8.178  14.378  69.221  1.00  0.00     0.124 A  
HETATM    4  C   UNL     1      -6.452  15.928  70.148  1.00  0.00     0.031 C  
HETATM    5  C   UNL     1      -7.399  13.231  69.301  1.00  0.00     0.211 A  
HETATM    6  C   UNL     1      -7.804  12.002  68.780  1.00  0.00    -0.033 A  
HETATM    7  C   UNL     1      -9.061  11.912  68.126  1.00  0.00    -0.190 A  
HETATM    8  N   UNL     1     -12.087  16.530  67.635  1.00  0.00     0.974 NA 
HETATM    9  H   UNL     1     -10.695  15.928  72.154  1.00  0.00     0.000 HD 
HETATM   10  C   UNL     1     -13.319  17.270  67.649  1.00  0.00     7.492 C  
HETATM   11  C   UNL     1      -9.808  13.196  67.991  1.00  0.00    -0.231 A  
HETATM   12  C   UNL     1      -9.405  14.416  68.568  1.00  0.00    -0.204 A  
HETATM   13  O   UNL     1     -10.239  15.710  71.349  1.00  0.00     0.672 OA 
HETATM   14  C   UNL     1      -9.618  16.931  70.859  1.00  0.00     3.845 C  
HETATM   15  C   UNL     1     -11.174  16.695  68.727  1.00  0.00    -0.217 C  
HETATM   16  C   UNL     1     -10.717  18.079  70.675  1.00  0.00     2.098 C  
HETATM   17  C   UNL     1      -9.853  15.913  68.408  1.00  0.00    -0.214 C  
HETATM   18  C   UNL     1     -10.925  18.294  69.159  1.00  0.00     1.155 C  
HETATM   19  C   UNL     1     -12.154  19.147  68.813  1.00  0.00     5.602 C  
HETATM   20  C   UNL     1      -9.884  16.165  66.863  1.00  0.00    -0.247 C  
HETATM   21  C   UNL     1     -13.160  18.703  68.086  1.00  0.00     8.691 C  
HETATM   22  C   UNL     1     -11.390  16.118  66.454  1.00  0.00     0.372 C  
ENDROOT
BRANCH   6  23
HETATM   23  O   UNL     1      -6.994  10.901  68.914  1.00  0.00    -0.070 OA 
HETATM   24  C   UNL     1      -5.716  11.078  69.528  1.00  0.00    -0.047 C  
ENDBRANCH   6  23
BRANCH   7  25
HETATM   25  C   UNL     1      -9.656  10.494  67.432  1.00  0.00    -0.181 C  
HETATM   26  C   UNL     1      -5.195  10.418  66.446  1.00  0.00    -0.047 C  
HETATM   27  C   UNL     1      -8.001   9.118  68.740  1.00  0.00    -0.100 A  
HETATM   28  C   UNL     1      -5.374   9.757  65.066  1.00  0.00    -0.051 C  
HETATM   29  N   UNL     1      -6.541  10.635  67.057  1.00  0.00    -0.076 NA 
HETATM   30  C   UNL     1      -8.074   8.340  69.966  1.00  0.00    -0.116 A  
HETATM   31  C   UNL     1      -6.425   8.841  65.064  1.00  0.00    -0.065 C  
HETATM   32  C   UNL     1      -9.316   9.479  68.468  1.00  0.00    -0.137 A  
HETATM   33  C   UNL     1      -6.690   9.557  68.100  1.00  0.00    -0.062 C  
HETATM   34  N   UNL     1     -10.172   8.916  69.364  1.00  0.00    -0.203 NA 
HETATM   35  C   UNL     1      -7.106   7.782  70.780  1.00  0.00    -0.053 A  
HETATM   36  C   UNL     1      -7.453  10.763  65.899  1.00  0.00    -0.099 C  
HETATM   37  C   UNL     1      -9.423   8.278  70.343  1.00  0.00    -0.167 A  
HETATM   38  C   UNL     1      -7.861   9.472  65.295  1.00  0.00    -0.111 C  
HETATM   39  H   UNL     1     -11.190   8.955  69.322  1.00  0.00     0.000 HD 
HETATM   40  C   UNL     1      -9.823   7.716  71.554  1.00  0.00    -0.192 A  
HETATM   41  C   UNL     1      -9.228   9.395  66.078  1.00  0.00    -0.253 C  
HETATM   42  C   UNL     1      -7.480   7.219  72.007  1.00  0.00    -0.080 A  
HETATM   43  C   UNL     1      -8.820   7.210  72.386  1.00  0.00    -0.144 A  
BRANCH  25  44
HETATM   44  C   UNL     1     -11.120  10.872  67.086  1.00  0.00    -0.240 C  
HETATM   45  O   UNL     1     -11.686  10.755  66.009  1.00  0.00     0.402 OA 
BRANCH  44  46
HETATM   46  O   UNL     1     -11.725  11.234  68.269  1.00  0.00    -0.427 OA 
HETATM   47  C   UNL     1     -12.159  10.286  69.243  1.00  0.00     0.158 C  
ENDBRANCH  44  46
ENDBRANCH  25  44
BRANCH  28  48
HETATM   48  C   UNL     1      -5.128  10.817  63.911  1.00  0.00    -0.142 C  
HETATM   49  C   UNL     1      -5.235  10.477  62.378  1.00  0.00    -0.123 C  
ENDBRANCH  28  48
ENDBRANCH   7  25
BRANCH  18  50
HETATM   50  C   UNL     1      -9.776  19.232  68.528  1.00  0.00    -0.481 C  
HETATM   51  C   UNL     1     -10.227  20.272  67.460  1.00  0.00    -0.486 C  
ENDBRANCH  18  50
BRANCH  16  52
HETATM   52  O   UNL     1     -12.031  17.715  71.247  1.00  0.00     3.033 OA 
BRANCH  52  53
HETATM   53  C   UNL     1     -12.434  16.426  71.018  1.00  0.00     0.816 C  
HETATM   54  C   UNL     1     -12.675  15.653  72.295  1.00  0.00    -0.513 C  
HETATM   55  O   UNL     1     -12.460  15.904  69.919  1.00  0.00    -0.252 OA 
ENDBRANCH  52  53
ENDBRANCH  16  52
BRANCH  14  56
HETATM   56  C   UNL     1      -8.708  17.500  71.939  1.00  0.00    13.291 C  
HETATM   57  O   UNL     1      -7.505  17.270  72.063  1.00  0.00     8.341 OA 
BRANCH  56  58
HETATM   58  O   UNL     1      -9.397  18.443  72.656  1.00  0.00     8.716 OA 
HETATM   59  C   UNL     1     -10.578  18.003  73.321  1.00  0.00     4.002 C  
ENDBRANCH  56  58
ENDBRANCH  14  56
TORSDOF 10
ENDMDL
MODEL       54
REMARK 921   NORMALIZED FREE ENERGY PREDICTED BY IDOCK:   66.04 KCAL/MOL
REMARK 922        TOTAL FREE ENERGY PREDICTED BY IDOCK:  102.69 KCAL/MOL
REMARK 923 INTER-LIGAND FREE ENERGY PREDICTED BY IDOCK:   93.24 KCAL/MOL
REMARK 924 INTRA-LIGAND FREE ENERGY PREDICTED BY IDOCK:    9.45 KCAL/MOL
REMARK 927      BINDING AFFINITY PREDICTED BY RF-SCORE:    0.00 PKD
ROOT
HETATM    1  C   UNL     1      -8.179  16.267  66.710  1.00  0.00    -0.259 C  
HETATM    2  N   UNL     1      -7.330  15.371  67.487  1.00  0.00    -0.177 NA 
HETATM    3  C   UNL     1      -7.486  14.100  66.996  1.00  0.00     0.317 A  
HETATM    4  C   UNL     1      -6.184  15.827  68.247  1.00  0.00    -0.114 C  
HETATM    5  C   UNL     1      -6.793  13.006  67.499  1.00  0.00    -0.156 A  
HETATM    6  C   UNL     1      -6.998  11.705  67.041  1.00  0.00    -0.144 A  
HETATM    7  C   UNL     1      -7.945  11.478  66.009  1.00  0.00     0.179 A  
HETATM    8  N   UNL     1     -10.570  15.865  63.865  1.00  0.00     0.964 NA 
HETATM    9  H   UNL     1     -10.861  15.914  68.623  1.00  0.00     0.000 HD 
HETATM   10  C   UNL     1     -11.722  16.550  63.347  1.00  0.00     3.639 C  
HETATM   11  C   UNL     1      -8.587  12.702  65.447  1.00  0.00     1.491 A  
HETATM   12  C   UNL     1      -8.403  14.002  65.956  1.00  0.00     1.452 A  
HETATM   13  O   UNL     1     -10.154  15.612  68.066  1.00  0.00    -0.221 OA 
HETATM   14  C   UNL     1      -9.391  16.783  67.662  1.00  0.00    -0.228 C  
HETATM   15  C   UNL     1     -10.098  16.208  65.174  1.00  0.00     0.073 C  
HETATM   16  C   UNL     1     -10.346  17.851  66.951  1.00  0.00    -0.355 C  
HETATM   17  C   UNL     1      -8.756  15.446  65.448  1.00  0.00     1.626 C  
HETATM   18  C   UNL     1     -10.006  17.859  65.444  1.00  0.00     0.668 C  
HETATM   19  C   UNL     1     -11.028  18.608  64.578  1.00  0.00     3.524 C  
HETATM   20  C   UNL     1      -8.239  15.494  63.971  1.00  0.00    14.318 C  
HETATM   21  C   UNL     1     -11.716  18.033  63.613  1.00  0.00     9.078 C  
HETATM   22  C   UNL     1      -9.505  15.331  63.071  1.00  0.00    14.992 C  
ENDROOT
BRANCH   6  23
HETATM   23  O   UNL     1      -6.296  10.664  67.599  1.00  0.00    -0.055 OA 
HETATM   24  C   UNL     1      -5.703  10.866  68.884  1.00  0.00    -0.040 C  
ENDBRANCH   6  23
BRANCH   7  25
HETATM   25  C   UNL     1      -8.268   9.959  65.350  1.00  0.00    -0.139 C  
HETATM   26  C   UNL     1      -9.807   9.651  69.642  1.00  0.00    -0.215 C  
HETATM   27  C   UNL     1     -10.707  10.186  65.937  1.00  0.00     0.074 A  
HETATM   28  C   UNL     1      -9.412   8.172  69.819  1.00  0.00    -0.159 C  
HETATM   29  N   UNL     1      -9.382  10.105  68.282  1.00  0.00    -0.132 NA 
HETATM   30  C   UNL     1     -11.898  10.568  65.194  1.00  0.00     2.812 A  
HETATM   31  C   UNL     1      -9.567   7.451  68.636  1.00  0.00    -0.146 C  
HETATM   32  C   UNL     1      -9.706  10.087  64.978  1.00  0.00    -0.317 A  
HETATM   33  C   UNL     1     -10.644  10.144  67.458  1.00  0.00    -0.273 C  
HETATM   34  N   UNL     1     -10.206  10.284  63.727  1.00  0.00    -0.467 NA 
HETATM   35  C   UNL     1     -13.181  10.901  65.587  1.00  0.00     8.724 A  
HETATM   36  C   UNL     1      -8.231   9.237  67.949  1.00  0.00    -0.115 C  
HETATM   37  C   UNL     1     -11.536  10.663  63.842  1.00  0.00     2.049 A  
HETATM   38  C   UNL     1      -8.603   7.890  67.456  1.00  0.00    -0.122 C  
HETATM   39  H   UNL     1      -9.691  10.172  62.854  1.00  0.00     0.000 HD 
HETATM   40  C   UNL     1     -12.418  11.143  62.877  1.00  0.00     1.348 A  
HETATM   41  C   UNL     1      -8.471   8.272  65.931  1.00  0.00    -0.151 C  
HETATM   42  C   UNL     1     -14.085  11.395  64.638  1.00  0.00     5.971 A  
HETATM   43  C   UNL     1     -13.691  11.528  63.309  1.00  0.00     1.849 A  
BRANCH  25  44
HETATM   44  C   UNL     1      -7.146   9.800  64.291  1.00  0.00    -0.126 C  
HETATM   45  O   UNL     1      -6.564  10.686  63.682  1.00  0.00     0.000 OA 
BRANCH  44  46
HETATM   46  O   UNL     1      -6.814   8.464  64.264  1.00  0.00    -0.066 OA 
HETATM   47  C   UNL     1      -6.319   7.762  65.403  1.00  0.00    -0.041 C  
ENDBRANCH  44  46
ENDBRANCH  25  44
BRANCH  28  48
HETATM   48  C   UNL     1      -8.145   8.049  70.766  1.00  0.00    -0.101 C  
HETATM   49  C   UNL     1      -6.827   8.885  70.571  1.00  0.00    -0.054 C  
ENDBRANCH  28  48
ENDBRANCH   7  25
BRANCH  18  50
HETATM   50  C   UNL     1      -8.701  18.753  65.133  1.00  0.00     2.337 C  
HETATM   51  C   UNL     1      -8.833  20.288  65.357  1.00  0.00     0.664 C  
ENDBRANCH  18  50
BRANCH  16  52
HETATM   52  O   UNL     1     -11.780  17.512  67.072  1.00  0.00     1.107 OA 
BRANCH  52  53
HETATM   53  C   UNL     1     -12.626  18.581  67.203  1.00  0.00     5.727 C  
HETATM   54  C   UNL     1     -12.357  19.666  66.185  1.00  0.00     4.634 C  
HETATM   55  O   UNL     1     -13.414  18.720  68.119  1.00  0.00     7.126 OA 
ENDBRANCH  52  53
ENDBRANCH  16  52
BRANCH  14  56
HETATM   56  C   UNL     1      -8.914  17.525  68.904  1.00  0.00    -0.144 C  
HETATM   57  O   UNL     1      -9.599  17.793  69.891  1.00  0.00     0.674 OA 
BRANCH  56  58
HETATM   58  O   UNL     1      -7.558  17.702  68.828  1.00  0.00    -0.262 OA 
HETATM   59  C   UNL     1      -6.870  17.913  70.059  1.00  0.00     0.606 C  
ENDBRANCH  56  58
ENDBRANCH  14  56
TORSDOF 10
ENDMDL
MODEL       55
REMARK 921   NORMALIZED FREE ENERGY PREDICTED BY IDOCK:   68.33 KCAL/MOL
REMARK 922        TOTAL FREE ENERGY PREDICTED BY IDOCK:  106.32 KCAL/MOL
REMARK 923 INTER-LIGAND FREE ENERGY PREDICTED BY IDOCK:   87.15 KCAL/MOL
REMARK 924 INTRA-LIGAND FREE ENERGY PREDICTED BY IDOCK:   19.18 KCAL/MOL
REMARK 927      BINDING AFFINITY PREDICTED BY RF-SCORE:    0.00 PKD
ROOT
HETATM    1  C   UNL     1      -8.973  15.902  71.633  1.00  0.00     6.030 C  
HETATM    2  N   UNL     1      -9.154  14.631  72.326  1.00  0.00     5.575 NA 
HETATM    3  C   UNL     1      -8.904  13.618  71.435  1.00  0.00     9.823 A  
HETATM    4  C   UNL     1      -9.087  14.497  73.767  1.00  0.00     9.902 C  
HETATM    5  C   UNL     1      -8.962  12.275  71.783  1.00  0.00    18.551 A  
HETATM    6  C   UNL     1      -8.769  11.245  70.862  1.00  0.00     6.057 A  
HETATM    7  C   UNL     1      -8.489  11.574  69.510  1.00  0.00     0.783 A  
HETATM    8  N   UNL     1      -8.065  16.933  68.158  1.00  0.00    -0.194 NA 
HETATM    9  H   UNL     1     -12.101  16.140  70.566  1.00  0.00     0.000 HD 
HETATM   10  C   UNL     1      -8.280  18.065  67.300  1.00  0.00    -0.218 C  
HETATM   11  C   UNL     1      -8.347  13.030  69.219  1.00  0.00     0.796 A  
HETATM   12  C   UNL     1      -8.595  14.056  70.152  1.00  0.00     2.104 A  
HETATM   13  O   UNL     1     -11.251  15.725  70.662  1.00  0.00    -0.317 OA 
HETATM   14  C   UNL     1     -10.426  16.611  71.470  1.00  0.00     2.384 C  
HETATM   15  C   UNL     1      -8.840  16.823  69.358  1.00  0.00     0.168 C  
HETATM   16  C   UNL     1     -10.352  18.063  70.804  1.00  0.00     2.373 C  
HETATM   17  C   UNL     1      -8.319  15.602  70.191  1.00  0.00     0.736 C  
HETATM   18  C   UNL     1      -8.929  18.249  70.233  1.00  0.00     2.760 C  
HETATM   19  C   UNL     1      -8.783  19.464  69.306  1.00  0.00    -0.027 C  
HETATM   20  C   UNL     1      -6.815  15.756  69.782  1.00  0.00    -0.120 C  
HETATM   21  C   UNL     1      -8.424  19.369  68.042  1.00  0.00    -0.355 C  
HETATM   22  C   UNL     1      -6.825  16.228  68.293  1.00  0.00    -0.132 C  
ENDROOT
BRANCH   6  23
HETATM   23  O   UNL     1      -8.863   9.936  71.269  1.00  0.00     0.266 OA 
HETATM   24  C   UNL     1      -7.697   9.117  71.170  1.00  0.00    -0.078 C  
ENDBRANCH   6  23
BRANCH   7  25
HETATM   25  C   UNL     1      -8.211  10.426  68.305  1.00  0.00    -0.114 C  
HETATM   26  C   UNL     1     -12.300   9.284  69.996  1.00  0.00     0.663 C  
HETATM   27  C   UNL     1     -10.371  11.047  67.168  1.00  0.00    -0.259 A  
HETATM   28  C   UNL     1     -12.094   7.766  69.827  1.00  0.00     0.928 C  
HETATM   29  N   UNL     1     -11.061   9.991  69.550  1.00  0.00    -0.240 NA 
HETATM   30  C   UNL     1     -10.714  11.895  66.037  1.00  0.00    -0.326 A  
HETATM   31  C   UNL     1     -11.355   7.468  68.683  1.00  0.00     0.496 C  
HETATM   32  C   UNL     1      -8.982  10.990  67.162  1.00  0.00    -0.143 A  
HETATM   33  C   UNL     1     -11.388  10.561  68.193  1.00  0.00    -0.254 C  
HETATM   34  N   UNL     1      -8.471  11.647  66.084  1.00  0.00    -0.367 NA 
HETATM   35  C   UNL     1     -11.917  12.396  65.574  1.00  0.00    -0.453 A  
HETATM   36  C   UNL     1      -9.977   9.008  69.769  1.00  0.00    -0.196 C  
HETATM   37  C   UNL     1      -9.515  12.281  65.424  1.00  0.00     0.028 A  
HETATM   38  C   UNL     1      -9.856   7.984  68.704  1.00  0.00    -0.182 C  
HETATM   39  H   UNL     1      -7.490  11.669  65.809  1.00  0.00     0.000 HD 
HETATM   40  C   UNL     1      -9.486  13.210  64.386  1.00  0.00     0.850 A  
HETATM   41  C   UNL     1      -8.708   8.741  67.932  1.00  0.00    -0.136 C  
HETATM   42  C   UNL     1     -11.916  13.338  64.537  1.00  0.00    -0.449 A  
HETATM   43  C   UNL     1     -10.709  13.746  63.973  1.00  0.00     0.157 A  
BRANCH  25  44
HETATM   44  C   UNL     1      -6.664  10.314  68.290  1.00  0.00    -0.057 C  
HETATM   45  O   UNL     1      -5.870  10.855  69.045  1.00  0.00    -0.041 OA 
BRANCH  44  46
HETATM   46  O   UNL     1      -6.345   9.362  67.349  1.00  0.00    -0.060 OA 
HETATM   47  C   UNL     1      -5.680   9.670  66.125  1.00  0.00    -0.053 C  
ENDBRANCH  44  46
ENDBRANCH  25  44
BRANCH  28  48
HETATM   48  C   UNL     1     -11.847   7.082  71.238  1.00  0.00    -0.371 C  
HETATM   49  C   UNL     1     -10.523   7.257  72.070  1.00  0.00    -0.228 C  
ENDBRANCH  28  48
ENDBRANCH   7  25
BRANCH  18  50
HETATM   50  C   UNL     1      -7.878  18.672  71.379  1.00  0.00     6.285 C  
HETATM   51  C   UNL     1      -6.939  17.553  71.918  1.00  0.00     6.549 C  
ENDBRANCH  18  50
BRANCH  16  52
HETATM   52  O   UNL     1     -11.298  18.231  69.680  1.00  0.00     2.201 OA 
BRANCH  52  53
HETATM   53  C   UNL     1     -11.085  17.406  68.607  1.00  0.00     0.143 C  
HETATM   54  C   UNL     1     -12.281  16.537  68.291  1.00  0.00     1.158 C  
HETATM   55  O   UNL     1     -10.011  17.274  68.051  1.00  0.00    -0.278 OA 
ENDBRANCH  52  53
ENDBRANCH  16  52
BRANCH  14  56
HETATM   56  C   UNL     1     -11.126  16.878  72.796  1.00  0.00     1.825 C  
HETATM   57  O   UNL     1     -10.587  17.273  73.829  1.00  0.00     3.756 OA 
BRANCH  56  58
HETATM   58  O   UNL     1     -12.481  16.771  72.618  1.00  0.00     0.028 OA 
HETATM   59  C   UNL     1     -13.139  15.728  73.331  1.00  0.00    -0.579 C  
ENDBRANCH  56  58
ENDBRANCH  14  56
TORSDOF 10
ENDMDL
MODEL       56
REMARK 921   NORMALIZED FREE ENERGY PREDICTED BY IDOCK:   71.75 KCAL/MOL
REMARK 922        TOTAL FREE ENERGY PREDICTED BY IDOCK:  111.74 KCAL/MOL
REMARK 923 INTER-LIGAND FREE ENERGY PREDICTED BY IDOCK:  100.14 KCAL/MOL
REMARK 924 INTRA-LIGAND FREE ENERGY PREDICTED BY IDOCK:   11.59 KCAL/MOL
REMARK 927      BINDING AFFINITY PREDICTED BY RF-SCORE:    0.00 PKD
ROOT
HETATM    1  C   UNL     1     -10.496  12.579  65.979  1.00  0.00    -0.258 C  
HETATM    2  N   UNL     1     -11.652  13.296  65.455  1.00  0.00    -0.312 NA 
HETATM    3  C   UNL     1     -11.554  14.608  65.841  1.00  0.00    -0.327 A  
HETATM    4  C   UNL     1     -12.435  12.824  64.331  1.00  0.00    -0.399 C  
HETATM    5  C   UNL     1     -12.486  15.573  65.483  1.00  0.00     1.016 A  
HETATM    6  C   UNL     1     -12.419  16.893  65.928  1.00  0.00     4.720 A  
HETATM    7  C   UNL     1     -11.348  17.281  66.775  1.00  0.00     0.833 A  
HETATM    8  N   UNL     1      -7.519  13.482  68.051  1.00  0.00    -0.122 NA 
HETATM    9  H   UNL     1     -11.894  11.776  68.874  1.00  0.00     0.000 HD 
HETATM   10  C   UNL     1      -6.612  12.817  68.946  1.00  0.00    -0.095 C  
HETATM   11  C   UNL     1     -10.330  16.225  67.048  1.00  0.00    -0.292 A  
HETATM   12  C   UNL     1     -10.443  14.885  66.630  1.00  0.00    -0.292 A  
HETATM   13  O   UNL     1     -11.597  12.370  68.195  1.00  0.00    -0.298 OA 
HETATM   14  C   UNL     1     -11.003  11.562  67.140  1.00  0.00    -0.286 C  
HETATM   15  C   UNL     1      -8.724  12.807  67.668  1.00  0.00    -0.180 C  
HETATM   16  C   UNL     1      -9.835  10.644  67.735  1.00  0.00    -0.165 C  
HETATM   17  C   UNL     1      -9.461  13.660  66.578  1.00  0.00    -0.270 C  
HETATM   18  C   UNL     1      -8.488  11.208  67.229  1.00  0.00    -0.137 C  
HETATM   19  C   UNL     1      -7.261  10.624  67.943  1.00  0.00    -0.087 C  
HETATM   20  C   UNL     1      -8.162  14.208  65.896  1.00  0.00     2.129 C  
HETATM   21  C   UNL     1      -6.408  11.358  68.629  1.00  0.00    -0.053 C  
HETATM   22  C   UNL     1      -7.137  14.435  67.053  1.00  0.00     0.543 C  
ENDROOT
BRANCH   6  23
HETATM   23  O   UNL     1     -13.388  17.793  65.554  1.00  0.00    10.673 OA 
HETATM   24  C   UNL     1     -13.806  17.800  64.188  1.00  0.00    15.665 C  
ENDBRANCH   6  23
BRANCH   7  25
HETATM   25  C   UNL     1     -11.137  18.850  67.361  1.00  0.00    -0.131 C  
HETATM   26  C   UNL     1      -7.817  16.455  69.393  1.00  0.00    -0.047 C  
HETATM   27  C   UNL     1      -8.754  18.870  66.545  1.00  0.00    -0.319 A  
HETATM   28  C   UNL     1      -7.872  17.245  70.715  1.00  0.00     4.854 C  
HETATM   29  N   UNL     1      -8.865  16.985  68.468  1.00  0.00    -0.247 NA 
HETATM   30  C   UNL     1      -8.090  19.408  65.368  1.00  0.00     0.641 A  
HETATM   31  C   UNL     1      -8.160  18.593  70.499  1.00  0.00     3.142 C  
HETATM   32  C   UNL     1     -10.052  19.363  66.478  1.00  0.00    -0.422 A  
HETATM   33  C   UNL     1      -8.124  17.830  67.463  1.00  0.00    -0.223 C  
HETATM   34  N   UNL     1     -10.198  20.214  65.425  1.00  0.00    -0.353 NA 
HETATM   35  C   UNL     1      -6.830  19.215  64.834  1.00  0.00     0.232 A  
HETATM   36  C   UNL     1      -9.904  17.533  69.368  1.00  0.00     0.060 C  
HETATM   37  C   UNL     1      -9.027  20.193  64.680  1.00  0.00     2.891 A  
HETATM   38  C   UNL     1      -9.601  18.881  69.905  1.00  0.00     0.747 C  
HETATM   39  H   UNL     1     -11.026  20.772  65.219  1.00  0.00     0.000 HD 
HETATM   40  C   UNL     1      -8.748  20.745  63.432  1.00  0.00     5.518 A  
HETATM   41  C   UNL     1     -10.454  19.644  68.820  1.00  0.00    -0.180 C  
HETATM   42  C   UNL     1      -6.526  19.751  63.575  1.00  0.00     0.738 A  
HETATM   43  C   UNL     1      -7.488  20.488  62.886  1.00  0.00     2.582 A  
BRANCH  25  44
HETATM   44  C   UNL     1     -12.577  19.423  67.329  1.00  0.00     4.667 C  
HETATM   45  O   UNL     1     -13.425  19.262  66.463  1.00  0.00     8.276 OA 
BRANCH  44  46
HETATM   46  O   UNL     1     -12.785  20.037  68.543  1.00  0.00     4.437 OA 
HETATM   47  C   UNL     1     -13.619  21.184  68.702  1.00  0.00     6.810 C  
ENDBRANCH  44  46
ENDBRANCH  25  44
BRANCH  28  48
HETATM   48  C   UNL     1      -8.550  16.371  71.852  1.00  0.00    10.031 C  
HETATM   49  C   UNL     1     -10.014  15.801  71.757  1.00  0.00     2.988 C  
ENDBRANCH  28  48
ENDBRANCH   7  25
BRANCH  18  50
HETATM   50  C   UNL     1      -8.166  10.721  65.726  1.00  0.00    -0.146 C  
HETATM   51  C   UNL     1      -6.854   9.909  65.518  1.00  0.00    -0.105 C  
ENDBRANCH  18  50
BRANCH  16  52
HETATM   52  O   UNL     1      -9.786  10.659  69.212  1.00  0.00    -0.218 OA 
BRANCH  52  53
HETATM   53  C   UNL     1      -9.031   9.668  69.784  1.00  0.00    -0.211 C  
HETATM   54  C   UNL     1      -8.709   8.550  68.819  1.00  0.00    -0.139 C  
HETATM   55  O   UNL     1      -8.766   9.611  70.969  1.00  0.00    -0.208 OA 
ENDBRANCH  52  53
ENDBRANCH  16  52
BRANCH  14  56
HETATM   56  C   UNL     1     -12.024  10.543  66.654  1.00  0.00     2.484 C  
HETATM   57  O   UNL     1     -13.247  10.669  66.700  1.00  0.00     8.131 OA 
BRANCH  56  58
HETATM   58  O   UNL     1     -11.372   9.530  66.000  1.00  0.00     1.369 OA 
HETATM   59  C   UNL     1     -10.983   8.407  66.787  1.00  0.00     0.490 C  
ENDBRANCH  56  58
ENDBRANCH  14  56
TORSDOF 10
ENDMDL
MODEL       57
REMARK 921   NORMALIZED FREE ENERGY PREDICTED BY IDOCK:   72.18 KCAL/MOL
REMARK 922        TOTAL FREE ENERGY PREDICTED BY IDOCK:  112.42 KCAL/MOL
REMARK 923 INTER-LIGAND FREE ENERGY PREDICTED BY IDOCK:  106.88 KCAL/MOL
REMARK 924 INTRA-LIGAND FREE ENERGY PREDICTED BY IDOCK:    5.54 KCAL/MOL
REMARK 927      BINDING AFFINITY PREDICTED BY RF-SCORE:    0.00 PKD
ROOT
HETATM    1  C   UNL     1      -7.305  14.186  67.158  1.00  0.00     0.167 C  
HETATM    2  N   UNL     1      -6.512  13.307  68.009  1.00  0.00    -0.113 NA 
HETATM    3  C   UNL     1      -6.891  12.013  67.760  1.00  0.00    -0.100 A  
HETATM    4  C   UNL     1      -5.242  13.697  68.587  1.00  0.00    -0.082 C  
HETATM    5  C   UNL     1      -6.308  10.920  68.389  1.00  0.00    -0.053 A  
HETATM    6  C   UNL     1      -6.737   9.609  68.181  1.00  0.00    -0.062 A  
HETATM    7  C   UNL     1      -7.808   9.369  67.280  1.00  0.00    -0.099 A  
HETATM    8  N   UNL     1     -10.008  13.707  64.622  1.00  0.00    -0.187 NA 
HETATM    9  H   UNL     1      -9.798  14.560  69.308  1.00  0.00     0.000 HD 
HETATM   10  C   UNL     1     -11.102  14.469  64.085  1.00  0.00     0.200 C  
HETATM   11  C   UNL     1      -8.329  10.572  66.567  1.00  0.00    -0.141 A  
HETATM   12  C   UNL     1      -7.916  11.892  66.828  1.00  0.00    -0.087 A  
HETATM   13  O   UNL     1      -9.200  14.067  68.758  1.00  0.00    -0.158 OA 
HETATM   14  C   UNL     1      -8.328  15.029  68.098  1.00  0.00    -0.142 C  
HETATM   15  C   UNL     1      -9.361  14.179  65.811  1.00  0.00     0.093 C  
HETATM   16  C   UNL     1      -9.195  16.103  67.290  1.00  0.00    -0.208 C  
HETATM   17  C   UNL     1      -8.116  13.273  66.106  1.00  0.00     1.459 C  
HETATM   18  C   UNL     1      -9.014  15.817  65.782  1.00  0.00    -0.072 C  
HETATM   19  C   UNL     1     -10.007  16.567  64.882  1.00  0.00     0.985 C  
HETATM   20  C   UNL     1      -7.752  13.004  64.607  1.00  0.00     8.192 C  
HETATM   21  C   UNL     1     -10.864  15.957  64.089  1.00  0.00     0.754 C  
HETATM   22  C   UNL     1      -9.115  12.897  63.851  1.00  0.00     2.362 C  
ENDROOT
BRANCH   6  23
HETATM   23  O   UNL     1      -6.132   8.576  68.854  1.00  0.00    -0.042 OA 
HETATM   24  C   UNL     1      -5.345   8.893  70.003  1.00  0.00    -0.028 C  
ENDBRANCH   6  23
BRANCH   7  25
HETATM   25  C   UNL     1      -8.405   7.832  66.922  1.00  0.00    -0.124 C  
HETATM   26  C   UNL     1     -10.241   8.808  70.991  1.00  0.00    -0.237 C  
HETATM   27  C   UNL     1     -10.771   8.653  67.180  1.00  0.00    -0.199 A  
HETATM   28  C   UNL     1     -10.182   7.360  71.515  1.00  0.00    -0.205 C  
HETATM   29  N   UNL     1      -9.645   8.851  69.621  1.00  0.00    -0.166 NA 
HETATM   30  C   UNL     1     -11.804   9.080  66.249  1.00  0.00     5.987 A  
HETATM   31  C   UNL     1     -10.411   6.433  70.498  1.00  0.00    -0.270 C  
HETATM   32  C   UNL     1      -9.756   8.147  66.378  1.00  0.00    -0.205 A  
HETATM   33  C   UNL     1     -10.815   8.946  68.675  1.00  0.00     0.009 C  
HETATM   34  N   UNL     1     -10.122   8.149  65.067  1.00  0.00     1.691 NA 
HETATM   35  C   UNL     1     -13.009   9.735  66.424  1.00  0.00    14.145 A  
HETATM   36  C   UNL     1      -8.686   7.725  69.603  1.00  0.00    -0.135 C  
HETATM   37  C   UNL     1     -11.346   8.795  64.956  1.00  0.00     8.601 A  
HETATM   38  C   UNL     1      -9.304   6.398  69.364  1.00  0.00    -0.143 C  
HETATM   39  H   UNL     1      -9.589   7.745  64.298  1.00  0.00     0.000 HD 
HETATM   40  C   UNL     1     -12.044   9.204  63.822  1.00  0.00    15.608 A  
HETATM   41  C   UNL     1      -8.997   6.392  67.817  1.00  0.00    -0.113 C  
HETATM   42  C   UNL     1     -13.727  10.166  65.300  1.00  0.00    15.989 A  
HETATM   43  C   UNL     1     -13.230   9.915  64.023  1.00  0.00    11.900 A  
BRANCH  25  44
HETATM   44  C   UNL     1      -7.278   7.223  66.048  1.00  0.00    -0.074 C  
HETATM   45  O   UNL     1      -6.396   7.819  65.446  1.00  0.00    -0.041 OA 
BRANCH  44  46
HETATM   46  O   UNL     1      -7.360   5.857  66.191  1.00  0.00    -0.077 OA 
HETATM   47  C   UNL     1      -8.471   5.204  66.803  1.00  0.00    -0.106 C  
ENDBRANCH  44  46
ENDBRANCH  25  44
BRANCH  28  48
HETATM   48  C   UNL     1      -9.032   7.212  72.598  1.00  0.00    -0.148 C  
HETATM   49  C   UNL     1      -8.530   8.397  73.503  1.00  0.00    -0.174 C  
ENDBRANCH  28  48
ENDBRANCH   7  25
BRANCH  18  50
HETATM   50  C   UNL     1      -7.637  16.439  65.220  1.00  0.00     3.731 C  
HETATM   51  C   UNL     1      -7.643  16.935  63.744  1.00  0.00    15.137 C  
ENDBRANCH  18  50
BRANCH  16  52
HETATM   52  O   UNL     1     -10.642  16.011  67.580  1.00  0.00    -0.296 OA 
BRANCH  52  53
HETATM   53  C   UNL     1     -11.189  17.111  68.187  1.00  0.00     0.024 C  
HETATM   54  C   UNL     1     -12.697  17.143  68.090  1.00  0.00     4.083 C  
HETATM   55  O   UNL     1     -10.539  18.038  68.632  1.00  0.00    -0.283 OA 
ENDBRANCH  52  53
ENDBRANCH  16  52
BRANCH  14  56
HETATM   56  C   UNL     1      -7.629  15.877  69.152  1.00  0.00    -0.213 C  
HETATM   57  O   UNL     1      -7.046  15.452  70.149  1.00  0.00    -0.063 OA 
BRANCH  56  58
HETATM   58  O   UNL     1      -7.602  17.181  68.732  1.00  0.00    -0.243 OA 
HETATM   59  C   UNL     1      -8.139  18.152  69.626  1.00  0.00     0.854 C  
ENDBRANCH  56  58
ENDBRANCH  14  56
TORSDOF 10
ENDMDL
MODEL       58
REMARK 921   NORMALIZED FREE ENERGY PREDICTED BY IDOCK:   73.76 KCAL/MOL
REMARK 922        TOTAL FREE ENERGY PREDICTED BY IDOCK:  114.92 KCAL/MOL
REMARK 923 INTER-LIGAND FREE ENERGY PREDICTED BY IDOCK:  102.30 KCAL/MOL
REMARK 924 INTRA-LIGAND FREE ENERGY PREDICTED BY IDOCK:   12.62 KCAL/MOL
REMARK 927      BINDING AFFINITY PREDICTED BY RF-SCORE:    0.00 PKD
ROOT
HETATM    1  C   UNL     1      -8.505  16.075  64.960  1.00  0.00     3.949 C  
HETATM    2  N   UNL     1      -7.667  14.981  64.482  1.00  0.00    10.495 NA 
HETATM    3  C   UNL     1      -8.348  13.806  64.670  1.00  0.00     6.923 A  
HETATM    4  C   UNL     1      -6.587  15.166  63.534  1.00  0.00    25.622 C  
HETATM    5  C   UNL     1      -7.839  12.569  64.295  1.00  0.00     5.526 A  
HETATM    6  C   UNL     1      -8.505  11.369  64.543  1.00  0.00     0.613 A  
HETATM    7  C   UNL     1      -9.764  11.403  65.198  1.00  0.00    -0.280 A  
HETATM    8  N   UNL     1     -11.888  16.348  66.524  1.00  0.00     1.190 NA 
HETATM    9  H   UNL     1      -7.397  15.995  68.081  1.00  0.00     0.000 HD 
HETATM   10  C   UNL     1     -12.583  17.261  67.389  1.00  0.00     4.478 C  
HETATM   11  C   UNL     1     -10.299  12.764  65.491  1.00  0.00    -0.301 A  
HETATM   12  C   UNL     1      -9.589  13.961  65.277  1.00  0.00     0.113 A  
HETATM   13  O   UNL     1      -7.792  15.633  67.297  1.00  0.00    -0.161 OA 
HETATM   14  C   UNL     1      -7.828  16.694  66.301  1.00  0.00    -0.274 C  
HETATM   15  C   UNL     1     -10.469  16.483  66.382  1.00  0.00    -0.274 C  
HETATM   16  C   UNL     1      -8.607  17.969  66.874  1.00  0.00    -0.250 C  
HETATM   17  C   UNL     1      -9.971  15.485  65.279  1.00  0.00    -0.273 C  
HETATM   18  C   UNL     1      -9.964  18.062  66.142  1.00  0.00    -0.288 C  
HETATM   19  C   UNL     1     -10.951  19.050  66.780  1.00  0.00    -0.205 C  
HETATM   20  C   UNL     1     -11.249  15.585  64.381  1.00  0.00    -0.232 C  
HETATM   21  C   UNL     1     -12.127  18.691  67.254  1.00  0.00     3.118 C  
HETATM   22  C   UNL     1     -12.453  15.722  65.367  1.00  0.00     1.330 C  
ENDROOT
BRANCH   6  23
HETATM   23  O   UNL     1      -7.934  10.178  64.166  1.00  0.00    -0.154 OA 
HETATM   24  C   UNL     1      -6.512  10.128  64.033  1.00  0.00    -0.119 C  
ENDBRANCH   6  23
BRANCH   7  25
HETATM   25  C   UNL     1     -10.683  10.028  65.534  1.00  0.00     0.372 C  
HETATM   26  C   UNL     1      -6.416   8.798  66.616  1.00  0.00    -0.063 C  
HETATM   27  C   UNL     1      -9.838  10.003  67.907  1.00  0.00    -0.171 A  
HETATM   28  C   UNL     1      -6.577   7.337  66.156  1.00  0.00    -0.052 C  
HETATM   29  N   UNL     1      -7.690   9.533  66.348  1.00  0.00    -0.097 NA 
HETATM   30  C   UNL     1     -10.375  10.459  69.179  1.00  0.00    -0.241 A  
HETATM   31  C   UNL     1      -7.862   6.855  66.405  1.00  0.00    -0.103 C  
HETATM   32  C   UNL     1     -10.886  10.148  67.006  1.00  0.00    -0.151 A  
HETATM   33  C   UNL     1      -8.368   9.666  67.688  1.00  0.00    -0.121 C  
HETATM   34  N   UNL     1     -12.019  10.561  67.637  1.00  0.00    -0.228 NA 
HETATM   35  C   UNL     1      -9.805  10.639  70.426  1.00  0.00     0.920 A  
HETATM   36  C   UNL     1      -8.297   8.811  65.208  1.00  0.00    -0.160 C  
HETATM   37  C   UNL     1     -11.707  10.838  68.961  1.00  0.00    -0.286 A  
HETATM   38  C   UNL     1      -9.014   7.569  65.582  1.00  0.00    -0.012 C  
HETATM   39  H   UNL     1     -12.941  10.650  67.210  1.00  0.00     0.000 HD 
HETATM   40  C   UNL     1     -12.470  11.450  69.953  1.00  0.00    -0.190 A  
HETATM   41  C   UNL     1     -10.436   8.251  65.618  1.00  0.00     2.113 C  
HETATM   42  C   UNL     1     -10.547  11.260  71.439  1.00  0.00     4.646 A  
HETATM   43  C   UNL     1     -11.853  11.673  71.187  1.00  0.00     0.372 A  
BRANCH  25  44
HETATM   44  C   UNL     1     -11.851  10.140  64.521  1.00  0.00     5.297 C  
HETATM   45  O   UNL     1     -11.807   9.976  63.311  1.00  0.00     4.710 OA 
BRANCH  44  46
HETATM   46  O   UNL     1     -12.999  10.320  65.259  1.00  0.00     7.516 OA 
HETATM   47  C   UNL     1     -13.290  11.526  65.965  1.00  0.00     7.423 C  
ENDBRANCH  44  46
ENDBRANCH  25  44
BRANCH  28  48
HETATM   48  C   UNL     1      -5.796   7.098  64.795  1.00  0.00    -0.037 C  
HETATM   49  C   UNL     1      -6.377   7.469  63.380  1.00  0.00    -0.054 C  
ENDBRANCH  28  48
ENDBRANCH   7  25
BRANCH  18  50
HETATM   50  C   UNL     1      -9.812  18.751  64.693  1.00  0.00     4.582 C  
HETATM   51  C   UNL     1      -9.252  20.204  64.662  1.00  0.00     2.920 C  
ENDBRANCH  18  50
BRANCH  16  52
HETATM   52  O   UNL     1      -8.899  17.863  68.320  1.00  0.00    -0.261 OA 
BRANCH  52  53
HETATM   53  C   UNL     1      -8.687  19.006  69.046  1.00  0.00    -0.169 C  
HETATM   54  C   UNL     1      -7.702  18.806  70.175  1.00  0.00     1.380 C  
HETATM   55  O   UNL     1      -9.321  20.034  68.900  1.00  0.00    -0.146 OA 
ENDBRANCH  52  53
ENDBRANCH  16  52
BRANCH  14  56
HETATM   56  C   UNL     1      -6.418  17.225  66.083  1.00  0.00    -0.123 C  
HETATM   57  O   UNL     1      -5.376  16.597  66.263  1.00  0.00    -0.277 OA 
BRANCH  56  58
HETATM   58  O   UNL     1      -6.490  18.460  65.491  1.00  0.00    -0.263 OA 
HETATM   59  C   UNL     1      -6.693  18.482  64.081  1.00  0.00     2.708 C  
ENDBRANCH  56  58
ENDBRANCH  14  56
TORSDOF 10
ENDMDL
MODEL       59
REMARK 921   NORMALIZED FREE ENERGY PREDICTED BY IDOCK:   81.50 KCAL/MOL
REMARK 922        TOTAL FREE ENERGY PREDICTED BY IDOCK:  127.18 KCAL/MOL
REMARK 923 INTER-LIGAND FREE ENERGY PREDICTED BY IDOCK:   85.85 KCAL/MOL
REMARK 924 INTRA-LIGAND FREE ENERGY PREDICTED BY IDOCK:   41.33 KCAL/MOL
REMARK 927      BINDING AFFINITY PREDICTED BY RF-SCORE:    0.00 PKD
ROOT
HETATM    1  C   UNL     1     -10.808  12.671  70.900  1.00  0.00     3.579 C  
HETATM    2  N   UNL     1     -11.992  11.850  70.670  1.00  0.00    -0.290 NA 
HETATM    3  C   UNL     1     -11.642  10.817  69.838  1.00  0.00    -0.331 A  
HETATM    4  C   UNL     1     -13.136  11.842  71.560  1.00  0.00    -0.275 C  
HETATM    5  C   UNL     1     -12.537   9.832  69.441  1.00  0.00     1.321 A  
HETATM    6  C   UNL     1     -12.197   8.818  68.546  1.00  0.00     3.828 A  
HETATM    7  C   UNL     1     -10.879   8.775  68.021  1.00  0.00    -0.056 A  
HETATM    8  N   UNL     1      -7.252  12.591  69.755  1.00  0.00     0.496 NA 
HETATM    9  H   UNL     1     -11.287  14.671  68.303  1.00  0.00     0.000 HD 
HETATM   10  C   UNL     1      -6.180  13.530  69.565  1.00  0.00    -0.115 C  
HETATM   11  C   UNL     1      -9.940   9.803  68.558  1.00  0.00    -0.177 A  
HETATM   12  C   UNL     1     -10.316  10.849  69.423  1.00  0.00    -0.174 A  
HETATM   13  O   UNL     1     -11.163  13.835  68.736  1.00  0.00    -0.244 OA 
HETATM   14  C   UNL     1     -11.021  14.102  70.160  1.00  0.00     0.200 C  
HETATM   15  C   UNL     1      -8.578  13.095  69.957  1.00  0.00     3.213 C  
HETATM   16  C   UNL     1      -9.825  15.132  70.415  1.00  0.00     0.399 C  
HETATM   17  C   UNL     1      -9.532  11.897  70.292  1.00  0.00     3.860 C  
HETATM   18  C   UNL     1      -8.658  14.352  71.061  1.00  0.00     3.900 C  
HETATM   19  C   UNL     1      -7.334  15.127  71.099  1.00  0.00     1.872 C  
HETATM   20  C   UNL     1      -8.469  11.058  71.078  1.00  0.00     5.328 C  
HETATM   21  C   UNL     1      -6.237  14.712  70.498  1.00  0.00    -0.149 C  
HETATM   22  C   UNL     1      -7.112  11.292  70.342  1.00  0.00     1.056 C  
ENDROOT
BRANCH   6  23
HETATM   23  O   UNL     1     -13.138   7.888  68.176  1.00  0.00     8.934 OA 
HETATM   24  C   UNL     1     -13.264   7.576  66.787  1.00  0.00    16.103 C  
ENDBRANCH   6  23
BRANCH   7  25
HETATM   25  C   UNL     1     -10.333   7.588  66.952  1.00  0.00    -0.379 C  
HETATM   26  C   UNL     1      -6.587  10.029  67.898  1.00  0.00    -0.063 C  
HETATM   27  C   UNL     1      -8.606   6.831  68.621  1.00  0.00    -0.122 A  
HETATM   28  C   UNL     1      -5.978   9.890  66.489  1.00  0.00    -0.059 C  
HETATM   29  N   UNL     1      -7.913   9.340  67.922  1.00  0.00    -0.100 NA 
HETATM   30  C   UNL     1      -8.536   5.745  69.586  1.00  0.00    -0.112 A  
HETATM   31  C   UNL     1      -6.258   8.646  65.926  1.00  0.00    -0.056 C  
HETATM   32  C   UNL     1      -9.757   6.579  67.884  1.00  0.00    -0.122 A  
HETATM   33  C   UNL     1      -7.680   8.041  68.649  1.00  0.00    -0.105 C  
HETATM   34  N   UNL     1     -10.328   5.401  68.258  1.00  0.00    -0.169 NA 
HETATM   35  C   UNL     1      -7.681   5.483  70.641  1.00  0.00    -0.090 A  
HETATM   36  C   UNL     1      -8.385   9.403  66.520  1.00  0.00    -0.119 C  
HETATM   37  C   UNL     1      -9.640   4.911  69.360  1.00  0.00    -0.169 A  
HETATM   38  C   UNL     1      -7.792   8.377  65.629  1.00  0.00    -0.106 C  
HETATM   39  H   UNL     1     -11.125   4.954  67.806  1.00  0.00     0.000 HD 
HETATM   40  C   UNL     1      -9.943   3.847  70.206  1.00  0.00    -0.039 A  
HETATM   41  C   UNL     1      -9.008   7.382  65.758  1.00  0.00    -0.061 C  
HETATM   42  C   UNL     1      -7.968   4.425  71.513  1.00  0.00    -0.083 A  
HETATM   43  C   UNL     1      -9.097   3.638  71.298  1.00  0.00    -0.180 A  
BRANCH  25  44
HETATM   44  C   UNL     1     -11.589   7.303  66.090  1.00  0.00     3.942 C  
HETATM   45  O   UNL     1     -12.684   7.842  66.164  1.00  0.00     9.244 OA 
BRANCH  44  46
HETATM   46  O   UNL     1     -11.203   6.418  65.109  1.00  0.00     3.865 OA 
HETATM   47  C   UNL     1      -9.838   6.102  64.838  1.00  0.00     1.707 C  
ENDBRANCH  44  46
ENDBRANCH  25  44
BRANCH  28  48
HETATM   48  C   UNL     1      -6.097  11.261  65.699  1.00  0.00     0.307 C  
HETATM   49  C   UNL     1      -5.887  11.393  64.146  1.00  0.00     1.685 C  
ENDBRANCH  28  48
ENDBRANCH   7  25
BRANCH  18  50
HETATM   50  C   UNL     1      -8.882  14.150  72.645  1.00  0.00    10.033 C  
HETATM   51  C   UNL     1      -9.961  15.047  73.321  1.00  0.00     6.013 C  
ENDBRANCH  18  50
BRANCH  16  52
HETATM   52  O   UNL     1      -9.307  15.736  69.168  1.00  0.00    -0.223 OA 
BRANCH  52  53
HETATM   53  C   UNL     1      -7.959  15.980  69.151  1.00  0.00    -0.238 C  
HETATM   54  C   UNL     1      -7.551  16.923  68.042  1.00  0.00    -0.182 C  
HETATM   55  O   UNL     1      -7.151  15.399  69.850  1.00  0.00    -0.163 OA 
ENDBRANCH  52  53
ENDBRANCH  16  52
BRANCH  14  56
HETATM   56  C   UNL     1     -12.242  14.866  70.651  1.00  0.00    -0.318 C  
HETATM   57  O   UNL     1     -12.484  15.163  71.820  1.00  0.00    -0.305 OA 
BRANCH  56  58
HETATM   58  O   UNL     1     -12.951  15.322  69.571  1.00  0.00     0.172 OA 
HETATM   59  C   UNL     1     -12.251  15.398  68.332  1.00  0.00     0.169 C  
ENDBRANCH  56  58
ENDBRANCH  14  56
TORSDOF 10
ENDMDL
MODEL       60
REMARK 921   NORMALIZED FREE ENERGY PREDICTED BY IDOCK:   94.18 KCAL/MOL
REMARK 922        TOTAL FREE ENERGY PREDICTED BY IDOCK:  147.29 KCAL/MOL
REMARK 923 INTER-LIGAND FREE ENERGY PREDICTED BY IDOCK:  128.72 KCAL/MOL
REMARK 924 INTRA-LIGAND FREE ENERGY PREDICTED BY IDOCK:   18.57 KCAL/MOL
REMARK 927      BINDING AFFINITY PREDICTED BY RF-SCORE:    0.00 PKD
ROOT
HETATM    1  C   UNL     1      -7.616   7.094  68.416  1.00  0.00    -0.118 C  
HETATM    2  N   UNL     1      -7.428   8.360  67.716  1.00  0.00    -0.096 NA 
HETATM    3  C   UNL     1      -7.322   9.356  68.653  1.00  0.00    -0.075 A  
HETATM    4  C   UNL     1      -6.932   8.449  66.358  1.00  0.00    -0.074 C  
HETATM    5  C   UNL     1      -7.108  10.687  68.319  1.00  0.00    -0.081 A  
HETATM    6  C   UNL     1      -7.062  11.708  69.269  1.00  0.00    -0.055 A  
HETATM    7  C   UNL     1      -7.228  11.381  70.640  1.00  0.00     2.165 A  
HETATM    8  N   UNL     1      -7.886   6.046  71.993  1.00  0.00    -0.105 NA 
HETATM    9  H   UNL     1     -10.923   7.270  68.528  1.00  0.00     0.000 HD 
HETATM   10  C   UNL     1      -8.480   4.970  72.738  1.00  0.00    -0.116 C  
HETATM   11  C   UNL     1      -7.360   9.926  70.942  1.00  0.00     0.244 A  
HETATM   12  C   UNL     1      -7.454   8.916  69.965  1.00  0.00    -0.057 A  
HETATM   13  O   UNL     1     -10.037   7.574  68.688  1.00  0.00    -0.174 OA 
HETATM   14  C   UNL     1      -9.131   6.574  68.143  1.00  0.00    -0.114 C  
HETATM   15  C   UNL     1      -8.262   6.220  70.621  1.00  0.00    -0.125 C  
HETATM   16  C   UNL     1      -9.435   5.140  68.784  1.00  0.00    -0.133 C  
HETATM   17  C   UNL     1      -7.374   7.347  69.989  1.00  0.00    -0.082 C  
HETATM   18  C   UNL     1      -8.272   4.795  69.741  1.00  0.00    -0.068 C  
HETATM   19  C   UNL     1      -8.552   3.594  70.656  1.00  0.00    -0.112 C  
HETATM   20  C   UNL     1      -6.084   7.019  70.815  1.00  0.00    -0.032 C  
HETATM   21  C   UNL     1      -8.565   3.676  71.971  1.00  0.00    -0.107 C  
HETATM   22  C   UNL     1      -6.583   6.589  72.231  1.00  0.00    -0.059 C  
ENDROOT
BRANCH   6  23
HETATM   23  O   UNL     1      -6.871  13.008  68.868  1.00  0.00    -0.095 OA 
HETATM   24  C   UNL     1      -5.585  13.373  68.362  1.00  0.00    -0.088 C  
ENDBRANCH   6  23
BRANCH   7  25
HETATM   25  C   UNL     1      -7.168  12.516  71.888  1.00  0.00     8.247 C  
HETATM   26  C   UNL     1      -8.216  14.992  68.192  1.00  0.00    -0.140 C  
HETATM   27  C   UNL     1      -9.520  13.255  71.372  1.00  0.00    11.558 A  
HETATM   28  C   UNL     1      -7.414  16.232  68.631  1.00  0.00    -0.185 C  
HETATM   29  N   UNL     1      -8.043  13.917  69.217  1.00  0.00     0.246 NA 
HETATM   30  C   UNL     1     -10.825  12.957  71.941  1.00  0.00     7.335 A  
HETATM   31  C   UNL     1      -7.456  16.412  70.014  1.00  0.00     0.863 C  
HETATM   32  C   UNL     1      -8.609  12.661  72.238  1.00  0.00    20.659 A  
HETATM   33  C   UNL     1      -9.327  13.902  70.006  1.00  0.00     2.048 C  
HETATM   34  N   UNL     1      -9.242  12.116  73.313  1.00  0.00    22.052 NA 
HETATM   35  C   UNL     1     -12.114  13.197  71.504  1.00  0.00     0.413 A  
HETATM   36  C   UNL     1      -6.727  14.202  69.829  1.00  0.00    -0.065 C  
HETATM   37  C   UNL     1     -10.612  12.214  73.111  1.00  0.00    18.552 A  
HETATM   38  C   UNL     1      -6.749  15.271  70.857  1.00  0.00     0.687 C  
HETATM   39  H   UNL     1      -8.787  11.706  74.128  1.00  0.00     0.000 HD 
HETATM   40  C   UNL     1     -11.666  11.652  73.827  1.00  0.00    14.548 A  
HETATM   41  C   UNL     1      -6.848  14.273  72.074  1.00  0.00     2.311 C  
HETATM   42  C   UNL     1     -13.193  12.635  72.200  1.00  0.00    -0.527 A  
HETATM   43  C   UNL     1     -12.957  11.860  73.333  1.00  0.00     6.087 A  
BRANCH  25  44
HETATM   44  C   UNL     1      -6.134  11.897  72.863  1.00  0.00     3.405 C  
HETATM   45  O   UNL     1      -5.259  12.477  73.490  1.00  0.00    -0.341 OA 
BRANCH  44  46
HETATM   46  O   UNL     1      -6.475  10.572  73.013  1.00  0.00     1.635 OA 
HETATM   47  C   UNL     1      -6.007   9.765  74.093  1.00  0.00     0.452 C  
ENDBRANCH  44  46
ENDBRANCH  25  44
BRANCH  28  48
HETATM   48  C   UNL     1      -6.091  16.369  67.765  1.00  0.00    -0.152 C  
HETATM   49  C   UNL     1      -5.544  17.740  67.222  1.00  0.00    -0.156 C  
ENDBRANCH  28  48
ENDBRANCH   7  25
BRANCH  18  50
HETATM   50  C   UNL     1      -6.996   4.217  68.943  1.00  0.00    -0.047 C  
HETATM   51  C   UNL     1      -6.097   3.197  69.702  1.00  0.00    -0.024 C  
ENDBRANCH  18  50
BRANCH  16  52
HETATM   52  O   UNL     1     -10.678   5.119  69.584  1.00  0.00    -0.212 OA 
BRANCH  52  53
HETATM   53  C   UNL     1     -11.015   3.899  70.111  1.00  0.00     3.337 C  
HETATM   54  C   UNL     1     -11.464   3.990  71.552  1.00  0.00     2.590 C  
HETATM   55  O   UNL     1     -10.840   2.839  69.543  1.00  0.00     3.165 OA 
ENDBRANCH  52  53
ENDBRANCH  16  52
BRANCH  14  56
HETATM   56  C   UNL     1      -9.445   6.362  66.668  1.00  0.00    -0.161 C  
HETATM   57  O   UNL     1     -10.327   6.936  66.029  1.00  0.00     0.345 OA 
BRANCH  56  58
HETATM   58  O   UNL     1      -8.485   5.555  66.116  1.00  0.00    -0.115 OA 
HETATM   59  C   UNL     1      -8.216   5.739  64.729  1.00  0.00    -0.135 C  
ENDBRANCH  56  58
ENDBRANCH  14  56
TORSDOF 10
ENDMDL
MODEL       61
REMARK 921   NORMALIZED FREE ENERGY PREDICTED BY IDOCK:   94.93 KCAL/MOL
REMARK 922        TOTAL FREE ENERGY PREDICTED BY IDOCK:  148.47 KCAL/MOL
REMARK 923 INTER-LIGAND FREE ENERGY PREDICTED BY IDOCK:  123.80 KCAL/MOL
REMARK 924 INTRA-LIGAND FREE ENERGY PREDICTED BY IDOCK:   24.67 KCAL/MOL
REMARK 927      BINDING AFFINITY PREDICTED BY RF-SCORE:    0.00 PKD
ROOT
HETATM    1  C   UNL     1     -10.963   8.347  66.066  1.00  0.00     2.491 C  
HETATM    2  N   UNL     1     -11.819   9.525  66.152  1.00  0.00     3.818 NA 
HETATM    3  C   UNL     1     -11.249  10.405  67.036  1.00  0.00     0.063 A  
HETATM    4  C   UNL     1     -12.771   9.890  65.123  1.00  0.00    11.941 C  
HETATM    5  C   UNL     1     -11.801  11.646  67.328  1.00  0.00    -0.133 A  
HETATM    6  C   UNL     1     -11.254  12.514  68.273  1.00  0.00    -0.266 A  
HETATM    7  C   UNL     1     -10.076  12.128  68.964  1.00  0.00     0.094 A  
HETATM    8  N   UNL     1      -7.764   7.261  67.663  1.00  0.00    -0.110 NA 
HETATM    9  H   UNL     1     -12.414   6.707  68.553  1.00  0.00     0.000 HD 
HETATM   10  C   UNL     1      -7.106   6.022  67.977  1.00  0.00    -0.078 C  
HETATM   11  C   UNL     1      -9.481  10.827  68.540  1.00  0.00    -0.181 A  
HETATM   12  C   UNL     1     -10.075   9.942  67.619  1.00  0.00    -0.241 A  
HETATM   13  O   UNL     1     -11.961   7.439  68.151  1.00  0.00     1.546 OA 
HETATM   14  C   UNL     1     -11.739   7.095  66.754  1.00  0.00     2.166 C  
HETATM   15  C   UNL     1      -9.146   7.227  67.284  1.00  0.00    -0.123 C  
HETATM   16  C   UNL     1     -10.939   5.715  66.642  1.00  0.00    -0.091 C  
HETATM   17  C   UNL     1      -9.588   8.665  66.845  1.00  0.00    -0.254 C  
HETATM   18  C   UNL     1      -9.506   6.037  66.162  1.00  0.00    -0.116 C  
HETATM   19  C   UNL     1      -8.528   4.860  66.287  1.00  0.00    -0.111 C  
HETATM   20  C   UNL     1      -8.214   9.072  66.214  1.00  0.00    -0.115 C  
HETATM   21  C   UNL     1      -7.440   4.900  67.030  1.00  0.00    -0.087 C  
HETATM   22  C   UNL     1      -7.121   8.417  67.117  1.00  0.00    -0.079 C  
ENDROOT
BRANCH   6  23
HETATM   23  O   UNL     1     -11.864  13.718  68.530  1.00  0.00    -0.336 OA 
HETATM   24  C   UNL     1     -13.262  13.713  68.824  1.00  0.00     2.906 C  
ENDBRANCH   6  23
BRANCH   7  25
HETATM   25  C   UNL     1      -9.302  13.094  70.110  1.00  0.00     3.736 C  
HETATM   26  C   UNL     1      -8.995  15.508  66.242  1.00  0.00    -0.327 C  
HETATM   27  C   UNL     1     -10.844  15.014  69.583  1.00  0.00    -0.283 A  
HETATM   28  C   UNL     1      -7.603  16.090  66.558  1.00  0.00    -0.100 C  
HETATM   29  N   UNL     1      -9.397  14.588  67.349  1.00  0.00    -0.192 NA 
HETATM   30  C   UNL     1     -12.047  15.548  70.202  1.00  0.00    -0.404 A  
HETATM   31  C   UNL     1      -7.446  16.340  67.921  1.00  0.00    -0.142 C  
HETATM   32  C   UNL     1     -10.378  14.056  70.476  1.00  0.00     1.789 A  
HETATM   33  C   UNL     1     -10.407  15.355  68.163  1.00  0.00    -0.239 C  
HETATM   34  N   UNL     1     -11.137  14.034  71.607  1.00  0.00     1.197 NA 
HETATM   35  C   UNL     1     -12.997  16.456  69.772  1.00  0.00     2.363 A  
HETATM   36  C   UNL     1      -8.115  14.104  67.908  1.00  0.00    -0.154 C  
HETATM   37  C   UNL     1     -12.218  14.886  71.425  1.00  0.00    -0.333 A  
HETATM   38  C   UNL     1      -7.459  15.050  68.842  1.00  0.00    -0.143 C  
HETATM   39  H   UNL     1     -10.944  13.485  72.444  1.00  0.00     0.000 HD 
HETATM   40  C   UNL     1     -13.356  15.069  72.208  1.00  0.00    -0.497 A  
HETATM   41  C   UNL     1      -8.028  14.360  70.141  1.00  0.00     0.960 C  
HETATM   42  C   UNL     1     -14.155  16.653  70.536  1.00  0.00     6.446 A  
HETATM   43  C   UNL     1     -14.329  15.948  71.725  1.00  0.00     0.131 A  
BRANCH  25  44
HETATM   44  C   UNL     1      -8.741  12.052  71.112  1.00  0.00    11.256 C  
HETATM   45  O   UNL     1      -9.271  11.016  71.487  1.00  0.00     5.902 OA 
BRANCH  44  46
HETATM   46  O   UNL     1      -7.450  12.435  71.400  1.00  0.00     5.483 OA 
HETATM   47  C   UNL     1      -6.332  12.071  70.593  1.00  0.00     0.592 C  
ENDBRANCH  44  46
ENDBRANCH  25  44
BRANCH  28  48
HETATM   48  C   UNL     1      -6.497  15.396  65.656  1.00  0.00     7.169 C  
HETATM   49  C   UNL     1      -6.204  13.851  65.672  1.00  0.00     9.564 C  
ENDBRANCH  28  48
ENDBRANCH   7  25
BRANCH  18  50
HETATM   50  C   UNL     1      -9.447   6.252  64.566  1.00  0.00     1.515 C  
HETATM   51  C   UNL     1      -9.163   7.698  64.063  1.00  0.00     1.814 C  
ENDBRANCH  18  50
BRANCH  16  52
HETATM   52  O   UNL     1     -10.818   5.012  67.937  1.00  0.00     0.131 OA 
BRANCH  52  53
HETATM   53  C   UNL     1      -9.768   4.137  68.033  1.00  0.00    -0.094 C  
HETATM   54  C   UNL     1      -8.722   4.586  69.029  1.00  0.00    -0.112 C  
HETATM   55  O   UNL     1      -9.610   3.178  67.302  1.00  0.00    -0.174 OA 
ENDBRANCH  52  53
ENDBRANCH  16  52
BRANCH  14  56
HETATM   56  C   UNL     1     -13.074   6.772  66.099  1.00  0.00    11.996 C  
HETATM   57  O   UNL     1     -14.128   7.384  66.268  1.00  0.00    16.039 OA 
BRANCH  56  58
HETATM   58  O   UNL     1     -12.886   5.793  65.158  1.00  0.00     4.385 OA 
HETATM   59  C   UNL     1     -14.060   5.233  64.574  1.00  0.00    11.822 C  
ENDBRANCH  56  58
ENDBRANCH  14  56
TORSDOF 10
ENDMDL
MODEL       62
REMARK 921   NORMALIZED FREE ENERGY PREDICTED BY IDOCK:   99.41 KCAL/MOL
REMARK 922        TOTAL FREE ENERGY PREDICTED BY IDOCK:  155.57 KCAL/MOL
REMARK 923 INTER-LIGAND FREE ENERGY PREDICTED BY IDOCK:  124.66 KCAL/MOL
REMARK 924 INTRA-LIGAND FREE ENERGY PREDICTED BY IDOCK:   30.91 KCAL/MOL
REMARK 927      BINDING AFFINITY PREDICTED BY RF-SCORE:    0.00 PKD
ROOT
HETATM    1  C   UNL     1     -11.811   8.719  70.058  1.00  0.00     0.383 C  
HETATM    2  N   UNL     1     -12.978   8.080  69.461  1.00  0.00     3.349 NA 
HETATM    3  C   UNL     1     -12.577   7.434  68.320  1.00  0.00     6.228 A  
HETATM    4  C   UNL     1     -14.177   7.762  70.211  1.00  0.00     2.316 C  
HETATM    5  C   UNL     1     -13.445   6.699  67.523  1.00  0.00    16.152 A  
HETATM    6  C   UNL     1     -13.049   6.096  66.330  1.00  0.00    10.274 A  
HETATM    7  C   UNL     1     -11.700   6.222  65.908  1.00  0.00     3.088 A  
HETATM    8  N   UNL     1      -8.188   8.991  69.182  1.00  0.00    -0.119 NA 
HETATM    9  H   UNL     1     -12.119  11.572  68.401  1.00  0.00     0.000 HD 
HETATM   10  C   UNL     1      -7.105   9.903  69.430  1.00  0.00    -0.067 C  
HETATM   11  C   UNL     1     -10.797   6.943  66.851  1.00  0.00    -0.380 A  
HETATM   12  C   UNL     1     -11.226   7.588  68.027  1.00  0.00     0.329 A  
HETATM   13  O   UNL     1     -12.024  10.630  68.487  1.00  0.00    -0.425 OA 
HETATM   14  C   UNL     1     -11.973  10.329  69.910  1.00  0.00    -0.150 C  
HETATM   15  C   UNL     1      -9.524   9.414  69.483  1.00  0.00    -0.180 C  
HETATM   16  C   UNL     1     -10.795  11.153  70.612  1.00  0.00     1.110 C  
HETATM   17  C   UNL     1     -10.499   8.203  69.276  1.00  0.00    -0.221 C  
HETATM   18  C   UNL     1      -9.674  10.155  70.977  1.00  0.00     1.117 C  
HETATM   19  C   UNL     1      -8.353  10.823  71.387  1.00  0.00     5.805 C  
HETATM   20  C   UNL     1      -9.490   7.101  69.743  1.00  0.00    -0.149 C  
HETATM   21  C   UNL     1      -7.221  10.640  70.739  1.00  0.00     1.138 C  
HETATM   22  C   UNL     1      -8.088   7.564  69.234  1.00  0.00    -0.126 C  
ENDROOT
BRANCH   6  23
HETATM   23  O   UNL     1     -13.965   5.402  65.576  1.00  0.00     7.228 OA 
HETATM   24  C   UNL     1     -13.631   4.074  65.167  1.00  0.00    15.132 C  
ENDBRANCH   6  23
BRANCH   7  25
HETATM   25  C   UNL     1     -11.088   5.520  64.500  1.00  0.00     3.182 C  
HETATM   26  C   UNL     1      -8.589   9.311  65.021  1.00  0.00    -0.177 C  
HETATM   27  C   UNL     1      -8.769   5.493  65.482  1.00  0.00    -0.154 A  
HETATM   28  C   UNL     1      -8.462   9.595  63.512  1.00  0.00    -0.188 C  
HETATM   29  N   UNL     1      -9.431   8.091  65.214  1.00  0.00     0.527 NA 
HETATM   30  C   UNL     1      -7.955   4.477  66.132  1.00  0.00    -0.099 A  
HETATM   31  C   UNL     1      -8.370   8.418  62.771  1.00  0.00    -0.134 C  
HETATM   32  C   UNL     1      -9.884   4.808  65.012  1.00  0.00     0.031 A  
HETATM   33  C   UNL     1      -8.466   6.984  65.552  1.00  0.00    -0.114 C  
HETATM   34  N   UNL     1      -9.768   3.471  65.241  1.00  0.00    -0.303 NA 
HETATM   35  C   UNL     1      -6.781   4.543  66.859  1.00  0.00    -0.051 A  
HETATM   36  C   UNL     1     -10.307   8.058  64.022  1.00  0.00     7.779 C  
HETATM   37  C   UNL     1      -8.628   3.254  66.003  1.00  0.00    -0.120 A  
HETATM   38  C   UNL     1      -9.664   7.504  62.806  1.00  0.00     3.802 C  
HETATM   39  H   UNL     1     -10.410   2.751  64.909  1.00  0.00     0.000 HD 
HETATM   40  C   UNL     1      -8.180   2.098  66.637  1.00  0.00    -0.087 A  
HETATM   41  C   UNL     1     -10.253   6.054  63.002  1.00  0.00     3.753 C  
HETATM   42  C   UNL     1      -6.313   3.397  67.515  1.00  0.00    -0.036 A  
HETATM   43  C   UNL     1      -7.022   2.202  67.413  1.00  0.00    -0.040 A  
BRANCH  25  44
HETATM   44  C   UNL     1     -12.319   4.770  63.930  1.00  0.00     4.676 C  
HETATM   45  O   UNL     1     -13.055   5.126  63.021  1.00  0.00     5.726 OA 
BRANCH  44  46
HETATM   46  O   UNL     1     -12.350   3.538  64.543  1.00  0.00     3.453 OA 
HETATM   47  C   UNL     1     -12.454   2.311  63.822  1.00  0.00     6.131 C  
ENDBRANCH  44  46
ENDBRANCH  25  44
BRANCH  28  48
HETATM   48  C   UNL     1      -9.379  10.824  63.103  1.00  0.00    -0.336 C  
HETATM   49  C   UNL     1     -10.771  10.672  62.386  1.00  0.00     1.411 C  
ENDBRANCH  28  48
ENDBRANCH   7  25
BRANCH  18  50
HETATM   50  C   UNL     1     -10.000   9.369  72.347  1.00  0.00     1.351 C  
HETATM   51  C   UNL     1     -11.062   8.234  72.268  1.00  0.00    -0.429 C  
ENDBRANCH  18  50
BRANCH  16  52
HETATM   52  O   UNL     1     -10.198  12.173  69.724  1.00  0.00     0.731 OA 
BRANCH  52  53
HETATM   53  C   UNL     1     -10.097  11.816  68.405  1.00  0.00    -0.201 C  
HETATM   54  C   UNL     1     -10.712  10.464  68.117  1.00  0.00    -0.277 C  
HETATM   55  O   UNL     1      -9.461  12.438  67.576  1.00  0.00    -0.179 OA 
ENDBRANCH  52  53
ENDBRANCH  16  52
BRANCH  14  56
HETATM   56  C   UNL     1     -13.223  10.879  70.584  1.00  0.00     0.086 C  
HETATM   57  O   UNL     1     -13.512  10.761  71.774  1.00  0.00    -0.320 OA 
BRANCH  56  58
HETATM   58  O   UNL     1     -13.899  11.674  69.695  1.00  0.00     2.963 OA 
HETATM   59  C   UNL     1     -14.030  11.179  68.366  1.00  0.00    10.475 C  
ENDBRANCH  56  58
ENDBRANCH  14  56
TORSDOF 10
ENDMDL
MODEL       63
REMARK 921   NORMALIZED FREE ENERGY PREDICTED BY IDOCK:  110.47 KCAL/MOL
REMARK 922        TOTAL FREE ENERGY PREDICTED BY IDOCK:  173.10 KCAL/MOL
REMARK 923 INTER-LIGAND FREE ENERGY PREDICTED BY IDOCK:  157.54 KCAL/MOL
REMARK 924 INTRA-LIGAND FREE ENERGY PREDICTED BY IDOCK:   15.56 KCAL/MOL
REMARK 927      BINDING AFFINITY PREDICTED BY RF-SCORE:    0.00 PKD
ROOT
HETATM    1  C   UNL     1      -7.881  16.981  71.409  1.00  0.00     8.018 C  
HETATM    2  N   UNL     1      -7.968  15.986  72.472  1.00  0.00    10.837 NA 
HETATM    3  C   UNL     1      -8.733  14.942  72.020  1.00  0.00     5.996 A  
HETATM    4  C   UNL     1      -7.010  15.899  73.555  1.00  0.00     7.781 C  
HETATM    5  C   UNL     1      -8.991  13.810  72.783  1.00  0.00    12.831 A  
HETATM    6  C   UNL     1      -9.821  12.777  72.346  1.00  0.00    18.079 A  
HETATM    7  C   UNL     1     -10.423  12.871  71.064  1.00  0.00     5.512 A  
HETATM    8  N   UNL     1      -9.239  17.295  67.941  1.00  0.00    -0.242 NA 
HETATM    9  H   UNL     1     -10.597  18.654  72.304  1.00  0.00     0.000 HD 
HETATM   10  C   UNL     1      -9.573  18.353  67.028  1.00  0.00    -0.298 C  
HETATM   11  C   UNL     1     -10.033  14.064  70.258  1.00  0.00     1.809 A  
HETATM   12  C   UNL     1      -9.233  15.120  70.735  1.00  0.00     1.726 A  
HETATM   13  O   UNL     1     -10.106  17.885  72.038  1.00  0.00     4.833 OA 
HETATM   14  C   UNL     1      -8.721  18.296  71.863  1.00  0.00    12.695 C  
HETATM   15  C   UNL     1      -8.995  17.625  69.314  1.00  0.00     0.255 C  
HETATM   16  C   UNL     1      -8.626  19.502  70.817  1.00  0.00     2.449 C  
HETATM   17  C   UNL     1      -8.504  16.341  70.067  1.00  0.00     1.124 C  
HETATM   18  C   UNL     1      -7.994  18.952  69.518  1.00  0.00     0.294 C  
HETATM   19  C   UNL     1      -8.105  19.905  68.319  1.00  0.00    -0.269 C  
HETATM   20  C   UNL     1      -7.721  15.732  68.856  1.00  0.00    -0.186 C  
HETATM   21  C   UNL     1      -8.738  19.594  67.207  1.00  0.00    -0.367 C  
HETATM   22  C   UNL     1      -8.559  16.086  67.586  1.00  0.00    -0.166 C  
ENDROOT
BRANCH   6  23
HETATM   23  O   UNL     1     -10.053  11.695  73.161  1.00  0.00    16.654 OA 
HETATM   24  C   UNL     1      -9.632  11.778  74.524  1.00  0.00    20.662 C  
ENDBRANCH   6  23
BRANCH   7  25
HETATM   25  C   UNL     1     -11.424  11.681  70.409  1.00  0.00     0.001 C  
HETATM   26  C   UNL     1      -9.194  13.363  66.792  1.00  0.00    -0.236 C  
HETATM   27  C   UNL     1      -9.435  10.525  69.383  1.00  0.00    -0.158 A  
HETATM   28  C   UNL     1     -10.382  13.213  65.822  1.00  0.00    -0.294 C  
HETATM   29  N   UNL     1      -9.622  12.916  68.152  1.00  0.00    -0.220 NA 
HETATM   30  C   UNL     1      -8.619   9.382  69.762  1.00  0.00    -0.182 A  
HETATM   31  C   UNL     1     -11.139  12.077  66.103  1.00  0.00    -0.367 C  
HETATM   32  C   UNL     1     -10.489  10.527  70.289  1.00  0.00     0.076 A  
HETATM   33  C   UNL     1      -9.011  11.550  68.339  1.00  0.00    -0.173 C  
HETATM   34  N   UNL     1     -10.427   9.444  71.112  1.00  0.00    -0.320 NA 
HETATM   35  C   UNL     1      -7.404   8.906  69.305  1.00  0.00    -0.070 A  
HETATM   36  C   UNL     1     -11.083  13.152  68.174  1.00  0.00    -0.255 C  
HETATM   37  C   UNL     1      -9.239   8.771  70.861  1.00  0.00    -0.212 A  
HETATM   38  C   UNL     1     -11.883  12.100  67.503  1.00  0.00    -0.307 C  
HETATM   39  H   UNL     1     -11.132   9.174  71.797  1.00  0.00     0.000 HD 
HETATM   40  C   UNL     1      -8.639   7.722  71.554  1.00  0.00    -0.133 A  
HETATM   41  C   UNL     1     -12.215  11.326  68.836  1.00  0.00    -0.160 C  
HETATM   42  C   UNL     1      -6.774   7.858  69.990  1.00  0.00    -0.041 A  
HETATM   43  C   UNL     1      -7.385   7.296  71.108  1.00  0.00    -0.074 A  
BRANCH  25  44
HETATM   44  C   UNL     1     -12.631  11.676  71.382  1.00  0.00    -0.286 C  
HETATM   45  O   UNL     1     -13.733  12.174  71.206  1.00  0.00     0.455 OA 
BRANCH  44  46
HETATM   46  O   UNL     1     -12.281  10.870  72.442  1.00  0.00     0.872 OA 
HETATM   47  C   UNL     1     -12.535   9.467  72.470  1.00  0.00    -0.069 C  
ENDBRANCH  44  46
ENDBRANCH  25  44
BRANCH  28  48
HETATM   48  C   UNL     1     -11.012  14.633  65.498  1.00  0.00    -0.344 C  
HETATM   49  C   UNL     1     -10.702  15.446  64.187  1.00  0.00     0.885 C  
ENDBRANCH  28  48
ENDBRANCH   7  25
BRANCH  18  50
HETATM   50  C   UNL     1      -6.389  18.865  69.629  1.00  0.00    -0.261 C  
HETATM   51  C   UNL     1      -5.717  19.695  70.763  1.00  0.00    -0.276 C  
ENDBRANCH  18  50
BRANCH  16  52
HETATM   52  O   UNL     1      -9.949  20.057  70.457  1.00  0.00     0.430 OA 
BRANCH  52  53
HETATM   53  C   UNL     1     -10.860  19.145  69.992  1.00  0.00     2.224 C  
HETATM   54  C   UNL     1     -11.018  19.191  68.489  1.00  0.00     0.610 C  
HETATM   55  O   UNL     1     -11.575  18.470  70.707  1.00  0.00     4.476 OA 
ENDBRANCH  52  53
ENDBRANCH  16  52
BRANCH  14  56
HETATM   56  C   UNL     1      -8.217  18.924  73.155  1.00  0.00     7.952 C  
HETATM   57  O   UNL     1      -7.465  19.895  73.240  1.00  0.00     2.474 OA 
BRANCH  56  58
HETATM   58  O   UNL     1      -8.862  18.346  74.217  1.00  0.00     6.834 OA 
HETATM   59  C   UNL     1     -10.282  18.471  74.247  1.00  0.00     4.657 C  
ENDBRANCH  56  58
ENDBRANCH  14  56
TORSDOF 10
ENDMDL
MODEL       64
REMARK 921   NORMALIZED FREE ENERGY PREDICTED BY IDOCK:  137.20 KCAL/MOL
REMARK 922        TOTAL FREE ENERGY PREDICTED BY IDOCK:  215.45 KCAL/MOL
REMARK 923 INTER-LIGAND FREE ENERGY PREDICTED BY IDOCK:  206.09 KCAL/MOL
REMARK 924 INTRA-LIGAND FREE ENERGY PREDICTED BY IDOCK:    9.36 KCAL/MOL
REMARK 927      BINDING AFFINITY PREDICTED BY RF-SCORE:    0.00 PKD
ROOT
HETATM    1  C   UNL     1      -8.923   9.725  65.433  1.00  0.00    -0.190 C  
HETATM    2  N   UNL     1      -7.745   9.763  66.293  1.00  0.00    -0.102 NA 
HETATM    3  C   UNL     1      -7.873   8.779  67.239  1.00  0.00    -0.097 A  
HETATM    4  C   UNL     1      -6.489  10.362  65.889  1.00  0.00    -0.123 C  
HETATM    5  C   UNL     1      -6.905   8.527  68.202  1.00  0.00    -0.069 A  
HETATM    6  C   UNL     1      -7.063   7.568  69.202  1.00  0.00    -0.078 A  
HETATM    7  C   UNL     1      -8.257   6.801  69.239  1.00  0.00    -0.124 A  
HETATM    8  N   UNL     1     -12.040   7.669  65.282  1.00  0.00    11.514 NA 
HETATM    9  H   UNL     1     -10.737  11.800  67.271  1.00  0.00     0.000 HD 
HETATM   10  C   UNL     1     -13.384   7.820  64.796  1.00  0.00    22.671 C  
HETATM   11  C   UNL     1      -9.216   7.053  68.124  1.00  0.00    -0.130 A  
HETATM   12  C   UNL     1      -9.061   8.061  67.153  1.00  0.00    -0.159 A  
HETATM   13  O   UNL     1     -10.220  11.020  67.108  1.00  0.00    -0.193 OA 
HETATM   14  C   UNL     1      -9.809  11.058  65.712  1.00  0.00    -0.235 C  
HETATM   15  C   UNL     1     -11.214   8.835  65.389  1.00  0.00     5.837 C  
HETATM   16  C   UNL     1     -11.088  11.181  64.759  1.00  0.00    -0.066 C  
HETATM   17  C   UNL     1      -9.763   8.396  65.789  1.00  0.00     0.092 C  
HETATM   18  C   UNL     1     -11.273   9.826  64.040  1.00  0.00     5.454 C  
HETATM   19  C   UNL     1     -12.621   9.682  63.319  1.00  0.00    12.176 C  
HETATM   20  C   UNL     1      -9.779   7.045  64.998  1.00  0.00     1.942 C  
HETATM   21  C   UNL     1     -13.502   8.748  63.615  1.00  0.00    19.375 C  
HETATM   22  C   UNL     1     -11.236   6.495  65.123  1.00  0.00     5.769 C  
ENDROOT
BRANCH   6  23
HETATM   23  O   UNL     1      -6.075   7.385  70.139  1.00  0.00    -0.024 OA 
HETATM   24  C   UNL     1      -5.847   8.430  71.087  1.00  0.00    -0.034 C  
ENDBRANCH   6  23
BRANCH   7  25
HETATM   25  C   UNL     1      -8.562   5.595  70.379  1.00  0.00    -0.132 C  
HETATM   26  C   UNL     1     -11.538   8.895  71.442  1.00  0.00    -0.312 C  
HETATM   27  C   UNL     1     -10.984   5.511  69.692  1.00  0.00    -0.155 A  
HETATM   28  C   UNL     1     -11.468   8.654  72.962  1.00  0.00     0.582 C  
HETATM   29  N   UNL     1     -10.598   7.956  70.759  1.00  0.00    -0.211 NA 
HETATM   30  C   UNL     1     -11.762   4.643  68.823  1.00  0.00     6.945 A  
HETATM   31  C   UNL     1     -11.308   7.301  73.264  1.00  0.00    -0.060 C  
HETATM   32  C   UNL     1      -9.738   4.901  69.782  1.00  0.00    -0.192 A  
HETATM   33  C   UNL     1     -11.467   6.876  70.166  1.00  0.00    -0.303 C  
HETATM   34  N   UNL     1      -9.729   3.709  69.125  1.00  0.00    -0.091 NA 
HETATM   35  C   UNL     1     -13.032   4.749  68.287  1.00  0.00    19.601 A  
HETATM   36  C   UNL     1      -9.554   7.681  71.771  1.00  0.00    -0.149 C  
HETATM   37  C   UNL     1     -10.938   3.568  68.457  1.00  0.00     4.993 A  
HETATM   38  C   UNL     1      -9.935   6.669  72.785  1.00  0.00    -0.187 C  
HETATM   39  H   UNL     1      -8.965   3.034  69.123  1.00  0.00     0.000 HD 
HETATM   40  C   UNL     1     -11.339   2.622  67.517  1.00  0.00     9.762 A  
HETATM   41  C   UNL     1      -9.217   5.475  72.046  1.00  0.00    -0.154 C  
HETATM   42  C   UNL     1     -13.456   3.815  67.332  1.00  0.00    27.662 A  
HETATM   43  C   UNL     1     -12.604   2.782  66.947  1.00  0.00    22.842 A  
BRANCH  25  44
HETATM   44  C   UNL     1      -7.179   4.909  70.528  1.00  0.00    -0.053 C  
HETATM   45  O   UNL     1      -6.352   5.083  71.411  1.00  0.00    -0.027 OA 
BRANCH  44  46
HETATM   46  O   UNL     1      -7.109   3.943  69.550  1.00  0.00    -0.045 OA 
HETATM   47  C   UNL     1      -7.199   4.237  68.157  1.00  0.00    -0.060 C  
ENDBRANCH  44  46
ENDBRANCH  25  44
BRANCH  28  48
HETATM   48  C   UNL     1     -10.650   9.816  73.669  1.00  0.00     8.921 C  
HETATM   49  C   UNL     1      -9.895  10.951  72.884  1.00  0.00    14.718 C  
ENDBRANCH  28  48
ENDBRANCH   7  25
BRANCH  18  50
HETATM   50  C   UNL     1     -10.287   9.686  62.772  1.00  0.00     2.438 C  
HETATM   51  C   UNL     1      -8.810  10.134  62.980  1.00  0.00    -0.231 C  
ENDBRANCH  18  50
BRANCH  16  52
HETATM   52  O   UNL     1     -12.337  11.453  65.503  1.00  0.00     0.439 OA 
BRANCH  52  53
HETATM   53  C   UNL     1     -12.191  12.213  66.635  1.00  0.00     0.386 C  
HETATM   54  C   UNL     1     -13.299  13.228  66.803  1.00  0.00     3.431 C  
HETATM   55  O   UNL     1     -11.211  12.183  67.355  1.00  0.00    -0.264 OA 
ENDBRANCH  52  53
ENDBRANCH  16  52
BRANCH  14  56
HETATM   56  C   UNL     1      -9.058  12.355  65.445  1.00  0.00     0.440 C  
HETATM   57  O   UNL     1      -9.112  13.020  64.411  1.00  0.00     0.971 OA 
BRANCH  56  58
HETATM   58  O   UNL     1      -8.438  12.761  66.598  1.00  0.00    -0.094 OA 
HETATM   59  C   UNL     1      -7.564  13.881  66.495  1.00  0.00     1.473 C  
ENDBRANCH  56  58
ENDBRANCH  14  56
TORSDOF 10
ENDMDL
