MODEL        1
REMARK 921   NORMALIZED FREE ENERGY PREDICTED BY IDOCK:   -6.63 KCAL/MOL
REMARK 922        TOTAL FREE ENERGY PREDICTED BY IDOCK:  -12.85 KCAL/MOL
REMARK 923 INTER-LIGAND FREE ENERGY PREDICTED BY IDOCK:  -10.89 KCAL/MOL
REMARK 924 INTRA-LIGAND FREE ENERGY PREDICTED BY IDOCK:   -1.96 KCAL/MOL
REMARK 927      BINDING AFFINITY PREDICTED BY RF-SCORE:    0.00 PKD
ROOT
HETATM    1  C   UNL     1      -8.134  10.151  65.409  1.00  0.00    -0.149 C  
HETATM    2  C   UNL     1      -7.208  10.669  64.269  1.00  0.00     0.235 C  
HETATM    3  H1  UNL     1      -8.498   6.492  65.507  1.00  0.00     0.000 HD 
HETATM    4  H   UNL     1      -9.872   8.924  64.919  1.00  0.00     0.000 HD 
HETATM    5  C   UNL     1      -6.445   9.513  63.627  1.00  0.00    -0.103 C  
HETATM    6  H2  UNL     1      -7.244   6.256  64.305  1.00  0.00     0.000 HD 
HETATM    7  N   UNL     1      -7.396   8.516  63.219  1.00  0.00    -0.100 NA 
HETATM    8  O   UNL     1      -5.727   9.949  62.496  1.00  0.00    -0.089 OA 
HETATM    9  N   UNL     1      -8.856   8.996  64.854  1.00  0.00    -0.179 NA 
HETATM   10  N   UNL     1      -7.953   6.856  64.726  1.00  0.00    -0.122 NA 
HETATM   11  H   UNL     1      -7.512   8.206  62.253  1.00  0.00     0.000 HD 
HETATM   12  C   UNL     1      -8.118   8.033  64.252  1.00  0.00    -0.117 C  
HETATM   13  H   UNL     1      -5.252   9.230  62.097  1.00  0.00     0.000 HD 
ENDROOT
BRANCH   1  14
HETATM   14  C   UNL     1      -7.400   9.804  66.749  1.00  0.00    -0.091 C  
HETATM   15  N   UNL     1     -11.341   9.145  69.459  1.00  0.00    -0.435 N  
HETATM   16  O   UNL     1     -10.026   8.229  67.104  1.00  0.00    -0.191 OA 
HETATM   17  C   UNL     1      -9.374   8.686  68.033  1.00  0.00    -0.136 C  
HETATM   18  C   UNL     1      -9.424   7.924  70.351  1.00  0.00    -0.163 C  
HETATM   19  N   UNL     1      -9.672  14.728  68.630  1.00  0.00    -0.220 N  
HETATM   20  H   UNL     1      -7.864   9.758  68.839  1.00  0.00     0.000 HD 
HETATM   21  N   UNL     1      -8.223   9.418  67.946  1.00  0.00    -0.114 N  
HETATM   22  H   UNL     1     -12.094   8.727  68.910  1.00  0.00     0.000 HD 
HETATM   23  C   UNL     1     -10.033   8.626  69.388  1.00  0.00    -0.197 C  
HETATM   24  C   UNL     1     -11.596  10.244  70.294  1.00  0.00    -0.316 C  
HETATM   25  O   UNL     1      -5.720  10.826  68.187  1.00  0.00    -0.043 OA 
HETATM   26  O   UNL     1     -11.517  10.200  71.519  1.00  0.00    -0.283 OA 
HETATM   27  N   UNL     1      -6.974  12.278  66.955  1.00  0.00    -0.370 N  
HETATM   28  CA  UNL     1     -11.837  11.580  69.513  1.00  0.00    -0.351 C  
HETATM   29  N   UNL     1     -11.869  12.821  70.320  1.00  0.00    -0.537 N  
HETATM   30  C   UNL     1      -6.491  13.504  67.598  1.00  0.00    -0.160 C  
HETATM   31  CA  UNL     1      -7.510  14.659  67.387  1.00  0.00    -0.186 C  
HETATM   32  H   UNL     1      -7.654  12.369  66.199  1.00  0.00     0.000 HD 
HETATM   33  H   UNL     1     -11.909  12.806  71.339  1.00  0.00     0.000 HD 
HETATM   34  O   UNL     1      -7.788  15.461  69.667  1.00  0.00    -0.221 OA 
HETATM   35  C   UNL     1     -11.843  14.019  69.590  1.00  0.00    -0.330 C  
HETATM   36  C   UNL     1      -8.310  14.952  68.676  1.00  0.00    -0.164 C  
HETATM   37  H   UNL     1     -10.078  14.418  67.746  1.00  0.00     0.000 HD 
HETATM   38  C   UNL     1      -6.564  11.009  67.309  1.00  0.00    -0.078 C  
HETATM   39  O   UNL     1     -12.598  14.181  68.629  1.00  0.00     0.023 OA 
HETATM   40  CA  UNL     1     -10.587  14.913  69.794  1.00  0.00    -0.169 C  
BRANCH  18  41
HETATM   41  N   UNL     1     -10.036   7.574  71.529  1.00  0.00    -0.181 N  
HETATM   42  H   UNL     1      -9.734   8.031  72.389  1.00  0.00     0.000 HD 
BRANCH  41  43
HETATM   43  C   UNL     1     -11.031   6.644  71.601  1.00  0.00    -0.241 C  
HETATM   44  H2  UNL     1     -10.585   6.357  73.632  1.00  0.00     0.000 HD 
HETATM   45  N   UNL     1     -11.168   6.098  72.836  1.00  0.00    -0.389 N  
HETATM   46  H1  UNL     1     -11.912   5.403  72.890  1.00  0.00     0.000 HD 
HETATM   47  O   UNL     1     -11.766   6.308  70.680  1.00  0.00    -0.343 OA 
ENDBRANCH  41  43
ENDBRANCH  18  41
BRANCH  28  48
HETATM   48  C   UNL     1     -10.645  11.716  68.545  1.00  0.00    -0.215 C  
HETATM   49  O   UNL     1     -11.073  11.628  67.178  1.00  0.00    -0.265 OA 
HETATM   50  H   UNL     1     -10.339  11.712  66.581  1.00  0.00     0.000 HD 
ENDBRANCH  28  48
BRANCH  40  51
HETATM   51  CB  UNL     1     -11.018  16.380  69.905  1.00  0.00    -0.338 C  
HETATM   52  O   UNL     1     -11.581  16.704  71.177  1.00  0.00    -0.592 OA 
HETATM   53  H   UNL     1     -11.848  17.613  71.246  1.00  0.00     0.000 HD 
ENDBRANCH  40  51
BRANCH  31  54
HETATM   54  N   UNL     1      -6.860  15.894  66.932  1.00  0.00    -0.086 N  
HETATM   55  H   UNL     1      -5.870  16.040  67.130  1.00  0.00     0.000 HD 
HETATM   56  O   UNL     1      -8.748  16.715  65.953  1.00  0.00    -0.483 OA 
HETATM   57  C   UNL     1      -7.562  16.861  66.240  1.00  0.00    -0.277 C  
BRANCH  57  58
HETATM   58  C   UNL     1      -6.733  18.085  65.864  1.00  0.00    -0.323 C  
BRANCH  58  59
HETATM   59  C   UNL     1      -7.213  19.397  66.519  1.00  0.00    -0.229 C  
HETATM   60  H1  UNL     1      -8.751  20.750  66.291  1.00  0.00     0.000 HD 
HETATM   61  N   UNL     1      -8.434  19.882  65.858  1.00  0.00    -0.481 NA 
HETATM   62  H2  UNL     1      -9.168  19.172  65.846  1.00  0.00     0.000 HD 
BRANCH  59  63
HETATM   63  C   UNL     1      -7.540  19.242  68.023  1.00  0.00    -0.319 C  
BRANCH  63  64
HETATM   64  C   UNL     1      -6.504  19.892  68.947  1.00  0.00    -0.347 C  
BRANCH  64  65
HETATM   65  C   UNL     1      -5.357  18.936  69.281  1.00  0.00    -0.200 C  
HETATM   66  N   UNL     1      -5.890  17.598  69.511  1.00  0.00    -0.226 NA 
HETATM   67  H2  UNL     1      -6.452  17.266  68.726  1.00  0.00     0.000 HD 
HETATM   68  H1  UNL     1      -5.126  16.960  69.733  1.00  0.00     0.000 HD 
ENDBRANCH  64  65
ENDBRANCH  63  64
ENDBRANCH  59  63
ENDBRANCH  58  59
ENDBRANCH  57  58
ENDBRANCH  31  54
ENDBRANCH   1  14
TORSDOF 11
ENDMDL
MODEL        2
REMARK 921   NORMALIZED FREE ENERGY PREDICTED BY IDOCK:   -6.33 KCAL/MOL
REMARK 922        TOTAL FREE ENERGY PREDICTED BY IDOCK:  -12.36 KCAL/MOL
REMARK 923 INTER-LIGAND FREE ENERGY PREDICTED BY IDOCK:   -9.76 KCAL/MOL
REMARK 924 INTRA-LIGAND FREE ENERGY PREDICTED BY IDOCK:   -2.60 KCAL/MOL
REMARK 927      BINDING AFFINITY PREDICTED BY RF-SCORE:    0.00 PKD
ROOT
HETATM    1  C   UNL     1     -10.668  13.362  65.543  1.00  0.00    -0.294 C  
HETATM    2  C   UNL     1     -11.699  12.266  65.142  1.00  0.00    -0.414 C  
HETATM    3  H1  UNL     1     -11.418  16.702  64.199  1.00  0.00     0.000 HD 
HETATM    4  H   UNL     1      -9.627  14.489  63.991  1.00  0.00     0.000 HD 
HETATM    5  C   UNL     1     -12.937  12.898  64.509  1.00  0.00    -0.085 C  
HETATM    6  H2  UNL     1     -12.994  16.200  63.616  1.00  0.00     0.000 HD 
HETATM    7  N   UNL     1     -12.510  13.742  63.428  1.00  0.00    -1.072 NA 
HETATM    8  O   UNL     1     -13.804  11.910  64.001  1.00  0.00    -0.002 OA 
HETATM    9  N   UNL     1     -10.540  14.247  64.376  1.00  0.00    -0.193 NA 
HETATM   10  N   UNL     1     -12.042  15.956  63.891  1.00  0.00    -0.750 NA 
HETATM   11  H   UNL     1     -12.800  13.610  62.458  1.00  0.00     0.000 HD 
HETATM   12  C   UNL     1     -11.684  14.729  63.834  1.00  0.00     0.208 C  
HETATM   13  H   UNL     1     -14.574  12.303  63.608  1.00  0.00     0.000 HD 
ENDROOT
BRANCH   1  14
HETATM   14  C   UNL     1     -11.017  14.149  66.852  1.00  0.00    -0.300 C  
HETATM   15  N   UNL     1      -6.534  15.597  67.914  1.00  0.00    -0.135 N  
HETATM   16  O   UNL     1      -8.534  15.701  65.888  1.00  0.00    -0.024 OA 
HETATM   17  C   UNL     1      -8.856  15.592  67.064  1.00  0.00    -0.225 C  
HETATM   18  C   UNL     1      -8.212  17.081  68.886  1.00  0.00    -0.204 C  
HETATM   19  N   UNL     1      -7.914  10.089  69.467  1.00  0.00    -0.142 N  
HETATM   20  H   UNL     1      -9.983  14.879  68.580  1.00  0.00     0.000 HD 
HETATM   21  N   UNL     1      -9.921  14.895  67.561  1.00  0.00    -0.219 N  
HETATM   22  H   UNL     1      -6.005  15.793  67.064  1.00  0.00     0.000 HD 
HETATM   23  C   UNL     1      -7.846  16.088  68.068  1.00  0.00    -0.137 C  
HETATM   24  C   UNL     1      -5.965  14.833  68.945  1.00  0.00    -0.085 C  
HETATM   25  O   UNL     1     -12.131  13.696  68.970  1.00  0.00    -0.344 OA 
HETATM   26  O   UNL     1      -5.696  15.285  70.056  1.00  0.00    -0.119 OA 
HETATM   27  N   UNL     1     -11.165  11.893  67.963  1.00  0.00    -0.237 N  
HETATM   28  CA  UNL     1      -5.849  13.309  68.605  1.00  0.00    -0.083 C  
HETATM   29  N   UNL     1      -5.489  12.408  69.723  1.00  0.00    -0.083 N  
HETATM   30  C   UNL     1     -11.345  10.961  69.080  1.00  0.00    -0.283 C  
HETATM   31  CA  UNL     1     -10.338   9.782  68.964  1.00  0.00    -0.208 C  
HETATM   32  H   UNL     1     -10.723  11.542  67.113  1.00  0.00     0.000 HD 
HETATM   33  H   UNL     1      -5.162  12.760  70.622  1.00  0.00     0.000 HD 
HETATM   34  O   UNL     1      -9.360   9.781  71.193  1.00  0.00    -0.057 OA 
HETATM   35  C   UNL     1      -5.624  11.036  69.462  1.00  0.00    -0.044 C  
HETATM   36  C   UNL     1      -9.185   9.920  69.982  1.00  0.00    -0.183 C  
HETATM   37  H   UNL     1      -7.802  10.080  68.453  1.00  0.00     0.000 HD 
HETATM   38  C   UNL     1     -11.559  13.216  67.991  1.00  0.00    -0.334 C  
HETATM   39  O   UNL     1      -5.163  10.548  68.427  1.00  0.00    -0.035 OA 
HETATM   40  CA  UNL     1      -6.695  10.285  70.305  1.00  0.00    -0.142 C  
BRANCH  18  41
HETATM   41  N   UNL     1      -7.320  17.792  69.651  1.00  0.00     0.251 N  
HETATM   42  H   UNL     1      -7.295  17.618  70.656  1.00  0.00     0.000 HD 
BRANCH  41  43
HETATM   43  C   UNL     1      -6.467  18.718  69.130  1.00  0.00    -0.276 C  
HETATM   44  H2  UNL     1      -7.854  20.224  69.592  1.00  0.00     0.000 HD 
HETATM   45  N   UNL     1      -6.946  19.987  69.193  1.00  0.00    -0.267 N  
HETATM   46  H1  UNL     1      -6.307  20.680  68.803  1.00  0.00     0.000 HD 
HETATM   47  O   UNL     1      -5.362  18.487  68.652  1.00  0.00    -0.181 OA 
ENDBRANCH  41  43
ENDBRANCH  18  41
BRANCH  28  48
HETATM   48  C   UNL     1      -7.251  12.882  68.130  1.00  0.00    -0.114 C  
HETATM   49  O   UNL     1      -7.229  12.455  66.759  1.00  0.00    -0.374 OA 
HETATM   50  H   UNL     1      -8.093  12.191  66.466  1.00  0.00     0.000 HD 
ENDBRANCH  28  48
BRANCH  40  51
HETATM   51  CB  UNL     1      -6.133   8.931  70.752  1.00  0.00    -0.040 C  
HETATM   52  O   UNL     1      -6.846   8.364  71.852  1.00  0.00    -0.075 OA 
HETATM   53  H   UNL     1      -6.498   7.524  72.129  1.00  0.00     0.000 HD 
ENDBRANCH  40  51
BRANCH  31  54
HETATM   54  N   UNL     1     -10.989   8.479  69.146  1.00  0.00    -0.430 N  
HETATM   55  H   UNL     1     -11.913   8.437  69.575  1.00  0.00     0.000 HD 
HETATM   56  O   UNL     1      -9.273   7.313  68.201  1.00  0.00    -0.134 OA 
HETATM   57  C   UNL     1     -10.374   7.309  68.749  1.00  0.00    -0.200 C  
BRANCH  57  58
HETATM   58  C   UNL     1     -11.186   6.049  69.032  1.00  0.00    -0.298 C  
BRANCH  58  59
HETATM   59  C   UNL     1     -10.528   5.090  70.048  1.00  0.00    -0.156 C  
HETATM   60  H1  UNL     1      -8.738   4.095  70.277  1.00  0.00     0.000 HD 
HETATM   61  N   UNL     1      -9.173   4.729  69.606  1.00  0.00    -0.113 NA 
HETATM   62  H2  UNL     1      -8.597   5.552  69.432  1.00  0.00     0.000 HD 
BRANCH  59  63
HETATM   63  C   UNL     1     -10.398   5.701  71.464  1.00  0.00    -0.279 C  
BRANCH  63  64
HETATM   64  C   UNL     1     -11.740   6.102  72.085  1.00  0.00    -0.361 C  
BRANCH  64  65
HETATM   65  C   UNL     1     -11.640   7.418  72.859  1.00  0.00    -0.152 C  
HETATM   66  N   UNL     1     -12.026   8.525  71.990  1.00  0.00    -0.335 NA 
HETATM   67  H2  UNL     1     -12.949   8.389  71.579  1.00  0.00     0.000 HD 
HETATM   68  H1  UNL     1     -11.960   9.402  72.506  1.00  0.00     0.000 HD 
ENDBRANCH  64  65
ENDBRANCH  63  64
ENDBRANCH  59  63
ENDBRANCH  58  59
ENDBRANCH  57  58
ENDBRANCH  31  54
ENDBRANCH   1  14
TORSDOF 11
ENDMDL
MODEL        3
REMARK 921   NORMALIZED FREE ENERGY PREDICTED BY IDOCK:   -6.04 KCAL/MOL
REMARK 922        TOTAL FREE ENERGY PREDICTED BY IDOCK:  -11.88 KCAL/MOL
REMARK 923 INTER-LIGAND FREE ENERGY PREDICTED BY IDOCK:  -10.67 KCAL/MOL
REMARK 924 INTRA-LIGAND FREE ENERGY PREDICTED BY IDOCK:   -1.21 KCAL/MOL
REMARK 927      BINDING AFFINITY PREDICTED BY RF-SCORE:    0.00 PKD
ROOT
HETATM    1  C   UNL     1      -9.295   7.424  66.948  1.00  0.00    -0.157 C  
HETATM    2  C   UNL     1      -9.605   8.335  65.723  1.00  0.00     0.049 C  
HETATM    3  H1  UNL     1      -6.630   4.960  66.354  1.00  0.00     0.000 HD 
HETATM    4  H   UNL     1      -9.441   5.255  66.747  1.00  0.00     0.000 HD 
HETATM    5  C   UNL     1      -8.534   8.175  64.647  1.00  0.00    -0.024 C  
HETATM    6  H2  UNL     1      -6.205   5.674  64.810  1.00  0.00     0.000 HD 
HETATM    7  N   UNL     1      -8.411   6.778  64.337  1.00  0.00    -0.339 NA 
HETATM    8  O   UNL     1      -8.887   8.873  63.476  1.00  0.00    -0.429 OA 
HETATM    9  N   UNL     1      -8.982   6.097  66.397  1.00  0.00    -0.146 NA 
HETATM   10  N   UNL     1      -6.896   5.519  65.544  1.00  0.00    -0.061 NA 
HETATM   11  H   UNL     1      -8.573   6.388  63.407  1.00  0.00     0.000 HD 
HETATM   12  C   UNL     1      -8.058   6.036  65.408  1.00  0.00    -0.132 C  
HETATM   13  H   UNL     1      -8.220   8.774  62.806  1.00  0.00     0.000 HD 
ENDROOT
BRANCH   1  14
HETATM   14  C   UNL     1      -8.168   7.955  67.897  1.00  0.00    -0.129 C  
HETATM   15  N   UNL     1      -9.864   6.047  71.995  1.00  0.00    -0.156 N  
HETATM   16  O   UNL     1      -8.994   5.375  69.368  1.00  0.00    -0.103 OA 
HETATM   17  C   UNL     1      -8.545   6.366  69.928  1.00  0.00    -0.138 C  
HETATM   18  C   UNL     1      -7.454   6.425  72.110  1.00  0.00    -0.093 C  
HETATM   19  N   UNL     1     -12.375  11.074  70.245  1.00  0.00    -0.325 N  
HETATM   20  H   UNL     1      -7.891   8.275  69.996  1.00  0.00     0.000 HD 
HETATM   21  N   UNL     1      -8.190   7.549  69.344  1.00  0.00    -0.128 N  
HETATM   22  H   UNL     1     -10.304   5.143  71.820  1.00  0.00     0.000 HD 
HETATM   23  C   UNL     1      -8.607   6.350  71.435  1.00  0.00    -0.130 C  
HETATM   24  C   UNL     1     -10.503   7.006  72.797  1.00  0.00    -0.238 C  
HETATM   25  O   UNL     1      -7.181  10.106  68.477  1.00  0.00    -0.077 OA 
HETATM   26  O   UNL     1     -10.074   7.375  73.888  1.00  0.00    -0.313 OA 
HETATM   27  N   UNL     1      -9.349  10.177  67.771  1.00  0.00    -0.141 N  
HETATM   28  CA  UNL     1     -11.733   7.683  72.104  1.00  0.00    -0.311 C  
HETATM   29  N   UNL     1     -12.307   8.866  72.783  1.00  0.00    -0.229 N  
HETATM   30  C   UNL     1      -9.584  11.587  68.094  1.00  0.00    -0.187 C  
HETATM   31  CA  UNL     1     -11.107  11.858  68.244  1.00  0.00    -0.239 C  
HETATM   32  H   UNL     1     -10.112   9.648  67.349  1.00  0.00     0.000 HD 
HETATM   33  H   UNL     1     -12.041   9.132  73.730  1.00  0.00     0.000 HD 
HETATM   34  O   UNL     1     -11.171  12.996  70.394  1.00  0.00     0.326 OA 
HETATM   35  C   UNL     1     -13.242   9.599  72.036  1.00  0.00    -0.453 C  
HETATM   36  C   UNL     1     -11.511  12.019  69.726  1.00  0.00    -0.210 C  
HETATM   37  H   UNL     1     -12.724  10.348  69.618  1.00  0.00     0.000 HD 
HETATM   38  C   UNL     1      -8.156   9.521  68.003  1.00  0.00    -0.102 C  
HETATM   39  O   UNL     1     -14.163   9.023  71.451  1.00  0.00    -0.299 OA 
HETATM   40  CA  UNL     1     -12.830  11.052  71.666  1.00  0.00    -0.435 C  
BRANCH  18  41
HETATM   41  N   UNL     1      -7.351   6.158  73.453  1.00  0.00    -0.088 N  
HETATM   42  H   UNL     1      -7.733   6.834  74.115  1.00  0.00     0.000 HD 
BRANCH  41  43
HETATM   43  C   UNL     1      -6.761   5.030  73.943  1.00  0.00    -0.070 C  
HETATM   44  H2  UNL     1      -8.430   3.917  73.328  1.00  0.00     0.000 HD 
HETATM   45  N   UNL     1      -7.514   3.913  73.776  1.00  0.00    -0.069 N  
HETATM   46  H1  UNL     1      -7.073   3.070  74.142  1.00  0.00     0.000 HD 
HETATM   47  O   UNL     1      -5.659   4.971  74.477  1.00  0.00    -0.024 OA 
ENDBRANCH  41  43
ENDBRANCH  18  41
BRANCH  28  48
HETATM   48  C   UNL     1     -11.223   8.166  70.732  1.00  0.00    -0.261 C  
HETATM   49  O   UNL     1     -10.240   9.202  70.878  1.00  0.00    -0.235 OA 
HETATM   50  H   UNL     1      -9.925   9.500  70.032  1.00  0.00     0.000 HD 
ENDBRANCH  28  48
BRANCH  40  51
HETATM   51  CB  UNL     1     -14.031  11.986  71.856  1.00  0.00     0.633 C  
HETATM   52  O   UNL     1     -13.670  13.262  72.387  1.00  0.00    -0.577 OA 
HETATM   53  H   UNL     1     -14.415  13.841  72.504  1.00  0.00     0.000 HD 
ENDBRANCH  40  51
BRANCH  31  54
HETATM   54  N   UNL     1     -11.535  13.046  67.496  1.00  0.00    -0.308 N  
HETATM   55  H   UNL     1     -11.680  13.925  67.994  1.00  0.00     0.000 HD 
HETATM   56  O   UNL     1     -11.551  11.970  65.487  1.00  0.00    -0.350 OA 
HETATM   57  C   UNL     1     -11.742  12.999  66.132  1.00  0.00    -0.394 C  
BRANCH  57  58
HETATM   58  C   UNL     1     -12.202  14.320  65.524  1.00  0.00    -0.408 C  
BRANCH  58  59
HETATM   59  C   UNL     1     -11.121  15.042  64.693  1.00  0.00    -0.321 C  
HETATM   60  H1  UNL     1     -11.013  16.584  63.330  1.00  0.00     0.000 HD 
HETATM   61  N   UNL     1     -11.728  16.107  63.879  1.00  0.00    -1.452 NA 
HETATM   62  H2  UNL     1     -12.269  16.759  64.448  1.00  0.00     0.000 HD 
BRANCH  59  63
HETATM   63  C   UNL     1     -10.025  15.702  65.563  1.00  0.00    -0.364 C  
BRANCH  63  64
HETATM   64  C   UNL     1     -10.560  16.780  66.511  1.00  0.00    -0.198 C  
BRANCH  64  65
HETATM   65  C   UNL     1      -9.541  17.897  66.741  1.00  0.00    -0.305 C  
HETATM   66  N   UNL     1      -8.296  17.568  66.055  1.00  0.00    -0.531 NA 
HETATM   67  H2  UNL     1      -8.441  17.376  65.064  1.00  0.00     0.000 HD 
HETATM   68  H1  UNL     1      -7.617  18.313  66.208  1.00  0.00     0.000 HD 
ENDBRANCH  64  65
ENDBRANCH  63  64
ENDBRANCH  59  63
ENDBRANCH  58  59
ENDBRANCH  57  58
ENDBRANCH  31  54
ENDBRANCH   1  14
TORSDOF 11
ENDMDL
MODEL        4
REMARK 921   NORMALIZED FREE ENERGY PREDICTED BY IDOCK:   -5.87 KCAL/MOL
REMARK 922        TOTAL FREE ENERGY PREDICTED BY IDOCK:  -11.60 KCAL/MOL
REMARK 923 INTER-LIGAND FREE ENERGY PREDICTED BY IDOCK:   -9.85 KCAL/MOL
REMARK 924 INTRA-LIGAND FREE ENERGY PREDICTED BY IDOCK:   -1.75 KCAL/MOL
REMARK 927      BINDING AFFINITY PREDICTED BY RF-SCORE:    0.00 PKD
ROOT
HETATM    1  C   UNL     1      -8.099   7.780  70.840  1.00  0.00    -0.102 C  
HETATM    2  C   UNL     1      -8.381   8.687  72.075  1.00  0.00    -0.169 C  
HETATM    3  H1  UNL     1      -7.010   4.371  71.691  1.00  0.00     0.000 HD 
HETATM    4  H   UNL     1      -6.135   6.858  70.598  1.00  0.00     0.000 HD 
HETATM    5  C   UNL     1      -8.404   7.858  73.357  1.00  0.00    -0.203 C  
HETATM    6  H2  UNL     1      -7.355   4.602  73.395  1.00  0.00     0.000 HD 
HETATM    7  N   UNL     1      -7.181   7.108  73.433  1.00  0.00    -0.072 NA 
HETATM    8  O   UNL     1      -8.501   8.688  74.492  1.00  0.00    -0.329 OA 
HETATM    9  N   UNL     1      -6.951   6.938  71.207  1.00  0.00    -0.061 NA 
HETATM   10  N   UNL     1      -7.132   5.002  72.483  1.00  0.00    -0.079 NA 
HETATM   11  H   UNL     1      -6.510   7.196  74.195  1.00  0.00     0.000 HD 
HETATM   12  C   UNL     1      -7.019   6.273  72.385  1.00  0.00    -0.078 C  
HETATM   13  H   UNL     1      -8.516   8.172  75.289  1.00  0.00     0.000 HD 
ENDROOT
BRANCH   1  14
HETATM   14  C   UNL     1      -9.323   6.934  70.350  1.00  0.00    -0.159 C  
HETATM   15  N   UNL     1      -7.511   5.654  66.062  1.00  0.00    -0.081 N  
HETATM   16  O   UNL     1      -7.017   5.528  68.864  1.00  0.00    -0.056 OA 
HETATM   17  C   UNL     1      -8.166   5.583  68.445  1.00  0.00    -0.099 C  
HETATM   18  C   UNL     1      -9.194   4.063  66.836  1.00  0.00    -0.167 C  
HETATM   19  N   UNL     1      -9.869  11.038  66.374  1.00  0.00    -0.205 N  
HETATM   20  H   UNL     1     -10.090   6.193  68.493  1.00  0.00     0.000 HD 
HETATM   21  N   UNL     1      -9.225   6.214  69.034  1.00  0.00    -0.126 N  
HETATM   22  H   UNL     1      -6.502   5.510  66.121  1.00  0.00     0.000 HD 
HETATM   23  C   UNL     1      -8.370   5.099  67.031  1.00  0.00    -0.107 C  
HETATM   24  C   UNL     1      -8.060   6.407  65.012  1.00  0.00    -0.135 C  
HETATM   25  O   UNL     1     -11.716   7.264  70.033  1.00  0.00    -0.127 OA 
HETATM   26  O   UNL     1      -8.783   5.931  64.139  1.00  0.00     0.068 OA 
HETATM   27  N   UNL     1     -10.434   9.142  69.863  1.00  0.00    -0.214 N  
HETATM   28  CA  UNL     1      -7.798   7.945  65.141  1.00  0.00    -0.114 C  
HETATM   29  N   UNL     1      -8.546   8.824  64.213  1.00  0.00    -0.360 N  
HETATM   30  C   UNL     1     -11.496  10.026  69.376  1.00  0.00    -0.083 C  
HETATM   31  CA  UNL     1     -10.882  11.253  68.644  1.00  0.00    -0.204 C  
HETATM   32  H   UNL     1      -9.505   9.540  70.003  1.00  0.00     0.000 HD 
HETATM   33  H   UNL     1      -9.069   8.457  63.419  1.00  0.00     0.000 HD 
HETATM   34  O   UNL     1     -12.127  11.223  66.554  1.00  0.00     0.123 OA 
HETATM   35  C   UNL     1      -8.486  10.196  64.499  1.00  0.00    -0.177 C  
HETATM   36  C   UNL     1     -11.033  11.133  67.112  1.00  0.00    -0.291 C  
HETATM   37  H   UNL     1      -8.980  11.087  66.873  1.00  0.00     0.000 HD 
HETATM   38  C   UNL     1     -10.614   7.803  70.144  1.00  0.00    -0.237 C  
HETATM   39  O   UNL     1      -7.403  10.739  64.733  1.00  0.00     0.077 OA 
HETATM   40  CA  UNL     1      -9.832  10.869  64.893  1.00  0.00    -0.284 C  
BRANCH  18  41
HETATM   41  N   UNL     1      -9.261   3.368  65.654  1.00  0.00    -0.151 N  
HETATM   42  H   UNL     1      -8.506   2.722  65.425  1.00  0.00     0.000 HD 
BRANCH  41  43
HETATM   43  C   UNL     1     -10.293   3.501  64.772  1.00  0.00     0.007 C  
HETATM   44  H2  UNL     1     -11.137   4.968  66.014  1.00  0.00     0.000 HD 
HETATM   45  N   UNL     1     -11.211   4.426  65.153  1.00  0.00    -0.935 N  
HETATM   46  H1  UNL     1     -11.982   4.525  64.493  1.00  0.00     0.000 HD 
HETATM   47  O   UNL     1     -10.421   2.884  63.720  1.00  0.00    -0.190 OA 
ENDBRANCH  41  43
ENDBRANCH  18  41
BRANCH  28  48
HETATM   48  C   UNL     1      -8.247   8.325  66.566  1.00  0.00    -0.106 C  
HETATM   49  O   UNL     1      -7.135   8.751  67.366  1.00  0.00    -0.077 OA 
HETATM   50  H   UNL     1      -7.411   8.985  68.244  1.00  0.00     0.000 HD 
ENDBRANCH  28  48
BRANCH  40  51
HETATM   51  CB  UNL     1      -9.943  12.231  64.198  1.00  0.00    -0.234 C  
HETATM   52  O   UNL     1      -9.501  13.315  65.017  1.00  0.00    -0.410 OA 
HETATM   53  H   UNL     1      -9.569  14.160  64.586  1.00  0.00     0.000 HD 
ENDBRANCH  40  51
BRANCH  31  54
HETATM   54  N   UNL     1     -11.477  12.519  69.090  1.00  0.00    -0.288 N  
HETATM   55  H   UNL     1     -12.257  12.500  69.747  1.00  0.00     0.000 HD 
HETATM   56  O   UNL     1     -10.044  13.804  67.869  1.00  0.00    -0.235 OA 
HETATM   57  C   UNL     1     -11.001  13.733  68.638  1.00  0.00    -0.266 C  
BRANCH  57  58
HETATM   58  C   UNL     1     -11.750  14.942  69.189  1.00  0.00    -0.338 C  
BRANCH  58  59
HETATM   59  C   UNL     1     -11.033  15.650  70.358  1.00  0.00    -0.348 C  
HETATM   60  H1  UNL     1     -10.264  17.515  70.779  1.00  0.00     0.000 HD 
HETATM   61  N   UNL     1     -10.739  17.047  70.006  1.00  0.00    -0.236 NA 
HETATM   62  H2  UNL     1     -11.577  17.550  69.713  1.00  0.00     0.000 HD 
BRANCH  59  63
HETATM   63  C   UNL     1     -11.869  15.674  71.659  1.00  0.00    -0.504 C  
BRANCH  63  64
HETATM   64  C   UNL     1     -13.304  15.168  71.477  1.00  0.00    -0.533 C  
BRANCH  64  65
HETATM   65  C   UNL     1     -13.592  13.941  72.342  1.00  0.00    -0.575 C  
HETATM   66  N   UNL     1     -13.054  12.750  71.694  1.00  0.00    -0.381 NA 
HETATM   67  H2  UNL     1     -12.061  12.844  71.477  1.00  0.00     0.000 HD 
HETATM   68  H1  UNL     1     -13.245  11.932  72.271  1.00  0.00     0.000 HD 
ENDBRANCH  64  65
ENDBRANCH  63  64
ENDBRANCH  59  63
ENDBRANCH  58  59
ENDBRANCH  57  58
ENDBRANCH  31  54
ENDBRANCH   1  14
TORSDOF 11
ENDMDL
MODEL        5
REMARK 921   NORMALIZED FREE ENERGY PREDICTED BY IDOCK:   -5.82 KCAL/MOL
REMARK 922        TOTAL FREE ENERGY PREDICTED BY IDOCK:  -11.52 KCAL/MOL
REMARK 923 INTER-LIGAND FREE ENERGY PREDICTED BY IDOCK:   -9.56 KCAL/MOL
REMARK 924 INTRA-LIGAND FREE ENERGY PREDICTED BY IDOCK:   -1.96 KCAL/MOL
REMARK 927      BINDING AFFINITY PREDICTED BY RF-SCORE:    0.00 PKD
ROOT
HETATM    1  C   UNL     1     -11.806  10.344  70.025  1.00  0.00    -0.273 C  
HETATM    2  C   UNL     1     -12.005   8.958  70.708  1.00  0.00    -0.184 C  
HETATM    3  H1  UNL     1     -12.776  13.208  72.119  1.00  0.00     0.000 HD 
HETATM    4  H   UNL     1     -13.505  11.698  69.809  1.00  0.00     0.000 HD 
HETATM    5  C   UNL     1     -12.297   9.128  72.197  1.00  0.00    -0.354 C  
HETATM    6  H2  UNL     1     -12.994  12.198  73.536  1.00  0.00     0.000 HD 
HETATM    7  N   UNL     1     -13.408  10.029  72.338  1.00  0.00    -0.595 NA 
HETATM    8  O   UNL     1     -12.633   7.894  72.789  1.00  0.00    -0.567 OA 
HETATM    9  N   UNL     1     -12.927  11.183  70.474  1.00  0.00    -0.115 NA 
HETATM   10  N   UNL     1     -12.963  12.289  72.521  1.00  0.00     0.021 NA 
HETATM   11  H   UNL     1     -14.286   9.777  72.792  1.00  0.00     0.000 HD 
HETATM   12  C   UNL     1     -13.161  11.245  71.807  1.00  0.00    -0.422 C  
HETATM   13  H   UNL     1     -12.815   8.001  73.715  1.00  0.00     0.000 HD 
ENDROOT
BRANCH   1  14
HETATM   14  C   UNL     1     -10.416  11.016  70.289  1.00  0.00     0.725 C  
HETATM   15  N   UNL     1     -10.957  14.751  67.277  1.00  0.00    -0.309 N  
HETATM   16  O   UNL     1     -12.118  13.477  69.545  1.00  0.00    -0.316 OA 
HETATM   17  C   UNL     1     -10.913  13.394  69.344  1.00  0.00    -0.026 C  
HETATM   18  C   UNL     1      -9.362  15.256  69.056  1.00  0.00    -0.231 C  
HETATM   19  N   UNL     1      -9.333   9.656  64.819  1.00  0.00    -0.355 N  
HETATM   20  H   UNL     1      -9.137  12.434  69.319  1.00  0.00     0.000 HD 
HETATM   21  N   UNL     1     -10.107  12.326  69.618  1.00  0.00     0.905 N  
HETATM   22  H   UNL     1     -11.928  15.066  67.259  1.00  0.00     0.000 HD 
HETATM   23  C   UNL     1     -10.313  14.494  68.504  1.00  0.00    -0.242 C  
HETATM   24  C   UNL     1     -10.246  14.570  66.081  1.00  0.00    -0.305 C  
HETATM   25  O   UNL     1      -8.069  10.372  70.198  1.00  0.00    -0.028 OA 
HETATM   26  O   UNL     1      -9.282  15.258  65.752  1.00  0.00    -0.289 OA 
HETATM   27  N   UNL     1      -9.459   9.221  68.804  1.00  0.00    -0.148 N  
HETATM   28  CA  UNL     1     -10.693  13.305  65.273  1.00  0.00    -0.311 C  
HETATM   29  N   UNL     1      -9.834  12.911  64.133  1.00  0.00    -0.585 N  
HETATM   30  C   UNL     1      -8.408   8.517  68.064  1.00  0.00    -0.127 C  
HETATM   31  CA  UNL     1      -8.947   8.044  66.684  1.00  0.00    -0.150 C  
HETATM   32  H   UNL     1     -10.430   9.032  68.554  1.00  0.00     0.000 HD 
HETATM   33  H   UNL     1      -9.094  13.514  63.776  1.00  0.00     0.000 HD 
HETATM   34  O   UNL     1      -7.224   8.897  65.192  1.00  0.00    -0.085 OA 
HETATM   35  C   UNL     1     -10.108  11.653  63.575  1.00  0.00    -0.425 C  
HETATM   36  C   UNL     1      -8.406   8.922  65.534  1.00  0.00    -0.136 C  
HETATM   37  H   UNL     1     -10.319   9.553  65.064  1.00  0.00     0.000 HD 
HETATM   38  C   UNL     1      -9.214  10.124  69.820  1.00  0.00    -0.144 C  
HETATM   39  O   UNL     1     -11.266  11.332  63.297  1.00  0.00    -0.238 OA 
HETATM   40  CA  UNL     1      -8.981  10.589  63.710  1.00  0.00    -0.215 C  
BRANCH  18  41
HETATM   41  N   UNL     1      -8.929  16.436  68.504  1.00  0.00    -0.214 N  
HETATM   42  H   UNL     1      -9.624  17.082  68.129  1.00  0.00     0.000 HD 
BRANCH  41  43
HETATM   43  C   UNL     1      -7.613  16.785  68.434  1.00  0.00    -0.205 C  
HETATM   44  H2  UNL     1      -7.114  14.762  68.180  1.00  0.00     0.000 HD 
HETATM   45  N   UNL     1      -6.785  15.724  68.255  1.00  0.00    -0.114 N  
HETATM   46  H1  UNL     1      -5.800  15.985  68.202  1.00  0.00     0.000 HD 
HETATM   47  O   UNL     1      -7.168  17.925  68.504  1.00  0.00    -0.241 OA 
ENDBRANCH  41  43
ENDBRANCH  18  41
BRANCH  28  48
HETATM   48  C   UNL     1     -10.656  12.136  66.276  1.00  0.00    -0.250 C  
HETATM   49  O   UNL     1     -11.957  11.878  66.823  1.00  0.00    -0.613 OA 
HETATM   50  H   UNL     1     -11.935  11.157  67.441  1.00  0.00     0.000 HD 
ENDBRANCH  28  48
BRANCH  40  51
HETATM   51  CB  UNL     1      -8.846   9.821  62.390  1.00  0.00    -0.249 C  
HETATM   52  O   UNL     1      -8.788   8.405  62.569  1.00  0.00    -0.432 OA 
HETATM   53  H   UNL     1      -8.704   7.930  61.750  1.00  0.00     0.000 HD 
ENDBRANCH  40  51
BRANCH  31  54
HETATM   54  N   UNL     1      -8.618   6.639  66.413  1.00  0.00    -0.124 N  
HETATM   55  H   UNL     1      -7.665   6.391  66.147  1.00  0.00     0.000 HD 
HETATM   56  O   UNL     1     -10.727   5.896  66.858  1.00  0.00    -0.284 OA 
HETATM   57  C   UNL     1      -9.573   5.648  66.512  1.00  0.00    -0.155 C  
BRANCH  57  58
HETATM   58  C   UNL     1      -9.061   4.251  66.176  1.00  0.00    -0.133 C  
BRANCH  58  59
HETATM   59  C   UNL     1      -9.419   3.773  64.753  1.00  0.00    -0.166 C  
HETATM   60  H1  UNL     1     -11.071   3.731  63.522  1.00  0.00     0.000 HD 
HETATM   61  N   UNL     1     -10.834   4.048  64.462  1.00  0.00    -0.636 NA 
HETATM   62  H2  UNL     1     -11.067   5.031  64.603  1.00  0.00     0.000 HD 
BRANCH  59  63
HETATM   63  C   UNL     1      -8.584   4.466  63.651  1.00  0.00    -0.122 C  
BRANCH  63  64
HETATM   64  C   UNL     1      -7.075   4.441  63.916  1.00  0.00    -0.046 C  
BRANCH  64  65
HETATM   65  C   UNL     1      -6.463   5.842  63.870  1.00  0.00    -0.029 C  
HETATM   66  N   UNL     1      -5.839   6.143  65.154  1.00  0.00    -0.024 NA 
HETATM   67  H2  UNL     1      -5.159   5.434  65.428  1.00  0.00     0.000 HD 
HETATM   68  H1  UNL     1      -5.431   7.077  65.124  1.00  0.00     0.000 HD 
ENDBRANCH  64  65
ENDBRANCH  63  64
ENDBRANCH  59  63
ENDBRANCH  58  59
ENDBRANCH  57  58
ENDBRANCH  31  54
ENDBRANCH   1  14
TORSDOF 11
ENDMDL
MODEL        6
REMARK 921   NORMALIZED FREE ENERGY PREDICTED BY IDOCK:   -5.79 KCAL/MOL
REMARK 922        TOTAL FREE ENERGY PREDICTED BY IDOCK:  -11.47 KCAL/MOL
REMARK 923 INTER-LIGAND FREE ENERGY PREDICTED BY IDOCK:  -11.60 KCAL/MOL
REMARK 924 INTRA-LIGAND FREE ENERGY PREDICTED BY IDOCK:    0.13 KCAL/MOL
REMARK 927      BINDING AFFINITY PREDICTED BY RF-SCORE:    0.00 PKD
ROOT
HETATM    1  C   UNL     1     -10.116  10.394  65.205  1.00  0.00    -0.308 C  
HETATM    2  C   UNL     1     -10.590  11.878  65.170  1.00  0.00    -0.333 C  
HETATM    3  H1  UNL     1      -7.553   9.572  62.697  1.00  0.00     0.000 HD 
HETATM    4  H   UNL     1     -10.286   9.161  63.411  1.00  0.00     0.000 HD 
HETATM    5  C   UNL     1      -9.674  12.715  64.281  1.00  0.00     0.097 C  
HETATM    6  H2  UNL     1      -7.342  11.254  62.248  1.00  0.00     0.000 HD 
HETATM    7  N   UNL     1      -9.593  12.082  62.993  1.00  0.00    -0.597 NA 
HETATM    8  O   UNL     1     -10.183  14.018  64.117  1.00  0.00    -0.619 OA 
HETATM    9  N   UNL     1      -9.879  10.010  63.805  1.00  0.00    -0.028 NA 
HETATM   10  N   UNL     1      -7.927  10.519  62.646  1.00  0.00    -0.157 NA 
HETATM   11  H   UNL     1      -9.878  12.532  62.123  1.00  0.00     0.000 HD 
HETATM   12  C   UNL     1      -9.098  10.828  63.060  1.00  0.00    -0.284 C  
HETATM   13  H   UNL     1      -9.612  14.539  63.564  1.00  0.00     0.000 HD 
ENDROOT
BRANCH   1  14
HETATM   14  C   UNL     1      -8.871  10.120  66.115  1.00  0.00    -0.145 C  
HETATM   15  N   UNL     1     -11.275   8.462  69.961  1.00  0.00    -0.435 N  
HETATM   16  O   UNL     1     -10.845   8.006  67.182  1.00  0.00    -0.278 OA 
HETATM   17  C   UNL     1      -9.970   8.527  67.862  1.00  0.00    -0.181 C  
HETATM   18  C   UNL     1      -8.984   7.616  69.900  1.00  0.00    -0.144 C  
HETATM   19  N   UNL     1     -11.030  14.315  69.386  1.00  0.00    -0.343 N  
HETATM   20  H   UNL     1      -8.471   9.837  68.200  1.00  0.00     0.000 HD 
HETATM   21  N   UNL     1      -9.085   9.489  67.463  1.00  0.00    -0.130 N  
HETATM   22  H   UNL     1     -12.099   7.933  69.674  1.00  0.00     0.000 HD 
HETATM   23  C   UNL     1     -10.030   8.237  69.340  1.00  0.00    -0.188 C  
HETATM   24  C   UNL     1     -11.366   9.424  70.979  1.00  0.00    -0.337 C  
HETATM   25  O   UNL     1      -6.963  11.375  66.965  1.00  0.00    -0.116 OA 
HETATM   26  O   UNL     1     -10.810   9.314  72.070  1.00  0.00    -0.309 OA 
HETATM   27  N   UNL     1      -8.824  12.609  66.503  1.00  0.00    -0.408 N  
HETATM   28  CA  UNL     1     -12.114  10.729  70.543  1.00  0.00    -0.366 C  
HETATM   29  N   UNL     1     -12.039  11.877  71.474  1.00  0.00     0.111 N  
HETATM   30  C   UNL     1      -8.344  13.863  67.092  1.00  0.00    -0.154 C  
HETATM   31  CA  UNL     1      -9.544  14.788  67.438  1.00  0.00    -0.210 C  
HETATM   32  H   UNL     1      -9.749  12.606  66.072  1.00  0.00     0.000 HD 
HETATM   33  H   UNL     1     -11.676  11.785  72.422  1.00  0.00     0.000 HD 
HETATM   34  O   UNL     1      -9.044  15.357  69.751  1.00  0.00    -0.243 OA 
HETATM   35  C   UNL     1     -12.502  13.100  70.965  1.00  0.00    -0.318 C  
HETATM   36  C   UNL     1      -9.816  14.818  68.959  1.00  0.00    -0.206 C  
HETATM   37  H   UNL     1     -11.689  13.986  68.679  1.00  0.00     0.000 HD 
HETATM   38  C   UNL     1      -8.101  11.434  66.495  1.00  0.00    -0.141 C  
HETATM   39  O   UNL     1     -13.588  13.163  70.383  1.00  0.00     0.794 OA 
HETATM   40  CA  UNL     1     -11.436  14.223  70.818  1.00  0.00    -0.023 C  
BRANCH  18  41
HETATM   41  N   UNL     1      -9.021   7.066  71.157  1.00  0.00    -0.145 N  
HETATM   42  H   UNL     1      -8.537   7.548  71.914  1.00  0.00     0.000 HD 
BRANCH  41  43
HETATM   43  C   UNL     1      -9.677   5.904  71.441  1.00  0.00    -0.166 C  
HETATM   44  H2  UNL     1      -8.622   4.958  69.892  1.00  0.00     0.000 HD 
HETATM   45  N   UNL     1      -9.316   4.873  70.636  1.00  0.00    -0.152 N  
HETATM   46  H1  UNL     1      -9.806   4.004  70.848  1.00  0.00     0.000 HD 
HETATM   47  O   UNL     1     -10.507   5.748  72.329  1.00  0.00    -0.196 OA 
ENDBRANCH  41  43
ENDBRANCH  18  41
BRANCH  28  48
HETATM   48  C   UNL     1     -11.435  11.178  69.234  1.00  0.00    -0.294 C  
HETATM   49  O   UNL     1     -12.227  10.828  68.089  1.00  0.00    -0.765 OA 
HETATM   50  H   UNL     1     -11.808  11.105  67.283  1.00  0.00     0.000 HD 
ENDBRANCH  28  48
BRANCH  40  51
HETATM   51  CB  UNL     1     -12.032  15.555  71.289  1.00  0.00    -0.388 C  
HETATM   52  O   UNL     1     -13.295  15.847  70.690  1.00  0.00    -0.736 OA 
HETATM   53  H   UNL     1     -13.664  16.673  70.982  1.00  0.00     0.000 HD 
ENDBRANCH  40  51
BRANCH  31  54
HETATM   54  N   UNL     1      -9.342  16.161  66.958  1.00  0.00    -0.213 N  
HETATM   55  H   UNL     1      -8.519  16.681  67.264  1.00  0.00     0.000 HD 
HETATM   56  O   UNL     1     -11.231  16.162  65.684  1.00  0.00    -0.078 OA 
HETATM   57  C   UNL     1     -10.242  16.760  66.101  1.00  0.00    -0.351 C  
BRANCH  57  58
HETATM   58  C   UNL     1      -9.883  18.194  65.722  1.00  0.00     0.136 C  
BRANCH  58  59
HETATM   59  C   UNL     1     -10.402  19.258  66.712  1.00  0.00    -0.432 C  
HETATM   60  H1  UNL     1     -11.227  19.319  68.600  1.00  0.00     0.000 HD 
HETATM   61  N   UNL     1     -10.884  18.616  67.945  1.00  0.00    -0.293 NA 
HETATM   62  H2  UNL     1     -10.172  18.019  68.367  1.00  0.00     0.000 HD 
BRANCH  59  63
HETATM   63  C   UNL     1      -9.320  20.283  67.125  1.00  0.00    -0.536 C  
BRANCH  63  64
HETATM   64  C   UNL     1      -7.896  19.720  67.092  1.00  0.00    -0.308 C  
BRANCH  64  65
HETATM   65  C   UNL     1      -6.913  20.688  66.432  1.00  0.00    -0.212 C  
HETATM   66  N   UNL     1      -7.241  20.825  65.017  1.00  0.00    -0.475 NA 
HETATM   67  H2  UNL     1      -8.212  21.102  64.871  1.00  0.00     0.000 HD 
HETATM   68  H1  UNL     1      -6.586  21.471  64.576  1.00  0.00     0.000 HD 
ENDBRANCH  64  65
ENDBRANCH  63  64
ENDBRANCH  59  63
ENDBRANCH  58  59
ENDBRANCH  57  58
ENDBRANCH  31  54
ENDBRANCH   1  14
TORSDOF 11
ENDMDL
MODEL        7
REMARK 921   NORMALIZED FREE ENERGY PREDICTED BY IDOCK:   -5.77 KCAL/MOL
REMARK 922        TOTAL FREE ENERGY PREDICTED BY IDOCK:  -11.44 KCAL/MOL
REMARK 923 INTER-LIGAND FREE ENERGY PREDICTED BY IDOCK:  -10.12 KCAL/MOL
REMARK 924 INTRA-LIGAND FREE ENERGY PREDICTED BY IDOCK:   -1.32 KCAL/MOL
REMARK 927      BINDING AFFINITY PREDICTED BY RF-SCORE:    0.00 PKD
ROOT
HETATM    1  C   UNL     1      -7.308   7.227  70.335  1.00  0.00    -0.078 C  
HETATM    2  C   UNL     1      -7.413   8.319  71.441  1.00  0.00    -0.089 C  
HETATM    3  H1  UNL     1      -6.658   3.841  71.616  1.00  0.00     0.000 HD 
HETATM    4  H   UNL     1      -5.498   6.016  70.177  1.00  0.00     0.000 HD 
HETATM    5  C   UNL     1      -7.497   7.677  72.824  1.00  0.00    -0.085 C  
HETATM    6  H2  UNL     1      -6.900   4.340  73.280  1.00  0.00     0.000 HD 
HETATM    7  N   UNL     1      -6.386   6.779  72.974  1.00  0.00    -0.061 NA 
HETATM    8  O   UNL     1      -7.434   8.654  73.838  1.00  0.00    -0.371 OA 
HETATM    9  N   UNL     1      -6.270   6.288  70.787  1.00  0.00    -0.038 NA 
HETATM   10  N   UNL     1      -6.661   4.581  72.318  1.00  0.00    -0.047 NA 
HETATM   11  H   UNL     1      -5.678   6.872  73.703  1.00  0.00     0.000 HD 
HETATM   12  C   UNL     1      -6.381   5.799  72.045  1.00  0.00    -0.045 C  
HETATM   13  H   UNL     1      -7.487   8.254  74.698  1.00  0.00     0.000 HD 
ENDROOT
BRANCH   1  14
HETATM   14  C   UNL     1      -8.654   6.504  69.991  1.00  0.00    -0.140 C  
HETATM   15  N   UNL     1      -7.451   5.040  65.550  1.00  0.00    -0.076 N  
HETATM   16  O   UNL     1      -6.671   4.875  68.284  1.00  0.00    -0.051 OA 
HETATM   17  C   UNL     1      -7.848   5.040  67.990  1.00  0.00    -0.087 C  
HETATM   18  C   UNL     1      -9.187   3.625  66.522  1.00  0.00    -0.171 C  
HETATM   19  N   UNL     1      -9.226  10.631  66.042  1.00  0.00    -0.176 N  
HETATM   20  H   UNL     1      -9.687   5.837  68.237  1.00  0.00     0.000 HD 
HETATM   21  N   UNL     1      -8.770   5.774  68.682  1.00  0.00    -0.108 N  
HETATM   22  H   UNL     1      -6.461   4.798  65.503  1.00  0.00     0.000 HD 
HETATM   23  C   UNL     1      -8.250   4.576  66.613  1.00  0.00    -0.102 C  
HETATM   24  C   UNL     1      -8.035   5.841  64.555  1.00  0.00    -0.126 C  
HETATM   25  O   UNL     1     -11.024   7.067  69.929  1.00  0.00    -0.248 OA 
HETATM   26  O   UNL     1      -8.892   5.435  63.772  1.00  0.00    -0.009 OA 
HETATM   27  N   UNL     1      -9.591   8.809  69.597  1.00  0.00    -0.169 N  
HETATM   28  CA  UNL     1      -7.612   7.346  64.635  1.00  0.00    -0.105 C  
HETATM   29  N   UNL     1      -8.367   8.291  63.781  1.00  0.00    -0.371 N  
HETATM   30  C   UNL     1     -10.609   9.793  69.215  1.00  0.00    -0.221 C  
HETATM   31  CA  UNL     1      -9.961  10.951  68.405  1.00  0.00    -0.178 C  
HETATM   32  H   UNL     1      -8.618   9.115  69.630  1.00  0.00     0.000 HD 
HETATM   33  H   UNL     1      -9.007   7.975  63.053  1.00  0.00     0.000 HD 
HETATM   34  O   UNL     1     -11.422  11.037  66.461  1.00  0.00    -0.235 OA 
HETATM   35  C   UNL     1      -8.144   9.652  64.040  1.00  0.00    -0.152 C  
HETATM   36  C   UNL     1     -10.289  10.841  66.899  1.00  0.00    -0.241 C  
HETATM   37  H   UNL     1      -8.287  10.593  66.442  1.00  0.00     0.000 HD 
HETATM   38  C   UNL     1      -9.869   7.495  69.914  1.00  0.00    -0.187 C  
HETATM   39  O   UNL     1      -6.994  10.086  64.149  1.00  0.00    -0.123 OA 
HETATM   40  CA  UNL     1      -9.367  10.455  64.567  1.00  0.00    -0.264 C  
BRANCH  18  41
HETATM   41  N   UNL     1      -9.450   2.936  65.364  1.00  0.00    -0.322 N  
HETATM   42  H   UNL     1      -8.811   2.192  65.084  1.00  0.00     0.000 HD 
BRANCH  41  43
HETATM   43  C   UNL     1     -10.526   3.201  64.570  1.00  0.00     0.134 C  
HETATM   44  H2  UNL     1     -11.062   4.770  65.858  1.00  0.00     0.000 HD 
HETATM   45  N   UNL     1     -11.279   4.240  65.014  1.00  0.00    -0.858 N  
HETATM   46  H1  UNL     1     -12.084   4.439  64.420  1.00  0.00     0.000 HD 
HETATM   47  O   UNL     1     -10.823   2.604  63.541  1.00  0.00    -0.224 OA 
ENDBRANCH  41  43
ENDBRANCH  18  41
BRANCH  28  48
HETATM   48  C   UNL     1      -7.865   7.772  66.094  1.00  0.00    -0.095 C  
HETATM   49  O   UNL     1      -9.245   7.609  66.453  1.00  0.00    -0.170 OA 
HETATM   50  H   UNL     1      -9.401   7.872  67.352  1.00  0.00     0.000 HD 
ENDBRANCH  28  48
BRANCH  40  51
HETATM   51  CB  UNL     1      -9.419  11.819  63.871  1.00  0.00    -0.031 C  
HETATM   52  O   UNL     1     -10.449  11.906  62.885  1.00  0.00    -0.634 OA 
HETATM   53  H   UNL     1     -10.481  12.753  62.453  1.00  0.00     0.000 HD 
ENDBRANCH  40  51
BRANCH  31  54
HETATM   54  N   UNL     1     -10.378  12.270  68.895  1.00  0.00    -0.409 N  
HETATM   55  H   UNL     1     -11.201  12.344  69.493  1.00  0.00     0.000 HD 
HETATM   56  O   UNL     1      -8.665  13.368  67.867  1.00  0.00    -0.166 OA 
HETATM   57  C   UNL     1      -9.679  13.412  68.562  1.00  0.00    -0.156 C  
BRANCH  57  58
HETATM   58  C   UNL     1     -10.265  14.695  69.142  1.00  0.00    -0.199 C  
BRANCH  58  59
HETATM   59  C   UNL     1     -11.205  15.451  68.180  1.00  0.00    -0.325 C  
HETATM   60  H1  UNL     1     -11.461  17.374  67.484  1.00  0.00     0.000 HD 
HETATM   61  N   UNL     1     -10.839  16.875  68.120  1.00  0.00    -0.370 NA 
HETATM   62  H2  UNL     1      -9.858  17.005  67.874  1.00  0.00     0.000 HD 
BRANCH  59  63
HETATM   63  C   UNL     1     -11.157  14.908  66.732  1.00  0.00    -0.335 C  
BRANCH  63  64
HETATM   64  C   UNL     1     -12.404  14.111  66.334  1.00  0.00    -0.431 C  
BRANCH  64  65
HETATM   65  C   UNL     1     -12.508  13.931  64.818  1.00  0.00    -0.354 C  
HETATM   66  N   UNL     1     -13.057  12.613  64.521  1.00  0.00    -0.820 NA 
HETATM   67  H2  UNL     1     -13.948  12.451  64.990  1.00  0.00     0.000 HD 
HETATM   68  H1  UNL     1     -13.126  12.493  63.510  1.00  0.00     0.000 HD 
ENDBRANCH  64  65
ENDBRANCH  63  64
ENDBRANCH  59  63
ENDBRANCH  58  59
ENDBRANCH  57  58
ENDBRANCH  31  54
ENDBRANCH   1  14
TORSDOF 11
ENDMDL
MODEL        8
REMARK 921   NORMALIZED FREE ENERGY PREDICTED BY IDOCK:   -5.68 KCAL/MOL
REMARK 922        TOTAL FREE ENERGY PREDICTED BY IDOCK:  -11.29 KCAL/MOL
REMARK 923 INTER-LIGAND FREE ENERGY PREDICTED BY IDOCK:   -9.51 KCAL/MOL
REMARK 924 INTRA-LIGAND FREE ENERGY PREDICTED BY IDOCK:   -1.77 KCAL/MOL
REMARK 927      BINDING AFFINITY PREDICTED BY RF-SCORE:    0.00 PKD
ROOT
HETATM    1  C   UNL     1      -6.980   7.942  69.723  1.00  0.00    -0.050 C  
HETATM    2  C   UNL     1      -6.995   8.957  70.905  1.00  0.00    -0.080 C  
HETATM    3  H1  UNL     1      -5.850   4.567  70.650  1.00  0.00     0.000 HD 
HETATM    4  H   UNL     1      -5.125   6.916  69.200  1.00  0.00     0.000 HD 
HETATM    5  C   UNL     1      -6.799   8.236  72.236  1.00  0.00    -0.088 C  
HETATM    6  H2  UNL     1      -5.859   4.948  72.361  1.00  0.00     0.000 HD 
HETATM    7  N   UNL     1      -5.607   7.438  72.148  1.00  0.00    -0.037 NA 
HETATM    8  O   UNL     1      -6.654   9.157  73.293  1.00  0.00    -0.322 OA 
HETATM    9  N   UNL     1      -5.808   7.081  69.941  1.00  0.00    -0.023 NA 
HETATM   10  N   UNL     1      -5.801   5.264  71.393  1.00  0.00    -0.016 NA 
HETATM   11  H   UNL     1      -4.800   7.557  72.761  1.00  0.00     0.000 HD 
HETATM   12  C   UNL     1      -5.671   6.516  71.164  1.00  0.00    -0.027 C  
HETATM   13  H   UNL     1      -6.533   8.708  74.121  1.00  0.00     0.000 HD 
ENDROOT
BRANCH   1  14
HETATM   14  C   UNL     1      -8.299   7.117  69.546  1.00  0.00    -0.133 C  
HETATM   15  N   UNL     1      -7.386   5.443  65.110  1.00  0.00    -0.067 N  
HETATM   16  O   UNL     1      -6.365   5.504  67.768  1.00  0.00    -0.039 OA 
HETATM   17  C   UNL     1      -7.571   5.578  67.572  1.00  0.00    -0.089 C  
HETATM   18  C   UNL     1      -8.933   3.989  66.318  1.00  0.00    -0.127 C  
HETATM   19  N   UNL     1      -9.483  10.933  65.425  1.00  0.00    -0.203 N  
HETATM   20  H   UNL     1      -9.431   6.274  67.935  1.00  0.00     0.000 HD 
HETATM   21  N   UNL     1      -8.477   6.297  68.298  1.00  0.00    -0.115 N  
HETATM   22  H   UNL     1      -6.390   5.259  64.988  1.00  0.00     0.000 HD 
HETATM   23  C   UNL     1      -8.058   5.000  66.267  1.00  0.00    -0.108 C  
HETATM   24  C   UNL     1      -8.106   6.139  64.126  1.00  0.00    -0.081 C  
HETATM   25  O   UNL     1     -10.698   7.527  69.664  1.00  0.00    -0.238 OA 
HETATM   26  O   UNL     1      -8.997   5.631  63.449  1.00  0.00     0.202 OA 
HETATM   27  N   UNL     1      -9.419   9.329  69.101  1.00  0.00    -0.154 N  
HETATM   28  CA  UNL     1      -7.780   7.669  64.077  1.00  0.00    -0.126 C  
HETATM   29  N   UNL     1      -8.667   8.508  63.240  1.00  0.00    -0.421 N  
HETATM   30  C   UNL     1     -10.530  10.221  68.753  1.00  0.00    -0.203 C  
HETATM   31  CA  UNL     1     -10.033  11.361  67.821  1.00  0.00    -0.178 C  
HETATM   32  H   UNL     1      -8.470   9.696  69.028  1.00  0.00     0.000 HD 
HETATM   33  H   UNL     1      -9.344   8.106  62.593  1.00  0.00     0.000 HD 
HETATM   34  O   UNL     1     -11.658  11.230  66.015  1.00  0.00    -0.170 OA 
HETATM   35  C   UNL     1      -8.514   9.894  63.396  1.00  0.00    -0.182 C  
HETATM   36  C   UNL     1     -10.481  11.133  66.360  1.00  0.00    -0.260 C  
HETATM   37  H   UNL     1      -8.514  10.980  65.740  1.00  0.00     0.000 HD 
HETATM   38  C   UNL     1      -9.580   8.024  69.519  1.00  0.00    -0.164 C  
HETATM   39  O   UNL     1      -7.391  10.404  63.374  1.00  0.00    -0.127 OA 
HETATM   40  CA  UNL     1      -9.739  10.653  63.982  1.00  0.00    -0.315 C  
BRANCH  18  41
HETATM   41  N   UNL     1      -9.247   3.212  65.230  1.00  0.00    -0.149 N  
HETATM   42  H   UNL     1      -8.559   2.535  64.900  1.00  0.00     0.000 HD 
BRANCH  41  43
HETATM   43  C   UNL     1     -10.438   3.302  64.572  1.00  0.00     0.066 C  
HETATM   44  H2  UNL     1     -10.890   5.032  65.672  1.00  0.00     0.000 HD 
HETATM   45  N   UNL     1     -11.187   4.366  64.959  1.00  0.00    -0.928 N  
HETATM   46  H1  UNL     1     -12.078   4.433  64.466  1.00  0.00     0.000 HD 
HETATM   47  O   UNL     1     -10.835   2.537  63.700  1.00  0.00    -0.189 OA 
ENDBRANCH  41  43
ENDBRANCH  18  41
BRANCH  28  48
HETATM   48  C   UNL     1      -7.935   8.174  65.525  1.00  0.00    -0.112 C  
HETATM   49  O   UNL     1      -6.657   8.328  66.162  1.00  0.00    -0.049 OA 
HETATM   50  H   UNL     1      -6.752   8.639  67.054  1.00  0.00     0.000 HD 
ENDBRANCH  28  48
BRANCH  40  51
HETATM   51  CB  UNL     1      -9.942  11.963  63.213  1.00  0.00    -0.380 C  
HETATM   52  O   UNL     1      -9.893  13.119  64.051  1.00  0.00    -0.715 OA 
HETATM   53  H   UNL     1     -10.019  13.931  63.573  1.00  0.00     0.000 HD 
ENDBRANCH  40  51
BRANCH  31  54
HETATM   54  N   UNL     1     -10.494  12.681  68.267  1.00  0.00    -0.233 N  
HETATM   55  H   UNL     1     -11.180  12.743  69.020  1.00  0.00     0.000 HD 
HETATM   56  O   UNL     1      -9.170  13.815  66.797  1.00  0.00    -0.246 OA 
HETATM   57  C   UNL     1     -10.018  13.840  67.687  1.00  0.00    -0.238 C  
BRANCH  57  58
HETATM   58  C   UNL     1     -10.621  15.118  68.261  1.00  0.00    -0.243 C  
BRANCH  58  59
HETATM   59  C   UNL     1      -9.693  15.870  69.239  1.00  0.00    -0.263 C  
HETATM   60  H1  UNL     1      -7.959  15.505  70.291  1.00  0.00     0.000 HD 
HETATM   61  N   UNL     1      -8.572  15.009  69.644  1.00  0.00    -0.451 NA 
HETATM   62  H2  UNL     1      -8.062  14.644  68.840  1.00  0.00     0.000 HD 
BRANCH  59  63
HETATM   63  C   UNL     1      -9.083  17.156  68.631  1.00  0.00    -0.268 C  
BRANCH  63  64
HETATM   64  C   UNL     1      -9.625  17.494  67.239  1.00  0.00    -0.273 C  
BRANCH  64  65
HETATM   65  C   UNL     1     -10.516  18.737  67.259  1.00  0.00    -0.431 C  
HETATM   66  N   UNL     1     -10.505  19.323  68.595  1.00  0.00    -0.473 NA 
HETATM   67  H2  UNL     1      -9.559  19.521  68.920  1.00  0.00     0.000 HD 
HETATM   68  H1  UNL     1     -11.099  20.152  68.608  1.00  0.00     0.000 HD 
ENDBRANCH  64  65
ENDBRANCH  63  64
ENDBRANCH  59  63
ENDBRANCH  58  59
ENDBRANCH  57  58
ENDBRANCH  31  54
ENDBRANCH   1  14
TORSDOF 11
ENDMDL
MODEL        9
REMARK 921   NORMALIZED FREE ENERGY PREDICTED BY IDOCK:   -5.62 KCAL/MOL
REMARK 922        TOTAL FREE ENERGY PREDICTED BY IDOCK:  -11.19 KCAL/MOL
REMARK 923 INTER-LIGAND FREE ENERGY PREDICTED BY IDOCK:   -8.96 KCAL/MOL
REMARK 924 INTRA-LIGAND FREE ENERGY PREDICTED BY IDOCK:   -2.23 KCAL/MOL
REMARK 927      BINDING AFFINITY PREDICTED BY RF-SCORE:    0.00 PKD
ROOT
HETATM    1  C   UNL     1     -11.603   9.160  69.885  1.00  0.00     0.145 C  
HETATM    2  C   UNL     1     -11.554   7.701  70.429  1.00  0.00    -0.138 C  
HETATM    3  H1  UNL     1     -13.259  11.552  72.136  1.00  0.00     0.000 HD 
HETATM    4  H   UNL     1     -13.527  10.166  69.655  1.00  0.00     0.000 HD 
HETATM    5  C   UNL     1     -11.962   7.661  71.899  1.00  0.00    -0.295 C  
HETATM    6  H2  UNL     1     -13.348  10.383  73.440  1.00  0.00     0.000 HD 
HETATM    7  N   UNL     1     -13.239   8.306  72.032  1.00  0.00    -0.413 NA 
HETATM    8  O   UNL     1     -12.073   6.333  72.356  1.00  0.00    -0.493 OA 
HETATM    9  N   UNL     1     -12.896   9.712  70.317  1.00  0.00     0.251 NA 
HETATM   10  N   UNL     1     -13.277  10.579  72.441  1.00  0.00    -0.160 NA 
HETATM   11  H   UNL     1     -14.073   7.841  72.392  1.00  0.00     0.000 HD 
HETATM   12  C   UNL     1     -13.215   9.594  71.628  1.00  0.00    -0.411 C  
HETATM   13  H   UNL     1     -12.327   6.308  73.271  1.00  0.00     0.000 HD 
ENDROOT
BRANCH   1  14
HETATM   14  C   UNL     1     -10.398  10.065  70.313  1.00  0.00    -0.242 C  
HETATM   15  N   UNL     1     -11.176  13.653  67.177  1.00  0.00    -0.300 N  
HETATM   16  O   UNL     1     -12.387  12.192  69.301  1.00  0.00    -0.111 OA 
HETATM   17  C   UNL     1     -11.170  12.321  69.260  1.00  0.00    -0.213 C  
HETATM   18  C   UNL     1      -9.941  14.425  69.137  1.00  0.00    -0.069 C  
HETATM   19  N   UNL     1      -8.385   8.922  65.060  1.00  0.00    -0.156 N  
HETATM   20  H   UNL     1      -9.267  11.685  69.487  1.00  0.00     0.000 HD 
HETATM   21  N   UNL     1     -10.234  11.409  69.660  1.00  0.00     0.243 N  
HETATM   22  H   UNL     1     -12.175  13.793  67.026  1.00  0.00     0.000 HD 
HETATM   23  C   UNL     1     -10.664  13.509  68.482  1.00  0.00    -0.255 C  
HETATM   24  C   UNL     1     -10.293  13.600  66.087  1.00  0.00    -0.297 C  
HETATM   25  O   UNL     1      -7.983   9.840  70.541  1.00  0.00    -0.220 OA 
HETATM   26  O   UNL     1      -9.428  14.446  65.871  1.00  0.00    -0.256 OA 
HETATM   27  N   UNL     1      -8.957   8.466  69.004  1.00  0.00    -0.146 N  
HETATM   28  CA  UNL     1     -10.403  12.278  65.255  1.00  0.00    -0.281 C  
HETATM   29  N   UNL     1      -9.347  12.042  64.245  1.00  0.00    -0.419 N  
HETATM   30  C   UNL     1      -7.712   7.957  68.421  1.00  0.00    -0.114 C  
HETATM   31  CA  UNL     1      -7.974   7.400  66.994  1.00  0.00    -0.116 C  
HETATM   32  H   UNL     1      -9.839   8.111  68.634  1.00  0.00     0.000 HD 
HETATM   33  H   UNL     1      -8.682  12.765  63.974  1.00  0.00     0.000 HD 
HETATM   34  O   UNL     1      -6.244   8.542  65.720  1.00  0.00    -0.051 OA 
HETATM   35  C   UNL     1      -9.323  10.756  63.684  1.00  0.00    -0.273 C  
HETATM   36  C   UNL     1      -7.447   8.361  65.905  1.00  0.00    -0.081 C  
HETATM   37  H   UNL     1      -9.361   8.648  65.177  1.00  0.00     0.000 HD 
HETATM   38  C   UNL     1      -9.008   9.396  70.023  1.00  0.00    -0.212 C  
HETATM   39  O   UNL     1     -10.361  10.238  63.264  1.00  0.00     0.190 OA 
HETATM   40  CA  UNL     1      -8.057   9.904  63.986  1.00  0.00    -0.152 C  
BRANCH  18  41
HETATM   41  N   UNL     1      -9.650  15.664  68.620  1.00  0.00    -0.195 N  
HETATM   42  H   UNL     1      -8.774  15.785  68.111  1.00  0.00     0.000 HD 
BRANCH  41  43
HETATM   43  C   UNL     1     -10.478  16.738  68.756  1.00  0.00    -0.338 C  
HETATM   44  H2  UNL     1     -10.696  16.284  70.794  1.00  0.00     0.000 HD 
HETATM   45  N   UNL     1     -10.942  16.903  70.021  1.00  0.00    -0.343 N  
HETATM   46  H1  UNL     1     -11.562  17.707  70.123  1.00  0.00     0.000 HD 
HETATM   47  O   UNL     1     -10.793  17.518  67.864  1.00  0.00    -0.374 OA 
ENDBRANCH  41  43
ENDBRANCH  18  41
BRANCH  28  48
HETATM   48  C   UNL     1     -10.297  11.132  66.280  1.00  0.00    -0.249 C  
HETATM   49  O   UNL     1     -11.595  10.652  66.661  1.00  0.00    -0.016 OA 
HETATM   50  H   UNL     1     -11.530   9.945  67.293  1.00  0.00     0.000 HD 
ENDBRANCH  28  48
BRANCH  40  51
HETATM   51  CB  UNL     1      -7.618   9.174  62.712  1.00  0.00    -0.107 C  
HETATM   52  O   UNL     1      -6.209   8.947  62.654  1.00  0.00    -0.094 OA 
HETATM   53  H   UNL     1      -5.937   8.494  61.864  1.00  0.00     0.000 HD 
ENDBRANCH  40  51
BRANCH  31  54
HETATM   54  N   UNL     1      -7.375   6.074  66.798  1.00  0.00    -0.078 N  
HETATM   55  H   UNL     1      -6.377   6.001  66.600  1.00  0.00     0.000 HD 
HETATM   56  O   UNL     1      -9.335   4.963  67.142  1.00  0.00    -0.119 OA 
HETATM   57  C   UNL     1      -8.135   4.925  66.877  1.00  0.00    -0.107 C  
BRANCH  57  58
HETATM   58  C   UNL     1      -7.352   3.640  66.628  1.00  0.00    -0.068 C  
BRANCH  58  59
HETATM   59  C   UNL     1      -8.010   2.689  65.605  1.00  0.00    -0.082 C  
HETATM   60  H1  UNL     1      -9.619   1.404  65.523  1.00  0.00     0.000 HD 
HETATM   61  N   UNL     1      -9.185   2.033  66.199  1.00  0.00    -0.315 NA 
HETATM   62  H2  UNL     1      -9.851   2.710  66.572  1.00  0.00     0.000 HD 
BRANCH  59  63
HETATM   63  C   UNL     1      -8.491   3.412  64.325  1.00  0.00    -0.089 C  
BRANCH  63  64
HETATM   64  C   UNL     1      -9.713   2.757  63.673  1.00  0.00    -0.122 C  
BRANCH  64  65
HETATM   65  C   UNL     1     -10.905   3.714  63.604  1.00  0.00    -0.195 C  
HETATM   66  N   UNL     1     -11.184   4.241  64.935  1.00  0.00    -1.021 NA 
HETATM   67  H2  UNL     1     -10.364   4.677  65.357  1.00  0.00     0.000 HD 
HETATM   68  H1  UNL     1     -11.978   4.879  64.889  1.00  0.00     0.000 HD 
ENDBRANCH  64  65
ENDBRANCH  63  64
ENDBRANCH  59  63
ENDBRANCH  58  59
ENDBRANCH  57  58
ENDBRANCH  31  54
ENDBRANCH   1  14
TORSDOF 11
ENDMDL
MODEL       10
REMARK 921   NORMALIZED FREE ENERGY PREDICTED BY IDOCK:   -5.52 KCAL/MOL
REMARK 922        TOTAL FREE ENERGY PREDICTED BY IDOCK:  -11.02 KCAL/MOL
REMARK 923 INTER-LIGAND FREE ENERGY PREDICTED BY IDOCK:   -9.60 KCAL/MOL
REMARK 924 INTRA-LIGAND FREE ENERGY PREDICTED BY IDOCK:   -1.43 KCAL/MOL
REMARK 927      BINDING AFFINITY PREDICTED BY RF-SCORE:    0.00 PKD
ROOT
HETATM    1  C   UNL     1      -8.645   9.176  65.391  1.00  0.00    -0.169 C  
HETATM    2  C   UNL     1      -9.037  10.374  64.476  1.00  0.00    -0.263 C  
HETATM    3  H1  UNL     1      -5.983   7.041  64.019  1.00  0.00     0.000 HD 
HETATM    4  H   UNL     1      -8.771   7.137  64.619  1.00  0.00     0.000 HD 
HETATM    5  C   UNL     1      -8.026  10.540  63.344  1.00  0.00    -0.051 C  
HETATM    6  H2  UNL     1      -5.656   8.157  62.706  1.00  0.00     0.000 HD 
HETATM    7  N   UNL     1      -7.902   9.282  62.661  1.00  0.00    -0.118 NA 
HETATM    8  O   UNL     1      -8.456  11.518  62.424  1.00  0.00    -0.600 OA 
HETATM    9  N   UNL     1      -8.344   8.055  64.487  1.00  0.00    -0.095 NA 
HETATM   10  N   UNL     1      -6.302   7.790  63.405  1.00  0.00    -0.062 NA 
HETATM   11  H   UNL     1      -8.110   9.153  61.670  1.00  0.00     0.000 HD 
HETATM   12  C   UNL     1      -7.478   8.290  63.473  1.00  0.00    -0.119 C  
HETATM   13  H   UNL     1      -7.826  11.621  61.720  1.00  0.00     0.000 HD 
ENDROOT
BRANCH   1  14
HETATM   14  C   UNL     1      -7.473   9.464  66.390  1.00  0.00    -0.093 C  
HETATM   15  N   UNL     1      -9.324   7.142  70.197  1.00  0.00    -0.159 N  
HETATM   16  O   UNL     1      -8.522   6.782  67.488  1.00  0.00    -0.121 OA 
HETATM   17  C   UNL     1      -7.986   7.639  68.178  1.00  0.00    -0.123 C  
HETATM   18  C   UNL     1      -6.890   7.288  70.330  1.00  0.00    -0.053 C  
HETATM   19  N   UNL     1     -11.384  12.569  69.221  1.00  0.00    -0.351 N  
HETATM   20  H   UNL     1      -7.165   9.454  68.509  1.00  0.00     0.000 HD 
HETATM   21  N   UNL     1      -7.529   8.858  67.764  1.00  0.00    -0.092 N  
HETATM   22  H   UNL     1      -9.843   6.315  69.901  1.00  0.00     0.000 HD 
HETATM   23  C   UNL     1      -8.046   7.411  69.668  1.00  0.00    -0.128 C  
HETATM   24  C   UNL     1      -9.875   8.028  71.137  1.00  0.00    -0.166 C  
HETATM   25  O   UNL     1      -6.300  11.415  67.257  1.00  0.00    -0.076 OA 
HETATM   26  O   UNL     1      -9.413   8.197  72.264  1.00  0.00    -0.194 OA 
HETATM   27  N   UNL     1      -8.453  11.776  66.601  1.00  0.00    -0.231 N  
HETATM   28  CA  UNL     1     -11.041   8.902  70.566  1.00  0.00    -0.251 C  
HETATM   29  N   UNL     1     -11.507  10.021  71.415  1.00  0.00    -0.328 N  
HETATM   30  C   UNL     1      -8.562  13.140  67.126  1.00  0.00    -0.192 C  
HETATM   31  CA  UNL     1     -10.055  13.518  67.335  1.00  0.00    -0.237 C  
HETATM   32  H   UNL     1      -9.262  11.382  66.118  1.00  0.00     0.000 HD 
HETATM   33  H   UNL     1     -11.217  10.123  72.387  1.00  0.00     0.000 HD 
HETATM   34  O   UNL     1     -10.015  14.336  69.626  1.00  0.00     0.179 OA 
HETATM   35  C   UNL     1     -12.375  10.932  70.795  1.00  0.00    -0.390 C  
HETATM   36  C   UNL     1     -10.440  13.499  68.831  1.00  0.00    -0.126 C  
HETATM   37  H   UNL     1     -11.797  11.974  68.502  1.00  0.00     0.000 HD 
HETATM   38  C   UNL     1      -7.324  10.991  66.719  1.00  0.00    -0.139 C  
HETATM   39  O   UNL     1     -13.344  10.529  70.147  1.00  0.00    -0.022 OA 
HETATM   40  CA  UNL     1     -11.837  12.382  70.630  1.00  0.00     0.070 C  
BRANCH  18  41
HETATM   41  N   UNL     1      -6.808   6.822  71.620  1.00  0.00    -0.065 N  
HETATM   42  H   UNL     1      -6.537   7.474  72.356  1.00  0.00     0.000 HD 
BRANCH  41  43
HETATM   43  C   UNL     1      -7.074   5.529  71.960  1.00  0.00    -0.086 C  
HETATM   44  H2  UNL     1      -7.942   6.202  73.749  1.00  0.00     0.000 HD 
HETATM   45  N   UNL     1      -7.697   5.406  73.160  1.00  0.00    -0.100 N  
HETATM   46  H1  UNL     1      -7.896   4.439  73.415  1.00  0.00     0.000 HD 
HETATM   47  O   UNL     1      -6.812   4.541  71.284  1.00  0.00    -0.030 OA 
ENDBRANCH  41  43
ENDBRANCH  18  41
BRANCH  28  48
HETATM   48  C   UNL     1     -10.493   9.531  69.270  1.00  0.00    -0.212 C  
HETATM   49  O   UNL     1     -11.258   9.122  68.127  1.00  0.00    -0.483 OA 
HETATM   50  H   UNL     1     -10.920   9.510  67.329  1.00  0.00     0.000 HD 
ENDBRANCH  28  48
BRANCH  40  51
HETATM   51  CB  UNL     1     -12.950  13.380  70.970  1.00  0.00    -0.184 C  
HETATM   52  O   UNL     1     -13.705  13.005  72.123  1.00  0.00    -0.506 OA 
HETATM   53  H   UNL     1     -14.395  13.625  72.333  1.00  0.00     0.000 HD 
ENDBRANCH  40  51
BRANCH  31  54
HETATM   54  N   UNL     1     -10.377  14.835  66.771  1.00  0.00    -0.265 N  
HETATM   55  H   UNL     1     -10.326  15.660  67.368  1.00  0.00     0.000 HD 
HETATM   56  O   UNL     1     -10.796  14.015  64.686  1.00  0.00    -0.401 OA 
HETATM   57  C   UNL     1     -10.748  14.977  65.449  1.00  0.00    -0.374 C  
BRANCH  57  58
HETATM   58  C   UNL     1     -11.065  16.412  65.040  1.00  0.00    -0.216 C  
BRANCH  58  59
HETATM   59  C   UNL     1     -10.355  17.483  65.895  1.00  0.00    -0.259 C  
HETATM   60  H1  UNL     1      -8.427  18.084  66.307  1.00  0.00     0.000 HD 
HETATM   61  N   UNL     1      -8.896  17.376  65.741  1.00  0.00    -0.482 NA 
HETATM   62  H2  UNL     1      -8.613  17.421  64.762  1.00  0.00     0.000 HD 
BRANCH  59  63
HETATM   63  C   UNL     1     -10.749  18.929  65.508  1.00  0.00    -0.061 C  
BRANCH  63  64
HETATM   64  C   UNL     1     -10.357  19.973  66.559  1.00  0.00    -0.572 C  
BRANCH  64  65
HETATM   65  C   UNL     1     -10.431  19.411  67.980  1.00  0.00    -0.399 C  
HETATM   66  N   UNL     1      -9.324  19.938  68.770  1.00  0.00    -0.205 NA 
HETATM   67  H2  UNL     1      -9.295  20.958  68.760  1.00  0.00     0.000 HD 
HETATM   68  H1  UNL     1      -9.374  19.564  69.718  1.00  0.00     0.000 HD 
ENDBRANCH  64  65
ENDBRANCH  63  64
ENDBRANCH  59  63
ENDBRANCH  58  59
ENDBRANCH  57  58
ENDBRANCH  31  54
ENDBRANCH   1  14
TORSDOF 11
ENDMDL
MODEL       11
REMARK 921   NORMALIZED FREE ENERGY PREDICTED BY IDOCK:   -5.44 KCAL/MOL
REMARK 922        TOTAL FREE ENERGY PREDICTED BY IDOCK:  -10.90 KCAL/MOL
REMARK 923 INTER-LIGAND FREE ENERGY PREDICTED BY IDOCK:   -9.16 KCAL/MOL
REMARK 924 INTRA-LIGAND FREE ENERGY PREDICTED BY IDOCK:   -1.74 KCAL/MOL
REMARK 927      BINDING AFFINITY PREDICTED BY RF-SCORE:    0.00 PKD
ROOT
HETATM    1  C   UNL     1     -10.701  13.386  65.564  1.00  0.00    -0.294 C  
HETATM    2  C   UNL     1     -11.697  12.240  65.219  1.00  0.00    -0.413 C  
HETATM    3  H1  UNL     1     -11.661  16.672  64.220  1.00  0.00     0.000 HD 
HETATM    4  H   UNL     1      -9.780  14.541  63.956  1.00  0.00     0.000 HD 
HETATM    5  C   UNL     1     -12.989  12.807  64.635  1.00  0.00    -0.146 C  
HETATM    6  H2  UNL     1     -13.235  16.092  63.713  1.00  0.00     0.000 HD 
HETATM    7  N   UNL     1     -12.648  13.657  63.527  1.00  0.00    -0.873 NA 
HETATM    8  O   UNL     1     -13.830  11.774  64.175  1.00  0.00     0.061 OA 
HETATM    9  N   UNL     1     -10.664  14.263  64.384  1.00  0.00    -0.237 NA 
HETATM   10  N   UNL     1     -12.263  15.896  63.948  1.00  0.00    -0.750 NA 
HETATM   11  H   UNL     1     -12.974  13.500  62.573  1.00  0.00     0.000 HD 
HETATM   12  C   UNL     1     -11.852  14.685  63.888  1.00  0.00     0.067 C  
HETATM   13  H   UNL     1     -14.634  12.128  63.811  1.00  0.00     0.000 HD 
ENDROOT
BRANCH   1  14
HETATM   14  C   UNL     1     -11.029  14.172  66.879  1.00  0.00    -0.300 C  
HETATM   15  N   UNL     1      -6.534  15.640  67.857  1.00  0.00    -0.135 N  
HETATM   16  O   UNL     1      -8.571  15.735  65.869  1.00  0.00    -0.194 OA 
HETATM   17  C   UNL     1      -8.871  15.625  67.050  1.00  0.00    -0.225 C  
HETATM   18  C   UNL     1      -8.200  17.117  68.860  1.00  0.00    -0.192 C  
HETATM   19  N   UNL     1      -7.860  10.127  69.437  1.00  0.00    -0.135 N  
HETATM   20  H   UNL     1      -9.967  14.907  68.587  1.00  0.00     0.000 HD 
HETATM   21  N   UNL     1      -9.924  14.923  67.567  1.00  0.00    -0.219 N  
HETATM   22  H   UNL     1      -6.021  15.838  66.997  1.00  0.00     0.000 HD 
HETATM   23  C   UNL     1      -7.845  16.125  68.036  1.00  0.00    -0.144 C  
HETATM   24  C   UNL     1      -5.942  14.879  68.878  1.00  0.00    -0.085 C  
HETATM   25  O   UNL     1     -12.102  13.715  69.018  1.00  0.00    -0.344 OA 
HETATM   26  O   UNL     1      -5.655  15.332  69.984  1.00  0.00    -0.114 OA 
HETATM   27  N   UNL     1     -11.147  11.916  67.993  1.00  0.00    -0.223 N  
HETATM   28  CA  UNL     1      -5.826  13.355  68.536  1.00  0.00    -0.089 C  
HETATM   29  N   UNL     1      -5.441  12.456  69.647  1.00  0.00    -0.078 N  
HETATM   30  C   UNL     1     -11.301  10.983  69.114  1.00  0.00    -0.280 C  
HETATM   31  CA  UNL     1     -10.292   9.809  68.979  1.00  0.00    -0.208 C  
HETATM   32  H   UNL     1     -10.718  11.567  67.135  1.00  0.00     0.000 HD 
HETATM   33  H   UNL     1      -5.099  12.809  70.540  1.00  0.00     0.000 HD 
HETATM   34  O   UNL     1      -9.273   9.812  71.189  1.00  0.00    -0.051 OA 
HETATM   35  C   UNL     1      -5.575  11.083  69.389  1.00  0.00    -0.042 C  
HETATM   36  C   UNL     1      -9.120   9.952  69.976  1.00  0.00    -0.178 C  
HETATM   37  H   UNL     1      -7.767  10.117  68.421  1.00  0.00     0.000 HD 
HETATM   38  C   UNL     1     -11.545  13.237  68.028  1.00  0.00    -0.336 C  
HETATM   39  O   UNL     1      -5.131  10.598  68.346  1.00  0.00    -0.035 OA 
HETATM   40  CA  UNL     1      -6.627  10.328  70.251  1.00  0.00    -0.142 C  
BRANCH  18  41
HETATM   41  N   UNL     1      -7.297  17.832  69.609  1.00  0.00     0.251 N  
HETATM   42  H   UNL     1      -7.207  17.614  70.601  1.00  0.00     0.000 HD 
BRANCH  41  43
HETATM   43  C   UNL     1      -6.514  18.819  69.086  1.00  0.00    -0.276 C  
HETATM   44  H2  UNL     1      -7.091  20.080  70.661  1.00  0.00     0.000 HD 
HETATM   45  N   UNL     1      -6.541  19.966  69.810  1.00  0.00    -0.346 N  
HETATM   46  H1  UNL     1      -5.955  20.705  69.419  1.00  0.00     0.000 HD 
HETATM   47  O   UNL     1      -5.826  18.728  68.076  1.00  0.00    -0.197 OA 
ENDBRANCH  41  43
ENDBRANCH  18  41
BRANCH  28  48
HETATM   48  C   UNL     1      -7.235  12.921  68.087  1.00  0.00    -0.114 C  
HETATM   49  O   UNL     1      -7.299  12.755  66.662  1.00  0.00    -0.287 OA 
HETATM   50  H   UNL     1      -8.167  12.487  66.385  1.00  0.00     0.000 HD 
ENDBRANCH  28  48
BRANCH  40  51
HETATM   51  CB  UNL     1      -6.050   8.976  70.688  1.00  0.00    -0.040 C  
HETATM   52  O   UNL     1      -5.698   8.136  69.589  1.00  0.00    -0.026 OA 
HETATM   53  H   UNL     1      -5.340   7.298  69.860  1.00  0.00     0.000 HD 
ENDBRANCH  40  51
BRANCH  31  54
HETATM   54  N   UNL     1     -10.933   8.503  69.174  1.00  0.00    -0.430 N  
HETATM   55  H   UNL     1     -11.870   8.461  69.576  1.00  0.00     0.000 HD 
HETATM   56  O   UNL     1      -9.178   7.335  68.308  1.00  0.00    -0.134 OA 
HETATM   57  C   UNL     1     -10.294   7.331  68.822  1.00  0.00    -0.200 C  
BRANCH  57  58
HETATM   58  C   UNL     1     -11.100   6.069  69.113  1.00  0.00    -0.405 C  
BRANCH  58  59
HETATM   59  C   UNL     1     -10.887   4.934  68.088  1.00  0.00     0.720 C  
HETATM   60  H1  UNL     1     -10.754   4.724  66.042  1.00  0.00     0.000 HD 
HETATM   61  N   UNL     1     -10.894   5.474  66.720  1.00  0.00    -0.481 NA 
HETATM   62  H2  UNL     1     -10.213   6.225  66.603  1.00  0.00     0.000 HD 
BRANCH  59  63
HETATM   63  C   UNL     1      -9.545   4.189  68.277  1.00  0.00    -0.191 C  
BRANCH  63  64
HETATM   64  C   UNL     1      -9.513   2.806  67.617  1.00  0.00    -0.157 C  
BRANCH  64  65
HETATM   65  C   UNL     1      -8.800   2.835  66.264  1.00  0.00    -0.144 C  
HETATM   66  N   UNL     1      -9.787   2.954  65.196  1.00  0.00    -0.364 NA 
HETATM   67  H2  UNL     1     -10.400   3.758  65.325  1.00  0.00     0.000 HD 
HETATM   68  H1  UNL     1      -9.312   2.973  64.294  1.00  0.00     0.000 HD 
ENDBRANCH  64  65
ENDBRANCH  63  64
ENDBRANCH  59  63
ENDBRANCH  58  59
ENDBRANCH  57  58
ENDBRANCH  31  54
ENDBRANCH   1  14
TORSDOF 11
ENDMDL
MODEL       12
REMARK 921   NORMALIZED FREE ENERGY PREDICTED BY IDOCK:   -5.40 KCAL/MOL
REMARK 922        TOTAL FREE ENERGY PREDICTED BY IDOCK:  -10.83 KCAL/MOL
REMARK 923 INTER-LIGAND FREE ENERGY PREDICTED BY IDOCK:   -9.58 KCAL/MOL
REMARK 924 INTRA-LIGAND FREE ENERGY PREDICTED BY IDOCK:   -1.24 KCAL/MOL
REMARK 927      BINDING AFFINITY PREDICTED BY RF-SCORE:    0.00 PKD
ROOT
HETATM    1  C   UNL     1     -12.255  10.912  70.104  1.00  0.00    -0.343 C  
HETATM    2  C   UNL     1     -12.564   9.550  70.794  1.00  0.00    -0.158 C  
HETATM    3  H1  UNL     1     -12.874  13.851  72.229  1.00  0.00     0.000 HD 
HETATM    4  H   UNL     1     -13.821  12.425  69.945  1.00  0.00     0.000 HD 
HETATM    5  C   UNL     1     -12.790   9.744  72.292  1.00  0.00    -0.295 C  
HETATM    6  H2  UNL     1     -13.141  12.863  73.652  1.00  0.00     0.000 HD 
HETATM    7  N   UNL     1     -13.802  10.747  72.470  1.00  0.00    -0.143 NA 
HETATM    8  O   UNL     1     -13.224   8.546  72.895  1.00  0.00    -0.663 OA 
HETATM    9  N   UNL     1     -13.274  11.855  70.591  1.00  0.00     0.366 NA 
HETATM   10  N   UNL     1     -13.136  12.953  72.636  1.00  0.00    -0.248 NA 
HETATM   11  H   UNL     1     -14.686  10.580  72.952  1.00  0.00     0.000 HD 
HETATM   12  C   UNL     1     -13.456  11.935  71.930  1.00  0.00    -0.187 C  
HETATM   13  H   UNL     1     -13.364   8.667  73.827  1.00  0.00     0.000 HD 
ENDROOT
BRANCH   1  14
HETATM   14  C   UNL     1     -10.799  11.446  70.323  1.00  0.00     0.686 C  
HETATM   15  N   UNL     1     -11.101  15.270  67.389  1.00  0.00    -0.326 N  
HETATM   16  O   UNL     1     -12.288  14.069  69.683  1.00  0.00    -0.334 OA 
HETATM   17  C   UNL     1     -11.105  13.877  69.432  1.00  0.00    -0.180 C  
HETATM   18  C   UNL     1      -9.397  15.590  69.109  1.00  0.00    -0.250 C  
HETATM   19  N   UNL     1     -10.062  10.090  64.794  1.00  0.00    -0.354 N  
HETATM   20  H   UNL     1      -9.430  12.755  69.322  1.00  0.00     0.000 HD 
HETATM   21  N   UNL     1     -10.393  12.733  69.659  1.00  0.00     0.706 N  
HETATM   22  H   UNL     1     -12.037  15.674  67.414  1.00  0.00     0.000 HD 
HETATM   23  C   UNL     1     -10.437  14.931  68.585  1.00  0.00    -0.242 C  
HETATM   24  C   UNL     1     -10.456  15.044  66.162  1.00  0.00    -0.305 C  
HETATM   25  O   UNL     1      -8.528  10.586  70.127  1.00  0.00     0.194 OA 
HETATM   26  O   UNL     1      -9.445  15.645  65.804  1.00  0.00    -0.335 OA 
HETATM   27  N   UNL     1     -10.074   9.596  68.774  1.00  0.00    -0.172 N  
HETATM   28  CA  UNL     1     -11.051  13.842  65.354  1.00  0.00    -0.302 C  
HETATM   29  N   UNL     1     -10.279  13.390  64.175  1.00  0.00    -0.644 N  
HETATM   30  C   UNL     1      -9.123   8.810  67.982  1.00  0.00    -0.140 C  
HETATM   31  CA  UNL     1      -9.757   8.415  66.619  1.00  0.00    -0.251 C  
HETATM   32  H   UNL     1     -11.067   9.504  68.561  1.00  0.00     0.000 HD 
HETATM   33  H   UNL     1      -9.499  13.927  63.797  1.00  0.00     0.000 HD 
HETATM   34  O   UNL     1      -8.021   9.129  65.071  1.00  0.00    -0.110 OA 
HETATM   35  C   UNL     1     -10.691  12.173  63.611  1.00  0.00    -0.467 C  
HETATM   36  C   UNL     1      -9.181   9.260  65.460  1.00  0.00    -0.231 C  
HETATM   37  H   UNL     1     -11.042  10.075  65.077  1.00  0.00     0.000 HD 
HETATM   38  C   UNL     1      -9.706  10.453  69.792  1.00  0.00    -0.059 C  
HETATM   39  O   UNL     1     -11.884  11.967  63.375  1.00  0.00    -0.462 OA 
HETATM   40  CA  UNL     1      -9.666  11.006  63.685  1.00  0.00    -0.324 C  
BRANCH  18  41
HETATM   41  N   UNL     1      -8.876  16.734  68.557  1.00  0.00    -0.240 N  
HETATM   42  H   UNL     1      -9.448  17.259  67.894  1.00  0.00     0.000 HD 
BRANCH  41  43
HETATM   43  C   UNL     1      -7.631  17.202  68.854  1.00  0.00    -0.234 C  
HETATM   44  H2  UNL     1      -6.867  15.263  68.606  1.00  0.00     0.000 HD 
HETATM   45  N   UNL     1      -6.674  16.240  68.827  1.00  0.00    -0.136 N  
HETATM   46  H1  UNL     1      -5.742  16.590  69.050  1.00  0.00     0.000 HD 
HETATM   47  O   UNL     1      -7.345  18.366  69.113  1.00  0.00    -0.241 OA 
ENDBRANCH  41  43
ENDBRANCH  18  41
BRANCH  28  48
HETATM   48  C   UNL     1     -11.086  12.656  66.339  1.00  0.00    -0.287 C  
HETATM   49  O   UNL     1     -12.337  11.955  66.266  1.00  0.00    -0.270 OA 
HETATM   50  H   UNL     1     -12.358  11.225  66.872  1.00  0.00     0.000 HD 
ENDBRANCH  28  48
BRANCH  40  51
HETATM   51  CB  UNL     1      -9.655  10.253  62.350  1.00  0.00    -0.132 C  
HETATM   52  O   UNL     1      -9.288   8.879  62.485  1.00  0.00    -0.516 OA 
HETATM   53  H   UNL     1      -9.281   8.412  61.657  1.00  0.00     0.000 HD 
ENDBRANCH  40  51
BRANCH  31  54
HETATM   54  N   UNL     1      -9.574   6.991  66.315  1.00  0.00    -0.384 N  
HETATM   55  H   UNL     1      -8.853   6.711  65.650  1.00  0.00     0.000 HD 
HETATM   56  O   UNL     1     -11.219   6.313  67.739  1.00  0.00    -0.325 OA 
HETATM   57  C   UNL     1     -10.358   6.024  66.911  1.00  0.00    -0.244 C  
BRANCH  57  58
HETATM   58  C   UNL     1     -10.042   4.600  66.463  1.00  0.00    -0.279 C  
BRANCH  58  59
HETATM   59  C   UNL     1      -8.907   3.925  67.261  1.00  0.00    -0.122 C  
HETATM   60  H1  UNL     1      -7.721   4.346  68.893  1.00  0.00     0.000 HD 
HETATM   61  N   UNL     1      -8.472   4.793  68.366  1.00  0.00    -0.094 NA 
HETATM   62  H2  UNL     1      -9.251   5.063  68.967  1.00  0.00     0.000 HD 
BRANCH  59  63
HETATM   63  C   UNL     1      -9.323   2.571  67.882  1.00  0.00    -0.241 C  
BRANCH  63  64
HETATM   64  C   UNL     1      -9.206   2.534  69.410  1.00  0.00    -0.194 C  
BRANCH  64  65
HETATM   65  C   UNL     1      -8.079   1.612  69.875  1.00  0.00    -0.041 C  
HETATM   66  N   UNL     1      -6.792   2.184  69.492  1.00  0.00    -0.033 NA 
HETATM   67  H2  UNL     1      -6.677   3.137  69.836  1.00  0.00     0.000 HD 
HETATM   68  H1  UNL     1      -6.040   1.569  69.803  1.00  0.00     0.000 HD 
ENDBRANCH  64  65
ENDBRANCH  63  64
ENDBRANCH  59  63
ENDBRANCH  58  59
ENDBRANCH  57  58
ENDBRANCH  31  54
ENDBRANCH   1  14
TORSDOF 11
ENDMDL
MODEL       13
REMARK 921   NORMALIZED FREE ENERGY PREDICTED BY IDOCK:   -5.35 KCAL/MOL
REMARK 922        TOTAL FREE ENERGY PREDICTED BY IDOCK:  -10.75 KCAL/MOL
REMARK 923 INTER-LIGAND FREE ENERGY PREDICTED BY IDOCK:   -8.39 KCAL/MOL
REMARK 924 INTRA-LIGAND FREE ENERGY PREDICTED BY IDOCK:   -2.36 KCAL/MOL
REMARK 927      BINDING AFFINITY PREDICTED BY RF-SCORE:    0.00 PKD
ROOT
HETATM    1  C   UNL     1     -11.205   8.054  70.127  1.00  0.00    -0.144 C  
HETATM    2  C   UNL     1     -10.744   6.643  70.599  1.00  0.00    -0.286 C  
HETATM    3  H1  UNL     1     -13.686   9.643  72.329  1.00  0.00     0.000 HD 
HETATM    4  H   UNL     1     -13.323   8.437  69.767  1.00  0.00     0.000 HD 
HETATM    5  C   UNL     1     -11.228   6.365  72.021  1.00  0.00    -0.281 C  
HETATM    6  H2  UNL     1     -13.504   8.405  73.558  1.00  0.00     0.000 HD 
HETATM    7  N   UNL     1     -12.649   6.576  72.063  1.00  0.00    -0.508 NA 
HETATM    8  O   UNL     1     -10.953   5.036  72.397  1.00  0.00    -0.201 OA 
HETATM    9  N   UNL     1     -12.634   8.149  70.462  1.00  0.00     0.349 NA 
HETATM   10  N   UNL     1     -13.424   8.690  72.582  1.00  0.00    -0.288 NA 
HETATM   11  H   UNL     1     -13.321   5.852  72.319  1.00  0.00     0.000 HD 
HETATM   12  C   UNL     1     -12.997   7.837  71.729  1.00  0.00    -0.323 C  
HETATM   13  H   UNL     1     -11.254   4.864  73.281  1.00  0.00     0.000 HD 
ENDROOT
BRANCH   1  14
HETATM   14  C   UNL     1     -10.377   9.248  70.714  1.00  0.00    -0.281 C  
HETATM   15  N   UNL     1     -12.022  12.664  67.723  1.00  0.00    -0.318 N  
HETATM   16  O   UNL     1     -12.857  10.734  69.644  1.00  0.00    -0.193 OA 
HETATM   17  C   UNL     1     -11.743  11.234  69.721  1.00  0.00    -0.349 C  
HETATM   18  C   UNL     1     -11.230  13.617  69.827  1.00  0.00    -0.027 C  
HETATM   19  N   UNL     1      -7.748   9.211  65.611  1.00  0.00    -0.093 N  
HETATM   20  H   UNL     1      -9.757  11.199  70.085  1.00  0.00     0.000 HD 
HETATM   21  N   UNL     1     -10.598  10.625  70.154  1.00  0.00    -0.120 N  
HETATM   22  H   UNL     1     -13.002  12.501  67.489  1.00  0.00     0.000 HD 
HETATM   23  C   UNL     1     -11.583  12.580  69.059  1.00  0.00    -0.314 C  
HETATM   24  C   UNL     1     -11.093  12.974  66.717  1.00  0.00    -0.286 C  
HETATM   25  O   UNL     1      -8.035   9.761  71.148  1.00  0.00    -0.184 OA 
HETATM   26  O   UNL     1     -10.525  14.060  66.628  1.00  0.00    -0.268 OA 
HETATM   27  N   UNL     1      -8.420   8.283  69.455  1.00  0.00    -0.122 N  
HETATM   28  CA  UNL     1     -10.725  11.755  65.806  1.00  0.00    -0.280 C  
HETATM   29  N   UNL     1      -9.581  11.938  64.885  1.00  0.00    -0.423 N  
HETATM   30  C   UNL     1      -7.041   8.231  68.961  1.00  0.00    -0.065 C  
HETATM   31  CA  UNL     1      -7.015   7.738  67.487  1.00  0.00    -0.078 C  
HETATM   32  H   UNL     1      -9.118   7.705  68.986  1.00  0.00     0.000 HD 
HETATM   33  H   UNL     1      -9.159  12.851  64.717  1.00  0.00     0.000 HD 
HETATM   34  O   UNL     1      -5.647   9.457  66.442  1.00  0.00    -0.050 OA 
HETATM   35  C   UNL     1      -9.116  10.772  64.258  1.00  0.00    -0.195 C  
HETATM   36  C   UNL     1      -6.742   8.900  66.505  1.00  0.00    -0.075 C  
HETATM   37  H   UNL     1      -8.594   8.642  65.623  1.00  0.00     0.000 HD 
HETATM   38  C   UNL     1      -8.831   9.066  70.514  1.00  0.00    -0.208 C  
HETATM   39  O   UNL     1      -9.907   9.996  63.718  1.00  0.00    -0.169 OA 
HETATM   40  CA  UNL     1      -7.671  10.331  64.628  1.00  0.00    -0.114 C  
BRANCH  18  41
HETATM   41  N   UNL     1     -11.307  14.923  69.409  1.00  0.00    -0.273 N  
HETATM   42  H   UNL     1     -12.217  15.292  69.130  1.00  0.00     0.000 HD 
BRANCH  41  43
HETATM   43  C   UNL     1     -10.224  15.749  69.349  1.00  0.00    -0.262 C  
HETATM   44  H2  UNL     1      -8.970  14.066  69.332  1.00  0.00     0.000 HD 
HETATM   45  N   UNL     1      -9.042  15.084  69.315  1.00  0.00    -0.356 N  
HETATM   46  H1  UNL     1      -8.231  15.702  69.271  1.00  0.00     0.000 HD 
HETATM   47  O   UNL     1     -10.258  16.974  69.314  1.00  0.00    -0.291 OA 
ENDBRANCH  41  43
ENDBRANCH  18  41
BRANCH  28  48
HETATM   48  C   UNL     1     -10.336  10.618  66.772  1.00  0.00    -0.245 C  
HETATM   49  O   UNL     1     -11.391   9.651  66.890  1.00  0.00     0.026 OA 
HETATM   50  H   UNL     1     -11.151   8.950  67.485  1.00  0.00     0.000 HD 
ENDBRANCH  28  48
BRANCH  40  51
HETATM   51  CB  UNL     1      -6.937   9.877  63.360  1.00  0.00    -0.124 C  
HETATM   52  O   UNL     1      -6.358  10.960  62.630  1.00  0.00    -0.326 OA 
HETATM   53  H   UNL     1      -5.903  10.678  61.845  1.00  0.00     0.000 HD 
ENDBRANCH  40  51
BRANCH  31  54
HETATM   54  N   UNL     1      -6.018   6.682  67.273  1.00  0.00    -0.017 N  
HETATM   55  H   UNL     1      -5.051   6.940  67.078  1.00  0.00     0.000 HD 
HETATM   56  O   UNL     1      -7.511   4.989  67.592  1.00  0.00    -0.077 OA 
HETATM   57  C   UNL     1      -6.364   5.347  67.332  1.00  0.00    -0.039 C  
BRANCH  57  58
HETATM   58  C   UNL     1      -5.207   4.390  67.066  1.00  0.00    -0.012 C  
BRANCH  58  59
HETATM   59  C   UNL     1      -5.371   3.540  65.788  1.00  0.00    -0.009 C  
HETATM   60  H1  UNL     1      -6.692   2.149  65.034  1.00  0.00     0.000 HD 
HETATM   61  N   UNL     1      -6.583   2.711  65.878  1.00  0.00    -0.031 NA 
HETATM   62  H2  UNL     1      -7.413   3.271  66.073  1.00  0.00     0.000 HD 
BRANCH  59  63
HETATM   63  C   UNL     1      -5.497   4.392  64.503  1.00  0.00    -0.013 C  
BRANCH  63  64
HETATM   64  C   UNL     1      -6.914   4.420  63.921  1.00  0.00    -0.045 C  
BRANCH  64  65
HETATM   65  C   UNL     1      -7.502   5.832  63.913  1.00  0.00    -0.069 C  
HETATM   66  N   UNL     1      -8.637   5.893  64.827  1.00  0.00    -0.324 NA 
HETATM   67  H2  UNL     1      -8.392   5.582  65.768  1.00  0.00     0.000 HD 
HETATM   68  H1  UNL     1      -9.029   6.834  64.822  1.00  0.00     0.000 HD 
ENDBRANCH  64  65
ENDBRANCH  63  64
ENDBRANCH  59  63
ENDBRANCH  58  59
ENDBRANCH  57  58
ENDBRANCH  31  54
ENDBRANCH   1  14
TORSDOF 11
ENDMDL
MODEL       14
REMARK 921   NORMALIZED FREE ENERGY PREDICTED BY IDOCK:   -5.21 KCAL/MOL
REMARK 922        TOTAL FREE ENERGY PREDICTED BY IDOCK:  -10.51 KCAL/MOL
REMARK 923 INTER-LIGAND FREE ENERGY PREDICTED BY IDOCK:   -9.13 KCAL/MOL
REMARK 924 INTRA-LIGAND FREE ENERGY PREDICTED BY IDOCK:   -1.38 KCAL/MOL
REMARK 927      BINDING AFFINITY PREDICTED BY RF-SCORE:    0.00 PKD
ROOT
HETATM    1  C   UNL     1      -9.234   5.444  66.916  1.00  0.00    -0.121 C  
HETATM    2  C   UNL     1      -9.416   6.225  65.581  1.00  0.00     0.232 C  
HETATM    3  H1  UNL     1      -6.853   2.648  66.714  1.00  0.00     0.000 HD 
HETATM    4  H   UNL     1      -9.620   3.296  66.976  1.00  0.00     0.000 HD 
HETATM    5  C   UNL     1      -8.349   5.815  64.568  1.00  0.00    -0.091 C  
HETATM    6  H2  UNL     1      -6.321   3.114  65.109  1.00  0.00     0.000 HD 
HETATM    7  N   UNL     1      -8.379   4.385  64.433  1.00  0.00    -0.104 NA 
HETATM    8  O   UNL     1      -8.599   6.397  63.309  1.00  0.00    -0.333 OA 
HETATM    9  N   UNL     1      -9.062   4.032  66.542  1.00  0.00    -0.130 NA 
HETATM   10  N   UNL     1      -7.039   3.128  65.834  1.00  0.00    -0.064 NA 
HETATM   11  H   UNL     1      -8.566   3.903  63.553  1.00  0.00     0.000 HD 
HETATM   12  C   UNL     1      -8.133   3.749  65.598  1.00  0.00    -0.093 C  
HETATM   13  H   UNL     1      -7.935   6.142  62.679  1.00  0.00     0.000 HD 
ENDROOT
BRANCH   1  14
HETATM   14  C   UNL     1      -8.072   5.962  67.830  1.00  0.00    -0.105 C  
HETATM   15  N   UNL     1      -9.690   4.117  71.988  1.00  0.00    -0.158 N  
HETATM   16  O   UNL     1      -8.904   3.409  69.344  1.00  0.00    -0.078 OA 
HETATM   17  C   UNL     1      -8.422   4.396  69.884  1.00  0.00    -0.061 C  
HETATM   18  C   UNL     1      -7.271   4.452  72.035  1.00  0.00    -0.061 C  
HETATM   19  N   UNL     1     -12.158   9.175  70.265  1.00  0.00    -0.446 N  
HETATM   20  H   UNL     1      -7.733   6.293  69.919  1.00  0.00     0.000 HD 
HETATM   21  N   UNL     1      -8.062   5.568  69.281  1.00  0.00    -0.094 N  
HETATM   22  H   UNL     1     -10.151   3.220  71.833  1.00  0.00     0.000 HD 
HETATM   23  C   UNL     1      -8.443   4.392  71.392  1.00  0.00    -0.100 C  
HETATM   24  C   UNL     1     -10.290   5.093  72.799  1.00  0.00    -0.197 C  
HETATM   25  O   UNL     1      -7.032   8.100  68.366  1.00  0.00    -0.069 OA 
HETATM   26  O   UNL     1      -9.825   5.463  73.876  1.00  0.00    -0.153 OA 
HETATM   27  N   UNL     1      -9.216   8.204  67.718  1.00  0.00    -0.134 N  
HETATM   28  CA  UNL     1     -11.526   5.787  72.134  1.00  0.00    -0.235 C  
HETATM   29  N   UNL     1     -12.060   6.985  72.818  1.00  0.00    -0.458 N  
HETATM   30  C   UNL     1      -9.417   9.621  68.036  1.00  0.00    -0.132 C  
HETATM   31  CA  UNL     1     -10.931   9.920  68.224  1.00  0.00    -0.196 C  
HETATM   32  H   UNL     1     -10.000   7.686  67.321  1.00  0.00     0.000 HD 
HETATM   33  H   UNL     1     -11.764   7.253  73.756  1.00  0.00     0.000 HD 
HETATM   34  O   UNL     1     -10.917  11.076  70.366  1.00  0.00    -0.073 OA 
HETATM   35  C   UNL     1     -13.002   7.729  72.091  1.00  0.00    -0.141 C  
HETATM   36  C   UNL     1     -11.291  10.100  69.716  1.00  0.00    -0.256 C  
HETATM   37  H   UNL     1     -12.537   8.450  69.654  1.00  0.00     0.000 HD 
HETATM   38  C   UNL     1      -8.030   7.528  67.923  1.00  0.00    -0.119 C  
HETATM   39  O   UNL     1     -13.949   7.165  71.537  1.00  0.00    -0.382 OA 
HETATM   40  CA  UNL     1     -12.575   9.172  71.698  1.00  0.00    -0.360 C  
BRANCH  18  41
HETATM   41  N   UNL     1      -7.136   4.194  73.377  1.00  0.00    -0.062 N  
HETATM   42  H   UNL     1      -6.988   4.979  74.012  1.00  0.00     0.000 HD 
BRANCH  41  43
HETATM   43  C   UNL     1      -7.192   2.936  73.901  1.00  0.00    -0.042 C  
HETATM   44  H2  UNL     1      -5.096   2.836  73.825  1.00  0.00     0.000 HD 
HETATM   45  N   UNL     1      -5.970   2.368  74.068  1.00  0.00    -0.004 N  
HETATM   46  H1  UNL     1      -6.012   1.428  74.459  1.00  0.00     0.000 HD 
HETATM   47  O   UNL     1      -8.212   2.337  74.220  1.00  0.00    -0.057 OA 
ENDBRANCH  41  43
ENDBRANCH  18  41
BRANCH  28  48
HETATM   48  C   UNL     1     -11.045   6.250  70.745  1.00  0.00    -0.316 C  
HETATM   49  O   UNL     1     -10.010   7.239  70.856  1.00  0.00    -0.185 OA 
HETATM   50  H   UNL     1      -9.713   7.524  70.000  1.00  0.00     0.000 HD 
ENDBRANCH  28  48
BRANCH  40  51
HETATM   51  CB  UNL     1     -13.753  10.128  71.913  1.00  0.00    -0.112 C  
HETATM   52  O   UNL     1     -13.344  11.454  72.252  1.00  0.00    -0.629 OA 
HETATM   53  H   UNL     1     -14.075  12.047  72.385  1.00  0.00     0.000 HD 
ENDBRANCH  40  51
BRANCH  31  54
HETATM   54  N   UNL     1     -11.358  11.110  67.478  1.00  0.00    -0.300 N  
HETATM   55  H   UNL     1     -11.910  11.825  67.952  1.00  0.00     0.000 HD 
HETATM   56  O   UNL     1     -10.338  10.458  65.547  1.00  0.00    -0.264 OA 
HETATM   57  C   UNL     1     -11.026  11.280  66.150  1.00  0.00    -0.191 C  
BRANCH  57  58
HETATM   58  C   UNL     1     -11.569  12.563  65.529  1.00  0.00    -0.429 C  
BRANCH  58  59
HETATM   59  C   UNL     1     -11.226  13.842  66.323  1.00  0.00    -0.306 C  
HETATM   60  H1  UNL     1     -11.911  14.839  67.991  1.00  0.00     0.000 HD 
HETATM   61  N   UNL     1     -12.138  13.994  67.467  1.00  0.00    -0.505 NA 
HETATM   62  H2  UNL     1     -12.142  13.166  68.063  1.00  0.00     0.000 HD 
BRANCH  59  63
HETATM   63  C   UNL     1      -9.785  13.839  66.886  1.00  0.00    -0.265 C  
BRANCH  63  64
HETATM   64  C   UNL     1      -9.248  15.239  67.207  1.00  0.00    -0.209 C  
BRANCH  64  65
HETATM   65  C   UNL     1      -8.878  15.385  68.683  1.00  0.00    -0.186 C  
HETATM   66  N   UNL     1      -9.469  14.289  69.444  1.00  0.00    -0.359 NA 
HETATM   67  H2  UNL     1      -9.209  13.376  69.071  1.00  0.00     0.000 HD 
HETATM   68  H1  UNL     1      -9.222  14.386  70.429  1.00  0.00     0.000 HD 
ENDBRANCH  64  65
ENDBRANCH  63  64
ENDBRANCH  59  63
ENDBRANCH  58  59
ENDBRANCH  57  58
ENDBRANCH  31  54
ENDBRANCH   1  14
TORSDOF 11
ENDMDL
MODEL       15
REMARK 921   NORMALIZED FREE ENERGY PREDICTED BY IDOCK:   -5.01 KCAL/MOL
REMARK 922        TOTAL FREE ENERGY PREDICTED BY IDOCK:  -10.20 KCAL/MOL
REMARK 923 INTER-LIGAND FREE ENERGY PREDICTED BY IDOCK:  -10.31 KCAL/MOL
REMARK 924 INTRA-LIGAND FREE ENERGY PREDICTED BY IDOCK:    0.12 KCAL/MOL
REMARK 927      BINDING AFFINITY PREDICTED BY RF-SCORE:    0.00 PKD
ROOT
HETATM    1  C   UNL     1      -7.947   6.316  70.934  1.00  0.00    -0.112 C  
HETATM    2  C   UNL     1      -8.324   7.149  72.195  1.00  0.00    -0.109 C  
HETATM    3  H1  UNL     1      -7.320   2.756  71.614  1.00  0.00     0.000 HD 
HETATM    4  H   UNL     1      -6.063   5.213  70.889  1.00  0.00     0.000 HD 
HETATM    5  C   UNL     1      -8.617   6.231  73.379  1.00  0.00    -0.122 C  
HETATM    6  H2  UNL     1      -7.894   2.889  73.265  1.00  0.00     0.000 HD 
HETATM    7  N   UNL     1      -7.494   5.352  73.558  1.00  0.00    -0.094 NA 
HETATM    8  O   UNL     1      -8.804   6.976  74.561  1.00  0.00    -0.190 OA 
HETATM    9  N   UNL     1      -6.950   5.331  71.381  1.00  0.00    -0.052 NA 
HETATM   10  N   UNL     1      -7.500   3.333  72.435  1.00  0.00    -0.055 NA 
HETATM   11  H   UNL     1      -6.939   5.309  74.412  1.00  0.00     0.000 HD 
HETATM   12  C   UNL     1      -7.255   4.588  72.471  1.00  0.00    -0.080 C  
HETATM   13  H   UNL     1      -8.986   6.405  75.297  1.00  0.00     0.000 HD 
ENDROOT
BRANCH   1  14
HETATM   14  C   UNL     1      -9.157   5.645  70.201  1.00  0.00    -0.138 C  
HETATM   15  N   UNL     1      -7.345   5.826  65.729  1.00  0.00    -0.075 N  
HETATM   16  O   UNL     1      -6.833   4.828  68.347  1.00  0.00    -0.052 OA 
HETATM   17  C   UNL     1      -7.985   4.990  67.966  1.00  0.00    -0.090 C  
HETATM   18  C   UNL     1      -8.994   4.039  65.958  1.00  0.00    -0.129 C  
HETATM   19  N   UNL     1      -9.803  10.786  67.730  1.00  0.00    -0.164 N  
HETATM   20  H   UNL     1      -9.920   5.516  68.204  1.00  0.00     0.000 HD 
HETATM   21  N   UNL     1      -9.053   5.381  68.724  1.00  0.00    -0.116 N  
HETATM   22  H   UNL     1      -6.334   5.690  65.741  1.00  0.00     0.000 HD 
HETATM   23  C   UNL     1      -8.188   4.976  66.472  1.00  0.00    -0.108 C  
HETATM   24  C   UNL     1      -7.915   6.862  64.972  1.00  0.00    -0.125 C  
HETATM   25  O   UNL     1     -11.558   6.011  70.003  1.00  0.00    -0.317 OA 
HETATM   26  O   UNL     1      -8.634   6.672  63.993  1.00  0.00     0.204 OA 
HETATM   27  N   UNL     1     -10.312   7.871  70.438  1.00  0.00    -0.209 N  
HETATM   28  CA  UNL     1      -7.681   8.285  65.582  1.00  0.00    -0.092 C  
HETATM   29  N   UNL     1      -8.451   9.397  64.980  1.00  0.00    -0.148 N  
HETATM   30  C   UNL     1     -11.394   8.843  70.255  1.00  0.00    -0.159 C  
HETATM   31  CA  UNL     1     -10.807  10.250  69.951  1.00  0.00    -0.302 C  
HETATM   32  H   UNL     1      -9.391   8.223  70.698  1.00  0.00     0.000 HD 
HETATM   33  H   UNL     1      -8.972   9.290  64.110  1.00  0.00     0.000 HD 
HETATM   34  O   UNL     1     -12.063  10.859  67.958  1.00  0.00    -0.563 OA 
HETATM   35  C   UNL     1      -8.415  10.609  65.686  1.00  0.00    -0.178 C  
HETATM   36  C   UNL     1     -10.965  10.619  68.459  1.00  0.00    -0.248 C  
HETATM   37  H   UNL     1      -8.912  10.691  68.220  1.00  0.00     0.000 HD 
HETATM   38  C   UNL     1     -10.465   6.508  70.280  1.00  0.00    -0.216 C  
HETATM   39  O   UNL     1      -7.342  11.071  66.080  1.00  0.00    -0.118 OA 
HETATM   40  CA  UNL     1      -9.772  11.096  66.272  1.00  0.00    -0.211 C  
BRANCH  18  41
HETATM   41  N   UNL     1      -9.054   3.753  64.616  1.00  0.00    -0.130 N  
HETATM   42  H   UNL     1      -8.188   3.530  64.126  1.00  0.00     0.000 HD 
BRANCH  41  43
HETATM   43  C   UNL     1     -10.220   3.753  63.909  1.00  0.00    -0.221 C  
HETATM   44  H2  UNL     1     -11.288   3.877  65.712  1.00  0.00     0.000 HD 
HETATM   45  N   UNL     1     -11.325   3.827  64.694  1.00  0.00    -0.115 N  
HETATM   46  H1  UNL     1     -12.197   3.827  64.165  1.00  0.00     0.000 HD 
HETATM   47  O   UNL     1     -10.318   3.708  62.688  1.00  0.00    -0.158 OA 
ENDBRANCH  41  43
ENDBRANCH  18  41
BRANCH  28  48
HETATM   48  C   UNL     1      -8.129   8.185  67.053  1.00  0.00    -0.108 C  
HETATM   49  O   UNL     1      -7.264   8.941  67.913  1.00  0.00    -0.081 OA 
HETATM   50  H   UNL     1      -7.541   8.879  68.820  1.00  0.00     0.000 HD 
ENDBRANCH  28  48
BRANCH  40  51
HETATM   51  CB  UNL     1      -9.912  12.605  66.045  1.00  0.00    -0.258 C  
HETATM   52  O   UNL     1      -9.981  12.960  64.663  1.00  0.00    -0.523 OA 
HETATM   53  H   UNL     1     -10.068  13.896  64.522  1.00  0.00     0.000 HD 
ENDBRANCH  40  51
BRANCH  31  54
HETATM   54  N   UNL     1     -11.423  11.297  70.774  1.00  0.00    -0.269 N  
HETATM   55  H   UNL     1     -10.889  12.137  70.997  1.00  0.00     0.000 HD 
HETATM   56  O   UNL     1     -13.403  10.188  70.984  1.00  0.00    -0.387 OA 
HETATM   57  C   UNL     1     -12.712  11.168  71.251  1.00  0.00    -0.426 C  
BRANCH  57  58
HETATM   58  C   UNL     1     -13.182  12.342  72.105  1.00  0.00    -0.491 C  
BRANCH  58  59
HETATM   59  C   UNL     1     -13.340  13.665  71.326  1.00  0.00    -0.189 C  
HETATM   60  H1  UNL     1     -14.506  15.362  71.409  1.00  0.00     0.000 HD 
HETATM   61  N   UNL     1     -14.402  14.488  71.924  1.00  0.00    -0.530 NA 
HETATM   62  H2  UNL     1     -14.244  14.648  72.919  1.00  0.00     0.000 HD 
BRANCH  59  63
HETATM   63  C   UNL     1     -12.051  14.522  71.317  1.00  0.00    -0.419 C  
BRANCH  63  64
HETATM   64  C   UNL     1     -11.587  14.948  72.714  1.00  0.00    -0.176 C  
BRANCH  64  65
HETATM   65  C   UNL     1     -12.154  16.312  73.113  1.00  0.00    -0.509 C  
HETATM   66  N   UNL     1     -12.961  16.169  74.320  1.00  0.00    -0.953 NA 
HETATM   67  H2  UNL     1     -12.442  15.729  75.081  1.00  0.00     0.000 HD 
HETATM   68  H1  UNL     1     -13.338  17.078  74.587  1.00  0.00     0.000 HD 
ENDBRANCH  64  65
ENDBRANCH  63  64
ENDBRANCH  59  63
ENDBRANCH  58  59
ENDBRANCH  57  58
ENDBRANCH  31  54
ENDBRANCH   1  14
TORSDOF 11
ENDMDL
MODEL       16
REMARK 921   NORMALIZED FREE ENERGY PREDICTED BY IDOCK:   -4.58 KCAL/MOL
REMARK 922        TOTAL FREE ENERGY PREDICTED BY IDOCK:   -9.48 KCAL/MOL
REMARK 923 INTER-LIGAND FREE ENERGY PREDICTED BY IDOCK:   -8.05 KCAL/MOL
REMARK 924 INTRA-LIGAND FREE ENERGY PREDICTED BY IDOCK:   -1.43 KCAL/MOL
REMARK 927      BINDING AFFINITY PREDICTED BY RF-SCORE:    0.00 PKD
ROOT
HETATM    1  C   UNL     1      -8.522   6.508  69.723  1.00  0.00    -0.131 C  
HETATM    2  C   UNL     1      -8.974   7.770  70.517  1.00  0.00    -0.150 C  
HETATM    3  H1  UNL     1      -9.028   3.338  71.518  1.00  0.00     0.000 HD 
HETATM    4  H   UNL     1      -7.038   5.159  70.586  1.00  0.00     0.000 HD 
HETATM    5  C   UNL     1      -9.780   7.370  71.751  1.00  0.00    -0.153 C  
HETATM    6  H2  UNL     1      -9.941   4.116  72.797  1.00  0.00     0.000 HD 
HETATM    7  N   UNL     1      -9.004   6.430  72.512  1.00  0.00    -0.137 NA 
HETATM    8  O   UNL     1     -10.057   8.491  72.558  1.00  0.00    -0.298 OA 
HETATM    9  N   UNL     1      -7.957   5.582  70.717  1.00  0.00    -0.108 NA 
HETATM   10  N   UNL     1      -9.252   4.180  72.047  1.00  0.00    -0.120 NA 
HETATM   11  H   UNL     1      -8.710   6.588  73.476  1.00  0.00     0.000 HD 
HETATM   12  C   UNL     1      -8.707   5.314  71.812  1.00  0.00    -0.134 C  
HETATM   13  H   UNL     1     -10.559   8.242  73.325  1.00  0.00     0.000 HD 
ENDROOT
BRANCH   1  14
HETATM   14  C   UNL     1      -9.642   5.839  68.857  1.00  0.00    -0.131 C  
HETATM   15  N   UNL     1      -6.744   3.789  65.583  1.00  0.00    -0.047 N  
HETATM   16  O   UNL     1      -7.298   3.895  68.375  1.00  0.00    -0.054 OA 
HETATM   17  C   UNL     1      -8.191   4.101  67.563  1.00  0.00    -0.098 C  
HETATM   18  C   UNL     1      -8.878   2.613  65.755  1.00  0.00    -0.134 C  
HETATM   19  N   UNL     1      -7.917   9.502  64.788  1.00  0.00    -0.116 N  
HETATM   20  H   UNL     1      -9.844   5.039  66.880  1.00  0.00     0.000 HD 
HETATM   21  N   UNL     1      -9.238   4.969  67.698  1.00  0.00    -0.117 N  
HETATM   22  H   UNL     1      -5.872   3.479  66.013  1.00  0.00     0.000 HD 
HETATM   23  C   UNL     1      -7.982   3.505  66.194  1.00  0.00    -0.092 C  
HETATM   24  C   UNL     1      -6.727   4.503  64.374  1.00  0.00    -0.044 C  
HETATM   25  O   UNL     1     -11.653   6.543  67.674  1.00  0.00     0.035 OA 
HETATM   26  O   UNL     1      -7.180   4.065  63.319  1.00  0.00    -0.047 OA 
HETATM   27  N   UNL     1     -10.039   8.137  67.906  1.00  0.00    -0.186 N  
HETATM   28  CA  UNL     1      -6.220   5.977  64.525  1.00  0.00    -0.030 C  
HETATM   29  N   UNL     1      -6.401   6.863  63.353  1.00  0.00    -0.042 N  
HETATM   30  C   UNL     1     -10.661   9.133  67.028  1.00  0.00    -0.195 C  
HETATM   31  CA  UNL     1      -9.594  10.144  66.520  1.00  0.00    -0.187 C  
HETATM   32  H   UNL     1      -9.158   8.381  68.358  1.00  0.00     0.000 HD 
HETATM   33  H   UNL     1      -6.677   6.505  62.439  1.00  0.00     0.000 HD 
HETATM   34  O   UNL     1     -10.007  10.096  64.123  1.00  0.00    -0.278 OA 
HETATM   35  C   UNL     1      -6.168   8.227  63.583  1.00  0.00    -0.072 C  
HETATM   36  C   UNL     1      -9.221   9.880  65.044  1.00  0.00    -0.240 C  
HETATM   37  H   UNL     1      -7.269   9.451  65.574  1.00  0.00     0.000 HD 
HETATM   38  C   UNL     1     -10.574   6.890  68.158  1.00  0.00    -0.216 C  
HETATM   39  O   UNL     1      -5.149   8.595  64.173  1.00  0.00    -0.046 OA 
HETATM   40  CA  UNL     1      -7.400   9.164  63.430  1.00  0.00    -0.096 C  
BRANCH  18  41
HETATM   41  N   UNL     1      -8.667   1.812  64.660  1.00  0.00    -0.095 N  
HETATM   42  H   UNL     1      -7.867   1.179  64.667  1.00  0.00     0.000 HD 
BRANCH  41  43
HETATM   43  C   UNL     1      -9.478   1.823  63.565  1.00  0.00    -0.102 C  
HETATM   44  H2  UNL     1     -11.073   2.446  64.780  1.00  0.00     0.000 HD 
HETATM   45  N   UNL     1     -10.753   2.198  63.843  1.00  0.00    -0.415 N  
HETATM   46  H1  UNL     1     -11.360   2.206  63.024  1.00  0.00     0.000 HD 
HETATM   47  O   UNL     1      -9.140   1.546  62.419  1.00  0.00    -0.071 OA 
ENDBRANCH  41  43
ENDBRANCH  18  41
BRANCH  28  48
HETATM   48  C   UNL     1      -7.052   6.587  65.671  1.00  0.00    -0.061 C  
HETATM   49  O   UNL     1      -6.297   6.644  66.890  1.00  0.00    -0.038 OA 
HETATM   50  H   UNL     1      -6.809   7.020  67.596  1.00  0.00     0.000 HD 
ENDBRANCH  28  48
BRANCH  40  51
HETATM   51  CB  UNL     1      -6.981  10.438  62.687  1.00  0.00    -0.125 C  
HETATM   52  O   UNL     1      -5.570  10.659  62.705  1.00  0.00    -0.136 OA 
HETATM   53  H   UNL     1      -5.311  11.449  62.244  1.00  0.00     0.000 HD 
ENDBRANCH  40  51
BRANCH  31  54
HETATM   54  N   UNL     1     -10.037  11.536  66.664  1.00  0.00    -0.206 N  
HETATM   55  H   UNL     1     -11.032  11.752  66.608  1.00  0.00     0.000 HD 
HETATM   56  O   UNL     1      -7.928  12.340  66.980  1.00  0.00    -0.169 OA 
HETATM   57  C   UNL     1      -9.134  12.557  66.876  1.00  0.00    -0.213 C  
BRANCH  57  58
HETATM   58  C   UNL     1      -9.768  13.940  66.982  1.00  0.00    -0.250 C  
BRANCH  58  59
HETATM   59  C   UNL     1     -11.255  13.922  67.396  1.00  0.00    -0.312 C  
HETATM   60  H1  UNL     1     -12.508  14.971  68.651  1.00  0.00     0.000 HD 
HETATM   61  N   UNL     1     -11.525  14.983  68.378  1.00  0.00    -0.310 NA 
HETATM   62  H2  UNL     1     -11.236  15.900  68.036  1.00  0.00     0.000 HD 
BRANCH  59  63
HETATM   63  C   UNL     1     -12.220  14.146  66.207  1.00  0.00    -0.474 C  
BRANCH  63  64
HETATM   64  C   UNL     1     -11.549  14.003  64.837  1.00  0.00    -0.369 C  
BRANCH  64  65
HETATM   65  C   UNL     1     -12.362  13.116  63.892  1.00  0.00    -0.365 C  
HETATM   66  N   UNL     1     -11.461  12.436  62.967  1.00  0.00    -0.674 NA 
HETATM   67  H2  UNL     1     -10.732  11.914  63.453  1.00  0.00     0.000 HD 
HETATM   68  H1  UNL     1     -12.003  11.845  62.337  1.00  0.00     0.000 HD 
ENDBRANCH  64  65
ENDBRANCH  63  64
ENDBRANCH  59  63
ENDBRANCH  58  59
ENDBRANCH  57  58
ENDBRANCH  31  54
ENDBRANCH   1  14
TORSDOF 11
ENDMDL
MODEL       17
REMARK 921   NORMALIZED FREE ENERGY PREDICTED BY IDOCK:   -4.57 KCAL/MOL
REMARK 922        TOTAL FREE ENERGY PREDICTED BY IDOCK:   -9.46 KCAL/MOL
REMARK 923 INTER-LIGAND FREE ENERGY PREDICTED BY IDOCK:   -7.82 KCAL/MOL
REMARK 924 INTRA-LIGAND FREE ENERGY PREDICTED BY IDOCK:   -1.64 KCAL/MOL
REMARK 927      BINDING AFFINITY PREDICTED BY RF-SCORE:    0.00 PKD
ROOT
HETATM    1  C   UNL     1     -11.424   8.279  70.091  1.00  0.00     0.010 C  
HETATM    2  C   UNL     1     -11.044   6.832  70.524  1.00  0.00    -0.346 C  
HETATM    3  H1  UNL     1     -13.638  10.027  72.452  1.00  0.00     0.000 HD 
HETATM    4  H   UNL     1     -13.526   8.825  69.865  1.00  0.00     0.000 HD 
HETATM    5  C   UNL     1     -11.460   6.577  71.971  1.00  0.00    -0.300 C  
HETATM    6  H2  UNL     1     -13.475   8.766  73.659  1.00  0.00     0.000 HD 
HETATM    7  N   UNL     1     -12.855   6.894  72.104  1.00  0.00    -0.549 NA 
HETATM    8  O   UNL     1     -11.264   5.226  72.322  1.00  0.00    -0.204 OA 
HETATM    9  N   UNL     1     -12.818   8.478  70.514  1.00  0.00     0.503 NA 
HETATM   10  N   UNL     1     -13.433   9.055  72.682  1.00  0.00    -0.429 NA 
HETATM   11  H   UNL     1     -13.563   6.220  72.396  1.00  0.00     0.000 HD 
HETATM   12  C   UNL     1     -13.126   8.181  71.799  1.00  0.00    -0.345 C  
HETATM   13  H   UNL     1     -11.522   5.068  73.222  1.00  0.00     0.000 HD 
ENDROOT
BRANCH   1  14
HETATM   14  C   UNL     1     -10.474   9.400  70.631  1.00  0.00    -0.290 C  
HETATM   15  N   UNL     1     -11.205  12.591  67.082  1.00  0.00    -0.283 N  
HETATM   16  O   UNL     1     -12.546  11.089  69.096  1.00  0.00    -0.378 OA 
HETATM   17  C   UNL     1     -11.378  11.419  69.252  1.00  0.00    -0.289 C  
HETATM   18  C   UNL     1     -10.487  13.688  69.142  1.00  0.00     0.010 C  
HETATM   19  N   UNL     1      -7.374   8.273  65.934  1.00  0.00    -0.075 N  
HETATM   20  H   UNL     1      -9.474  11.131  69.861  1.00  0.00     0.000 HD 
HETATM   21  N   UNL     1     -10.402  10.707  69.891  1.00  0.00    -0.121 N  
HETATM   22  H   UNL     1     -12.169  12.550  66.749  1.00  0.00     0.000 HD 
HETATM   23  C   UNL     1     -10.927  12.623  68.463  1.00  0.00    -0.261 C  
HETATM   24  C   UNL     1     -10.138  12.617  66.169  1.00  0.00    -0.257 C  
HETATM   25  O   UNL     1      -8.137   9.603  71.290  1.00  0.00    -0.211 OA 
HETATM   26  O   UNL     1      -9.390  13.582  66.025  1.00  0.00    -0.147 OA 
HETATM   27  N   UNL     1      -8.586   7.986  69.746  1.00  0.00    -0.130 N  
HETATM   28  CA  UNL     1      -9.887  11.244  65.460  1.00  0.00    -0.231 C  
HETATM   29  N   UNL     1      -8.639  11.124  64.673  1.00  0.00    -0.371 N  
HETATM   30  C   UNL     1      -7.191   7.658  69.437  1.00  0.00    -0.081 C  
HETATM   31  CA  UNL     1      -7.096   6.972  68.045  1.00  0.00    -0.086 C  
HETATM   32  H   UNL     1      -9.319   7.464  69.266  1.00  0.00     0.000 HD 
HETATM   33  H   UNL     1      -8.056  11.930  64.453  1.00  0.00     0.000 HD 
HETATM   34  O   UNL     1      -5.358   8.305  66.984  1.00  0.00    -0.034 OA 
HETATM   35  C   UNL     1      -8.313   9.827  64.249  1.00  0.00    -0.167 C  
HETATM   36  C   UNL     1      -6.532   7.935  66.976  1.00  0.00    -0.056 C  
HETATM   37  H   UNL     1      -8.300   7.846  65.907  1.00  0.00     0.000 HD 
HETATM   38  C   UNL     1      -8.968   8.959  70.648  1.00  0.00    -0.199 C  
HETATM   39  O   UNL     1      -9.163   9.115  63.709  1.00  0.00     0.030 OA 
HETATM   40  CA  UNL     1      -7.009   9.224  64.844  1.00  0.00    -0.090 C  
BRANCH  18  41
HETATM   41  N   UNL     1     -10.301  14.922  68.567  1.00  0.00    -0.231 N  
HETATM   42  H   UNL     1      -9.542  15.037  67.896  1.00  0.00     0.000 HD 
BRANCH  41  43
HETATM   43  C   UNL     1     -11.085  16.000  68.853  1.00  0.00    -0.331 C  
HETATM   44  H2  UNL     1     -12.768  14.745  68.865  1.00  0.00     0.000 HD 
HETATM   45  N   UNL     1     -12.401  15.691  68.976  1.00  0.00    -0.578 N  
HETATM   46  H1  UNL     1     -12.988  16.497  69.190  1.00  0.00     0.000 HD 
HETATM   47  O   UNL     1     -10.693  17.151  69.008  1.00  0.00    -0.309 OA 
ENDBRANCH  41  43
ENDBRANCH  18  41
BRANCH  28  48
HETATM   48  C   UNL     1      -9.796  10.202  66.592  1.00  0.00    -0.200 C  
HETATM   49  O   UNL     1     -10.503   9.000  66.252  1.00  0.00    -0.216 OA 
HETATM   50  H   UNL     1     -10.447   8.358  66.950  1.00  0.00     0.000 HD 
ENDBRANCH  28  48
BRANCH  40  51
HETATM   51  CB  UNL     1      -6.234   8.496  63.739  1.00  0.00    -0.072 C  
HETATM   52  O   UNL     1      -6.414   9.083  62.449  1.00  0.00    -0.096 OA 
HETATM   53  H   UNL     1      -5.934   8.632  61.764  1.00  0.00     0.000 HD 
ENDBRANCH  40  51
BRANCH  31  54
HETATM   54  N   UNL     1      -6.273   5.757  68.082  1.00  0.00    -0.037 N  
HETATM   55  H   UNL     1      -5.449   5.730  68.682  1.00  0.00     0.000 HD 
HETATM   56  O   UNL     1      -7.592   4.629  66.605  1.00  0.00    -0.085 OA 
HETATM   57  C   UNL     1      -6.593   4.652  67.320  1.00  0.00    -0.047 C  
BRANCH  57  58
HETATM   58  C   UNL     1      -5.618   3.488  67.468  1.00  0.00    -0.021 C  
BRANCH  58  59
HETATM   59  C   UNL     1      -6.211   2.254  68.181  1.00  0.00    -0.025 C  
HETATM   60  H1  UNL     1      -5.537   0.666  69.308  1.00  0.00     0.000 HD 
HETATM   61  N   UNL     1      -5.145   1.481  68.837  1.00  0.00    -0.007 NA 
HETATM   62  H2  UNL     1      -4.593   2.058  69.471  1.00  0.00     0.000 HD 
BRANCH  59  63
HETATM   63  C   UNL     1      -7.245   2.621  69.271  1.00  0.00    -0.044 C  
BRANCH  63  64
HETATM   64  C   UNL     1      -8.635   2.026  69.024  1.00  0.00    -0.102 C  
BRANCH  64  65
HETATM   65  C   UNL     1      -9.742   2.884  69.638  1.00  0.00     0.130 C  
HETATM   66  N   UNL     1      -9.432   4.295  69.438  1.00  0.00    -0.171 NA 
HETATM   67  H2  UNL     1      -9.270   4.520  68.456  1.00  0.00     0.000 HD 
HETATM   68  H1  UNL     1     -10.170   4.868  69.848  1.00  0.00     0.000 HD 
ENDBRANCH  64  65
ENDBRANCH  63  64
ENDBRANCH  59  63
ENDBRANCH  58  59
ENDBRANCH  57  58
ENDBRANCH  31  54
ENDBRANCH   1  14
TORSDOF 11
ENDMDL
MODEL       18
REMARK 921   NORMALIZED FREE ENERGY PREDICTED BY IDOCK:   -4.21 KCAL/MOL
REMARK 922        TOTAL FREE ENERGY PREDICTED BY IDOCK:   -8.88 KCAL/MOL
REMARK 923 INTER-LIGAND FREE ENERGY PREDICTED BY IDOCK:   -9.13 KCAL/MOL
REMARK 924 INTRA-LIGAND FREE ENERGY PREDICTED BY IDOCK:    0.25 KCAL/MOL
REMARK 927      BINDING AFFINITY PREDICTED BY RF-SCORE:    0.00 PKD
ROOT
HETATM    1  C   UNL     1      -6.107   9.604  68.742  1.00  0.00    -0.042 C  
HETATM    2  C   UNL     1      -6.622  11.050  68.477  1.00  0.00    -0.059 C  
HETATM    3  H1  UNL     1      -5.738   8.768  72.305  1.00  0.00     0.000 HD 
HETATM    4  H   UNL     1      -4.285   9.301  69.907  1.00  0.00     0.000 HD 
HETATM    5  C   UNL     1      -7.119  11.691  69.770  1.00  0.00     0.238 C  
HETATM    6  H2  UNL     1      -6.534  10.245  72.815  1.00  0.00     0.000 HD 
HETATM    7  N   UNL     1      -6.073  11.600  70.751  1.00  0.00    -0.506 NA 
HETATM    8  O   UNL     1      -7.439  13.049  69.570  1.00  0.00    -0.264 OA 
HETATM    9  N   UNL     1      -5.227   9.696  69.917  1.00  0.00    -0.033 NA 
HETATM   10  N   UNL     1      -6.008   9.731  72.108  1.00  0.00    -0.293 NA 
HETATM   11  H   UNL     1      -5.646  12.411  71.200  1.00  0.00     0.000 HD 
HETATM   12  C   UNL     1      -5.716  10.325  71.012  1.00  0.00    -0.068 C  
HETATM   13  H   UNL     1      -7.749  13.447  70.375  1.00  0.00     0.000 HD 
ENDROOT
BRANCH   1  14
HETATM   14  C   UNL     1      -7.229   8.527  68.923  1.00  0.00    -0.078 C  
HETATM   15  N   UNL     1      -7.062   6.708  64.454  1.00  0.00    -0.054 N  
HETATM   16  O   UNL     1      -5.478   7.182  66.773  1.00  0.00    -0.021 OA 
HETATM   17  C   UNL     1      -6.684   7.004  66.879  1.00  0.00    -0.056 C  
HETATM   18  C   UNL     1      -7.944   5.085  66.052  1.00  0.00    -0.107 C  
HETATM   19  N   UNL     1     -10.120  11.694  65.107  1.00  0.00    -0.252 N  
HETATM   20  H   UNL     1      -8.509   7.353  67.670  1.00  0.00     0.000 HD 
HETATM   21  N   UNL     1      -7.523   7.590  67.785  1.00  0.00    -0.098 N  
HETATM   22  H   UNL     1      -6.107   6.712  64.095  1.00  0.00     0.000 HD 
HETATM   23  C   UNL     1      -7.335   6.239  65.754  1.00  0.00    -0.080 C  
HETATM   24  C   UNL     1      -8.123   7.169  63.658  1.00  0.00     0.002 C  
HETATM   25  O   UNL     1      -9.564   8.473  69.619  1.00  0.00    -0.167 OA 
HETATM   26  O   UNL     1      -9.023   6.444  63.239  1.00  0.00     0.580 OA 
HETATM   27  N   UNL     1      -8.857  10.437  68.701  1.00  0.00    -0.134 N  
HETATM   28  CA  UNL     1      -8.143   8.724  63.482  1.00  0.00    -0.170 C  
HETATM   29  N   UNL     1      -9.357   9.305  62.865  1.00  0.00    -0.498 N  
HETATM   30  C   UNL     1     -10.179  11.065  68.612  1.00  0.00    -0.199 C  
HETATM   31  CA  UNL     1     -10.165  12.201  67.550  1.00  0.00    -0.199 C  
HETATM   32  H   UNL     1      -8.050  10.974  68.384  1.00  0.00     0.000 HD 
HETATM   33  H   UNL     1     -10.069   8.728  62.418  1.00  0.00     0.000 HD 
HETATM   34  O   UNL     1     -12.107  11.611  66.208  1.00  0.00    -0.333 OA 
HETATM   35  C   UNL     1      -9.463  10.702  62.935  1.00  0.00    -0.343 C  
HETATM   36  C   UNL     1     -10.887  11.773  66.254  1.00  0.00    -0.281 C  
HETATM   37  H   UNL     1      -9.135  11.954  65.171  1.00  0.00     0.000 HD 
HETATM   38  C   UNL     1      -8.640   9.163  69.187  1.00  0.00    -0.133 C  
HETATM   39  O   UNL     1      -8.509  11.417  62.620  1.00  0.00    -0.126 OA 
HETATM   40  CA  UNL     1     -10.645  11.254  63.782  1.00  0.00    -0.392 C  
BRANCH  18  41
HETATM   41  N   UNL     1      -8.337   4.175  65.101  1.00  0.00    -0.108 N  
HETATM   42  H   UNL     1      -7.695   3.959  64.339  1.00  0.00     0.000 HD 
BRANCH  41  43
HETATM   43  C   UNL     1      -9.547   3.547  65.130  1.00  0.00    -0.151 C  
HETATM   44  H2  UNL     1     -10.490   5.398  64.827  1.00  0.00     0.000 HD 
HETATM   45  N   UNL     1     -10.596   4.392  64.962  1.00  0.00    -0.574 N  
HETATM   46  H1  UNL     1     -11.501   3.922  64.983  1.00  0.00     0.000 HD 
HETATM   47  O   UNL     1      -9.727   2.343  65.275  1.00  0.00     0.052 OA 
ENDBRANCH  41  43
ENDBRANCH  18  41
BRANCH  28  48
HETATM   48  C   UNL     1      -8.053   9.305  64.907  1.00  0.00    -0.130 C  
HETATM   49  O   UNL     1      -7.167  10.434  64.954  1.00  0.00    -0.239 OA 
HETATM   50  H   UNL     1      -7.111  10.792  65.832  1.00  0.00     0.000 HD 
ENDBRANCH  28  48
BRANCH  40  51
HETATM   51  CB  UNL     1     -11.292  12.433  63.047  1.00  0.00     0.093 C  
HETATM   52  O   UNL     1     -12.719  12.407  63.092  1.00  0.00    -0.735 OA 
HETATM   53  H   UNL     1     -13.120  13.138  62.636  1.00  0.00     0.000 HD 
ENDBRANCH  40  51
BRANCH  31  54
HETATM   54  N   UNL     1     -10.772  13.438  68.055  1.00  0.00    -0.242 N  
HETATM   55  H   UNL     1     -11.361  13.403  68.887  1.00  0.00     0.000 HD 
HETATM   56  O   UNL     1      -9.835  14.743  66.438  1.00  0.00    -0.254 OA 
HETATM   57  C   UNL     1     -10.560  14.648  67.426  1.00  0.00    -0.265 C  
BRANCH  57  58
HETATM   58  C   UNL     1     -11.284  15.824  68.075  1.00  0.00    -0.338 C  
BRANCH  58  59
HETATM   59  C   UNL     1     -10.385  16.700  68.973  1.00  0.00    -0.317 C  
HETATM   60  H1  UNL     1      -8.465  16.661  69.721  1.00  0.00     0.000 HD 
HETATM   61  N   UNL     1      -9.059  16.082  69.128  1.00  0.00    -0.242 NA 
HETATM   62  H2  UNL     1      -8.622  15.888  68.226  1.00  0.00     0.000 HD 
BRANCH  59  63
HETATM   63  C   UNL     1     -10.161  18.122  68.407  1.00  0.00    -0.401 C  
BRANCH  63  64
HETATM   64  C   UNL     1      -9.442  18.139  67.054  1.00  0.00    -0.274 C  
BRANCH  64  65
HETATM   65  C   UNL     1      -8.674  19.443  66.831  1.00  0.00    -0.303 C  
HETATM   66  N   UNL     1      -9.555  20.577  67.089  1.00  0.00    -0.544 NA 
HETATM   67  H2  UNL     1      -9.978  20.533  68.017  1.00  0.00     0.000 HD 
HETATM   68  H1  UNL     1      -9.043  21.446  66.941  1.00  0.00     0.000 HD 
ENDBRANCH  64  65
ENDBRANCH  63  64
ENDBRANCH  59  63
ENDBRANCH  58  59
ENDBRANCH  57  58
ENDBRANCH  31  54
ENDBRANCH   1  14
TORSDOF 11
ENDMDL
MODEL       19
REMARK 921   NORMALIZED FREE ENERGY PREDICTED BY IDOCK:   -4.20 KCAL/MOL
REMARK 922        TOTAL FREE ENERGY PREDICTED BY IDOCK:   -8.86 KCAL/MOL
REMARK 923 INTER-LIGAND FREE ENERGY PREDICTED BY IDOCK:   -7.41 KCAL/MOL
REMARK 924 INTRA-LIGAND FREE ENERGY PREDICTED BY IDOCK:   -1.45 KCAL/MOL
REMARK 927      BINDING AFFINITY PREDICTED BY RF-SCORE:    0.00 PKD
ROOT
HETATM    1  C   UNL     1      -8.189   6.695  69.556  1.00  0.00    -0.130 C  
HETATM    2  C   UNL     1      -8.639   7.860  70.487  1.00  0.00    -0.131 C  
HETATM    3  H1  UNL     1      -8.284   3.377  71.141  1.00  0.00     0.000 HD 
HETATM    4  H   UNL     1      -6.533   5.405  70.157  1.00  0.00     0.000 HD 
HETATM    5  C   UNL     1      -9.280   7.315  71.761  1.00  0.00    -0.142 C  
HETATM    6  H2  UNL     1      -9.107   3.993  72.562  1.00  0.00     0.000 HD 
HETATM    7  N   UNL     1      -8.366   6.385  72.365  1.00  0.00    -0.107 NA 
HETATM    8  O   UNL     1      -9.546   8.352  72.676  1.00  0.00    -0.277 OA 
HETATM    9  N   UNL     1      -7.461   5.747  70.413  1.00  0.00    -0.086 NA 
HETATM   10  N   UNL     1      -8.508   4.161  71.754  1.00  0.00    -0.101 NA 
HETATM   11  H   UNL     1      -7.983   6.497  73.304  1.00  0.00     0.000 HD 
HETATM   12  C   UNL     1      -8.070   5.347  71.554  1.00  0.00    -0.117 C  
HETATM   13  H   UNL     1      -9.946   8.013  73.468  1.00  0.00     0.000 HD 
ENDROOT
BRANCH   1  14
HETATM   14  C   UNL     1      -9.347   6.005  68.757  1.00  0.00    -0.122 C  
HETATM   15  N   UNL     1      -6.609   3.981  65.333  1.00  0.00    -0.042 N  
HETATM   16  O   UNL     1      -7.006   4.093  68.151  1.00  0.00    -0.050 OA 
HETATM   17  C   UNL     1      -7.946   4.282  67.391  1.00  0.00    -0.096 C  
HETATM   18  C   UNL     1      -8.712   2.775  65.632  1.00  0.00    -0.128 C  
HETATM   19  N   UNL     1      -7.909   9.672  64.581  1.00  0.00    -0.126 N  
HETATM   20  H   UNL     1      -9.649   5.192  66.799  1.00  0.00     0.000 HD 
HETATM   21  N   UNL     1      -8.996   5.136  67.582  1.00  0.00    -0.109 N  
HETATM   22  H   UNL     1      -5.710   3.686  65.714  1.00  0.00     0.000 HD 
HETATM   23  C   UNL     1      -7.806   3.682  66.015  1.00  0.00    -0.089 C  
HETATM   24  C   UNL     1      -6.671   4.689  64.123  1.00  0.00    -0.044 C  
HETATM   25  O   UNL     1     -11.431   6.674  67.688  1.00  0.00    -0.140 OA 
HETATM   26  O   UNL     1      -7.177   4.239  63.097  1.00  0.00    -0.047 OA 
HETATM   27  N   UNL     1      -9.831   8.293  67.821  1.00  0.00    -0.162 N  
HETATM   28  CA  UNL     1      -6.179   6.171  64.238  1.00  0.00    -0.030 C  
HETATM   29  N   UNL     1      -6.439   7.047  63.074  1.00  0.00    -0.047 N  
HETATM   30  C   UNL     1     -10.516   9.275  66.975  1.00  0.00    -0.233 C  
HETATM   31  CA  UNL     1      -9.495  10.298  66.404  1.00  0.00    -0.174 C  
HETATM   32  H   UNL     1      -8.929   8.552  68.221  1.00  0.00     0.000 HD 
HETATM   33  H   UNL     1      -6.761   6.681  62.179  1.00  0.00     0.000 HD 
HETATM   34  O   UNL     1     -10.043  10.233  64.034  1.00  0.00    -0.263 OA 
HETATM   35  C   UNL     1      -6.213   8.416  63.285  1.00  0.00    -0.081 C  
HETATM   36  C   UNL     1      -9.202  10.032  64.910  1.00  0.00    -0.239 C  
HETATM   37  H   UNL     1      -7.217   9.634  65.330  1.00  0.00     0.000 HD 
HETATM   38  C   UNL     1     -10.332   7.039  68.108  1.00  0.00    -0.191 C  
HETATM   39  O   UNL     1      -5.168   8.802  63.814  1.00  0.00    -0.059 OA 
HETATM   40  CA  UNL     1      -7.465   9.335  63.198  1.00  0.00    -0.106 C  
BRANCH  18  41
HETATM   41  N   UNL     1      -8.552   1.971  64.530  1.00  0.00    -0.092 N  
HETATM   42  H   UNL     1      -7.694   1.426  64.446  1.00  0.00     0.000 HD 
BRANCH  41  43
HETATM   43  C   UNL     1      -9.487   1.869  63.543  1.00  0.00    -0.103 C  
HETATM   44  H2  UNL     1     -10.993   1.833  65.005  1.00  0.00     0.000 HD 
HETATM   45  N   UNL     1     -10.759   1.806  64.013  1.00  0.00    -0.372 N  
HETATM   46  H1  UNL     1     -11.459   1.729  63.275  1.00  0.00     0.000 HD 
HETATM   47  O   UNL     1      -9.260   1.845  62.339  1.00  0.00    -0.079 OA 
ENDBRANCH  41  43
ENDBRANCH  18  41
BRANCH  28  48
HETATM   48  C   UNL     1      -6.953   6.775  65.426  1.00  0.00    -0.059 C  
HETATM   49  O   UNL     1      -8.363   6.818  65.161  1.00  0.00    -0.187 OA 
HETATM   50  H   UNL     1      -8.840   7.190  65.894  1.00  0.00     0.000 HD 
ENDBRANCH  28  48
BRANCH  40  51
HETATM   51  CB  UNL     1      -7.108  10.610  62.427  1.00  0.00    -0.107 C  
HETATM   52  O   UNL     1      -5.959  11.278  62.950  1.00  0.00    -0.295 OA 
HETATM   53  H   UNL     1      -5.738  12.069  62.471  1.00  0.00     0.000 HD 
ENDBRANCH  40  51
BRANCH  31  54
HETATM   54  N   UNL     1      -9.949  11.684  66.567  1.00  0.00    -0.199 N  
HETATM   55  H   UNL     1     -10.088  12.265  65.740  1.00  0.00     0.000 HD 
HETATM   56  O   UNL     1     -10.068  11.545  68.839  1.00  0.00    -0.199 OA 
HETATM   57  C   UNL     1     -10.193  12.216  67.817  1.00  0.00    -0.201 C  
BRANCH  57  58
HETATM   58  C   UNL     1     -10.639  13.675  67.798  1.00  0.00    -0.247 C  
BRANCH  58  59
HETATM   59  C   UNL     1      -9.493  14.688  67.999  1.00  0.00    -0.207 C  
HETATM   60  H1  UNL     1      -7.673  14.771  68.962  1.00  0.00     0.000 HD 
HETATM   61  N   UNL     1      -8.431  14.101  68.829  1.00  0.00    -0.304 NA 
HETATM   62  H2  UNL     1      -8.094  13.216  68.448  1.00  0.00     0.000 HD 
BRANCH  59  63
HETATM   63  C   UNL     1      -8.837  15.135  66.670  1.00  0.00    -0.321 C  
BRANCH  63  64
HETATM   64  C   UNL     1      -8.609  16.647  66.576  1.00  0.00    -0.320 C  
BRANCH  64  65
HETATM   65  C   UNL     1      -7.204  17.043  67.036  1.00  0.00    -0.189 C  
HETATM   66  N   UNL     1      -6.298  15.914  66.860  1.00  0.00    -0.261 NA 
HETATM   67  H2  UNL     1      -6.305  15.559  65.903  1.00  0.00     0.000 HD 
HETATM   68  H1  UNL     1      -5.362  16.177  67.165  1.00  0.00     0.000 HD 
ENDBRANCH  64  65
ENDBRANCH  63  64
ENDBRANCH  59  63
ENDBRANCH  58  59
ENDBRANCH  57  58
ENDBRANCH  31  54
ENDBRANCH   1  14
TORSDOF 11
ENDMDL
MODEL       20
REMARK 921   NORMALIZED FREE ENERGY PREDICTED BY IDOCK:   -4.05 KCAL/MOL
REMARK 922        TOTAL FREE ENERGY PREDICTED BY IDOCK:   -8.62 KCAL/MOL
REMARK 923 INTER-LIGAND FREE ENERGY PREDICTED BY IDOCK:   -8.11 KCAL/MOL
REMARK 924 INTRA-LIGAND FREE ENERGY PREDICTED BY IDOCK:   -0.51 KCAL/MOL
REMARK 927      BINDING AFFINITY PREDICTED BY RF-SCORE:    0.00 PKD
ROOT
HETATM    1  C   UNL     1     -11.752   9.025  70.033  1.00  0.00     0.192 C  
HETATM    2  C   UNL     1     -11.219   7.748  69.318  1.00  0.00     0.212 C  
HETATM    3  H1  UNL     1     -11.699   8.828  73.706  1.00  0.00     0.000 HD 
HETATM    4  H   UNL     1     -13.422   8.865  71.431  1.00  0.00     0.000 HD 
HETATM    5  C   UNL     1     -10.537   6.816  70.317  1.00  0.00    -0.215 C  
HETATM    6  H2  UNL     1     -10.789   7.329  73.690  1.00  0.00     0.000 HD 
HETATM    7  N   UNL     1     -11.454   6.560  71.394  1.00  0.00    -0.295 NA 
HETATM    8  O   UNL     1     -10.192   5.592  69.711  1.00  0.00    -0.216 OA 
HETATM    9  N   UNL     1     -12.472   8.552  71.225  1.00  0.00    -0.286 NA 
HETATM   10  N   UNL     1     -11.419   7.977  73.218  1.00  0.00    -0.113 NA 
HETATM   11  H   UNL     1     -11.788   5.628  71.643  1.00  0.00     0.000 HD 
HETATM   12  C   UNL     1     -11.824   7.686  72.040  1.00  0.00    -0.301 C  
HETATM   13  H   UNL     1      -9.768   5.012  70.333  1.00  0.00     0.000 HD 
ENDROOT
BRANCH   1  14
HETATM   14  C   UNL     1     -10.659  10.090  70.383  1.00  0.00    -0.280 C  
HETATM   15  N   UNL     1     -12.607  13.788  67.964  1.00  0.00    -0.124 N  
HETATM   16  O   UNL     1     -13.132  11.895  70.027  1.00  0.00     0.475 OA 
HETATM   17  C   UNL     1     -11.985  12.259  69.806  1.00  0.00    -0.295 C  
HETATM   18  C   UNL     1     -11.174  14.561  69.785  1.00  0.00    -0.234 C  
HETATM   19  N   UNL     1      -9.504   9.945  64.762  1.00  0.00    -0.291 N  
HETATM   20  H   UNL     1      -9.993  11.979  69.624  1.00  0.00     0.000 HD 
HETATM   21  N   UNL     1     -10.850  11.505  69.912  1.00  0.00     0.096 N  
HETATM   22  H   UNL     1     -13.626  13.750  68.001  1.00  0.00     0.000 HD 
HETATM   23  C   UNL     1     -11.842  13.602  69.133  1.00  0.00    -0.348 C  
HETATM   24  C   UNL     1     -11.948  14.027  66.748  1.00  0.00    -0.444 C  
HETATM   25  O   UNL     1      -8.241  10.310  70.176  1.00  0.00    -0.067 OA 
HETATM   26  O   UNL     1     -11.295  15.042  66.517  1.00  0.00    -0.341 OA 
HETATM   27  N   UNL     1      -9.240   8.953  68.639  1.00  0.00    -0.137 N  
HETATM   28  CA  UNL     1     -11.987  12.809  65.765  1.00  0.00    -0.449 C  
HETATM   29  N   UNL     1     -11.115  12.893  64.572  1.00  0.00    -0.323 N  
HETATM   30  C   UNL     1      -8.058   8.761  67.793  1.00  0.00    -0.107 C  
HETATM   31  CA  UNL     1      -8.486   8.325  66.363  1.00  0.00    -0.121 C  
HETATM   32  H   UNL     1     -10.103   8.479  68.372  1.00  0.00     0.000 HD 
HETATM   33  H   UNL     1     -10.645  13.756  64.302  1.00  0.00     0.000 HD 
HETATM   34  O   UNL     1      -7.244   9.913  65.000  1.00  0.00    -0.121 OA 
HETATM   35  C   UNL     1     -10.980  11.706  63.836  1.00  0.00    -0.407 C  
HETATM   36  C   UNL     1      -8.343   9.484  65.352  1.00  0.00    -0.139 C  
HETATM   37  H   UNL     1     -10.380   9.478  64.998  1.00  0.00     0.000 HD 
HETATM   38  C   UNL     1      -9.255   9.737  69.775  1.00  0.00    -0.226 C  
HETATM   39  O   UNL     1     -11.975  11.049  63.523  1.00  0.00     0.444 OA 
HETATM   40  CA  UNL     1      -9.554  11.085  63.801  1.00  0.00    -0.286 C  
BRANCH  18  41
HETATM   41  N   UNL     1     -11.199  15.882  69.410  1.00  0.00    -0.310 N  
HETATM   42  H   UNL     1     -12.090  16.377  69.432  1.00  0.00     0.000 HD 
BRANCH  41  43
HETATM   43  C   UNL     1     -10.086  16.561  69.011  1.00  0.00    -0.279 C  
HETATM   44  H2  UNL     1     -11.293  17.778  67.797  1.00  0.00     0.000 HD 
HETATM   45  N   UNL     1     -10.353  17.558  68.129  1.00  0.00    -0.356 N  
HETATM   46  H1  UNL     1      -9.521  18.067  67.831  1.00  0.00     0.000 HD 
HETATM   47  O   UNL     1      -8.940  16.346  69.389  1.00  0.00    -0.178 OA 
ENDBRANCH  41  43
ENDBRANCH  18  41
BRANCH  28  48
HETATM   48  C   UNL     1     -11.498  11.598  66.583  1.00  0.00    -0.206 C  
HETATM   49  O   UNL     1     -10.140  11.774  67.012  1.00  0.00    -0.206 OA 
HETATM   50  H   UNL     1      -9.839  11.027  67.517  1.00  0.00     0.000 HD 
ENDBRANCH  28  48
BRANCH  40  51
HETATM   51  CB  UNL     1      -9.245  10.599  62.381  1.00  0.00    -0.266 C  
HETATM   52  O   UNL     1      -8.838   9.230  62.333  1.00  0.00    -0.231 OA 
HETATM   53  H   UNL     1      -8.647   8.929  61.452  1.00  0.00     0.000 HD 
ENDBRANCH  40  51
BRANCH  31  54
HETATM   54  N   UNL     1      -7.719   7.169  65.884  1.00  0.00    -0.096 N  
HETATM   55  H   UNL     1      -6.889   7.323  65.311  1.00  0.00     0.000 HD 
HETATM   56  O   UNL     1      -9.074   5.647  66.904  1.00  0.00    -0.115 OA 
HETATM   57  C   UNL     1      -8.098   5.879  66.193  1.00  0.00    -0.109 C  
BRANCH  57  58
HETATM   58  C   UNL     1      -7.198   4.803  65.595  1.00  0.00    -0.072 C  
BRANCH  58  59
HETATM   59  C   UNL     1      -7.129   4.823  64.054  1.00  0.00    -0.050 C  
HETATM   60  H1  UNL     1      -6.014   3.945  62.559  1.00  0.00     0.000 HD 
HETATM   61  N   UNL     1      -6.060   3.932  63.578  1.00  0.00    -0.017 NA 
HETATM   62  H2  UNL     1      -6.163   2.984  63.942  1.00  0.00     0.000 HD 
BRANCH  59  63
HETATM   63  C   UNL     1      -8.442   4.358  63.380  1.00  0.00    -0.109 C  
BRANCH  63  64
HETATM   64  C   UNL     1      -8.609   2.835  63.347  1.00  0.00    -0.086 C  
BRANCH  64  65
HETATM   65  C   UNL     1      -9.719   2.360  64.287  1.00  0.00    -0.110 C  
HETATM   66  N   UNL     1     -10.944   3.101  64.007  1.00  0.00    -0.573 NA 
HETATM   67  H2  UNL     1     -11.216   3.039  63.026  1.00  0.00     0.000 HD 
HETATM   68  H1  UNL     1     -11.684   2.785  64.633  1.00  0.00     0.000 HD 
ENDBRANCH  64  65
ENDBRANCH  63  64
ENDBRANCH  59  63
ENDBRANCH  58  59
ENDBRANCH  57  58
ENDBRANCH  31  54
ENDBRANCH   1  14
TORSDOF 11
ENDMDL
MODEL       21
REMARK 921   NORMALIZED FREE ENERGY PREDICTED BY IDOCK:   -3.98 KCAL/MOL
REMARK 922        TOTAL FREE ENERGY PREDICTED BY IDOCK:   -8.50 KCAL/MOL
REMARK 923 INTER-LIGAND FREE ENERGY PREDICTED BY IDOCK:   -8.43 KCAL/MOL
REMARK 924 INTRA-LIGAND FREE ENERGY PREDICTED BY IDOCK:   -0.07 KCAL/MOL
REMARK 927      BINDING AFFINITY PREDICTED BY RF-SCORE:    0.00 PKD
ROOT
HETATM    1  C   UNL     1      -7.399   8.299  67.995  1.00  0.00    -0.096 C  
HETATM    2  C   UNL     1      -7.242   7.206  69.093  1.00  0.00    -0.086 C  
HETATM    3  H1  UNL     1      -5.270   7.782  65.040  1.00  0.00     0.000 HD 
HETATM    4  H   UNL     1      -5.652   9.432  67.338  1.00  0.00     0.000 HD 
HETATM    5  C   UNL     1      -6.440   6.020  68.562  1.00  0.00    -0.049 C  
HETATM    6  H2  UNL     1      -4.779   6.186  65.576  1.00  0.00     0.000 HD 
HETATM    7  N   UNL     1      -5.201   6.515  68.030  1.00  0.00    -0.007 NA 
HETATM    8  O   UNL     1      -6.159   5.100  69.591  1.00  0.00    -0.020 OA 
HETATM    9  N   UNL     1      -6.058   8.499  67.426  1.00  0.00    -0.051 NA 
HETATM   10  N   UNL     1      -5.132   7.117  65.801  1.00  0.00    -0.023 NA 
HETATM   11  H   UNL     1      -4.283   6.231  68.375  1.00  0.00     0.000 HD 
HETATM   12  C   UNL     1      -5.382   7.396  67.024  1.00  0.00    -0.023 C  
HETATM   13  H   UNL     1      -5.660   4.362  69.261  1.00  0.00     0.000 HD 
ENDROOT
BRANCH   1  14
HETATM   14  C   UNL     1      -8.469   7.981  66.895  1.00  0.00    -0.124 C  
HETATM   15  N   UNL     1     -10.342  12.419  66.559  1.00  0.00    -0.226 N  
HETATM   16  O   UNL     1      -7.910  10.957  66.315  1.00  0.00    -0.155 OA 
HETATM   17  C   UNL     1      -8.981  10.408  66.093  1.00  0.00    -0.157 C  
HETATM   18  C   UNL     1     -10.682  11.143  64.505  1.00  0.00    -0.297 C  
HETATM   19  N   UNL     1     -12.268   9.129  71.043  1.00  0.00    -0.405 N  
HETATM   20  H   UNL     1     -10.274   8.859  66.148  1.00  0.00     0.000 HD 
HETATM   21  N   UNL     1      -9.306   9.107  66.354  1.00  0.00    -0.187 N  
HETATM   22  H   UNL     1      -9.620  13.129  66.691  1.00  0.00     0.000 HD 
HETATM   23  C   UNL     1     -10.116  11.322  65.704  1.00  0.00    -0.247 C  
HETATM   24  C   UNL     1     -11.572  12.523  67.227  1.00  0.00    -0.367 C  
HETATM   25  O   UNL     1     -10.310   6.415  66.588  1.00  0.00    -0.195 OA 
HETATM   26  O   UNL     1     -12.643  12.714  66.653  1.00  0.00    -0.198 OA 
HETATM   27  N   UNL     1      -9.813   6.935  68.752  1.00  0.00    -0.147 N  
HETATM   28  CA  UNL     1     -11.481  12.217  68.759  1.00  0.00    -0.311 C  
HETATM   29  N   UNL     1     -12.764  12.068  69.482  1.00  0.00     0.408 N  
HETATM   30  C   UNL     1     -10.974   6.273  69.354  1.00  0.00    -0.375 C  
HETATM   31  CA  UNL     1     -11.259   6.864  70.763  1.00  0.00    -0.294 C  
HETATM   32  H   UNL     1      -9.146   7.393  69.374  1.00  0.00     0.000 HD 
HETATM   33  H   UNL     1     -13.658  12.318  69.061  1.00  0.00     0.000 HD 
HETATM   34  O   UNL     1     -13.633   7.369  70.587  1.00  0.00     0.133 OA 
HETATM   35  C   UNL     1     -12.669  11.560  70.786  1.00  0.00    -0.227 C  
HETATM   36  C   UNL     1     -12.490   7.797  70.748  1.00  0.00     0.043 C  
HETATM   37  H   UNL     1     -11.319   9.414  71.286  1.00  0.00     0.000 HD 
HETATM   38  C   UNL     1      -9.567   6.977  67.394  1.00  0.00    -0.135 C  
HETATM   39  O   UNL     1     -11.848  12.026  71.580  1.00  0.00     0.683 OA 
HETATM   40  CA  UNL     1     -13.333  10.174  71.028  1.00  0.00    -0.261 C  
BRANCH  18  41
HETATM   41  N   UNL     1     -11.530  12.057  63.930  1.00  0.00    -0.402 N  
HETATM   42  H   UNL     1     -12.372  11.716  63.466  1.00  0.00     0.000 HD 
BRANCH  41  43
HETATM   43  C   UNL     1     -11.298  13.401  63.950  1.00  0.00    -0.260 C  
HETATM   44  H2  UNL     1     -13.253  13.726  63.258  1.00  0.00     0.000 HD 
HETATM   45  N   UNL     1     -12.365  14.137  63.547  1.00  0.00    -1.127 N  
HETATM   46  H1  UNL     1     -12.192  15.142  63.563  1.00  0.00     0.000 HD 
HETATM   47  O   UNL     1     -10.257  13.943  64.301  1.00  0.00    -0.276 OA 
ENDBRANCH  41  43
ENDBRANCH  18  41
BRANCH  28  48
HETATM   48  C   UNL     1     -10.753  10.863  68.870  1.00  0.00    -0.215 C  
HETATM   49  O   UNL     1     -11.451   9.836  68.148  1.00  0.00    -0.520 OA 
HETATM   50  H   UNL     1     -11.002   9.002  68.216  1.00  0.00     0.000 HD 
ENDBRANCH  28  48
BRANCH  40  51
HETATM   51  CB  UNL     1     -14.080  10.193  72.366  1.00  0.00     0.426 C  
HETATM   52  O   UNL     1     -13.797   9.055  73.182  1.00  0.00    -1.096 OA 
HETATM   53  H   UNL     1     -14.261   9.067  74.012  1.00  0.00     0.000 HD 
ENDBRANCH  40  51
BRANCH  31  54
HETATM   54  N   UNL     1     -11.461   5.817  71.772  1.00  0.00    -0.192 N  
HETATM   55  H   UNL     1     -12.098   5.046  71.572  1.00  0.00     0.000 HD 
HETATM   56  O   UNL     1     -10.007   6.749  73.259  1.00  0.00    -0.172 OA 
HETATM   57  C   UNL     1     -10.805   5.855  72.986  1.00  0.00    -0.267 C  
BRANCH  57  58
HETATM   58  C   UNL     1     -11.149   4.698  73.918  1.00  0.00    -0.258 C  
BRANCH  58  59
HETATM   59  C   UNL     1     -10.182   3.499  73.820  1.00  0.00    -0.142 C  
HETATM   60  H1  UNL     1     -10.145   1.512  74.366  1.00  0.00     0.000 HD 
HETATM   61  N   UNL     1     -10.784   2.305  74.431  1.00  0.00    -0.140 NA 
HETATM   62  H2  UNL     1     -11.697   2.091  74.030  1.00  0.00     0.000 HD 
BRANCH  59  63
HETATM   63  C   UNL     1      -9.819   3.130  72.362  1.00  0.00    -0.227 C  
BRANCH  63  64
HETATM   64  C   UNL     1      -8.324   3.261  72.049  1.00  0.00    -0.074 C  
BRANCH  64  65
HETATM   65  C   UNL     1      -7.862   2.228  71.020  1.00  0.00    -0.046 C  
HETATM   66  N   UNL     1      -7.828   2.841  69.697  1.00  0.00    -0.043 NA 
HETATM   67  H2  UNL     1      -7.257   3.686  69.678  1.00  0.00     0.000 HD 
HETATM   68  H1  UNL     1      -7.520   2.153  69.011  1.00  0.00     0.000 HD 
ENDBRANCH  64  65
ENDBRANCH  63  64
ENDBRANCH  59  63
ENDBRANCH  58  59
ENDBRANCH  57  58
ENDBRANCH  31  54
ENDBRANCH   1  14
TORSDOF 11
ENDMDL
MODEL       22
REMARK 921   NORMALIZED FREE ENERGY PREDICTED BY IDOCK:   -3.85 KCAL/MOL
REMARK 922        TOTAL FREE ENERGY PREDICTED BY IDOCK:   -8.29 KCAL/MOL
REMARK 923 INTER-LIGAND FREE ENERGY PREDICTED BY IDOCK:   -9.43 KCAL/MOL
REMARK 924 INTRA-LIGAND FREE ENERGY PREDICTED BY IDOCK:    1.14 KCAL/MOL
REMARK 927      BINDING AFFINITY PREDICTED BY RF-SCORE:    0.00 PKD
ROOT
HETATM    1  C   UNL     1      -6.076   9.843  68.427  1.00  0.00    -0.046 C  
HETATM    2  C   UNL     1      -6.667  11.260  68.159  1.00  0.00    -0.058 C  
HETATM    3  H1  UNL     1      -5.689   9.022  71.991  1.00  0.00     0.000 HD 
HETATM    4  H   UNL     1      -4.250   9.637  69.604  1.00  0.00     0.000 HD 
HETATM    5  C   UNL     1      -7.207  11.871  69.449  1.00  0.00     0.116 C  
HETATM    6  H2  UNL     1      -6.567  10.454  72.497  1.00  0.00     0.000 HD 
HETATM    7  N   UNL     1      -6.165  11.835  70.437  1.00  0.00    -0.453 NA 
HETATM    8  O   UNL     1      -7.599  13.209  69.249  1.00  0.00    -0.316 OA 
HETATM    9  N   UNL     1      -5.211   9.980  69.608  1.00  0.00    -0.038 NA 
HETATM   10  N   UNL     1      -6.009   9.970  71.793  1.00  0.00    -0.299 NA 
HETATM   11  H   UNL     1      -5.786  12.666  70.891  1.00  0.00     0.000 HD 
HETATM   12  C   UNL     1      -5.741  10.580  70.700  1.00  0.00    -0.101 C  
HETATM   13  H   UNL     1      -7.935  13.589  70.052  1.00  0.00     0.000 HD 
ENDROOT
BRANCH   1  14
HETATM   14  C   UNL     1      -7.140   8.707  68.598  1.00  0.00    -0.068 C  
HETATM   15  N   UNL     1      -7.046   7.085  64.051  1.00  0.00    -0.056 N  
HETATM   16  O   UNL     1      -5.405   7.538  66.334  1.00  0.00    -0.023 OA 
HETATM   17  C   UNL     1      -6.597   7.298  66.473  1.00  0.00    -0.056 C  
HETATM   18  C   UNL     1      -7.793   5.356  65.606  1.00  0.00    -0.100 C  
HETATM   19  N   UNL     1     -10.308  11.887  65.020  1.00  0.00    -0.277 N  
HETATM   20  H   UNL     1      -8.407   7.525  67.338  1.00  0.00     0.000 HD 
HETATM   21  N   UNL     1      -7.430   7.805  67.431  1.00  0.00    -0.091 N  
HETATM   22  H   UNL     1      -6.105   7.150  63.661  1.00  0.00     0.000 HD 
HETATM   23  C   UNL     1      -7.250   6.549  65.338  1.00  0.00    -0.073 C  
HETATM   24  C   UNL     1      -8.154   7.527  63.311  1.00  0.00    -0.031 C  
HETATM   25  O   UNL     1      -9.444   8.511  69.367  1.00  0.00    -0.160 OA 
HETATM   26  O   UNL     1      -9.033   6.778  62.891  1.00  0.00     0.584 OA 
HETATM   27  N   UNL     1      -8.863  10.543  68.512  1.00  0.00    -0.136 N  
HETATM   28  CA  UNL     1      -8.253   9.086  63.203  1.00  0.00    -0.181 C  
HETATM   29  N   UNL     1      -9.514   9.632  62.653  1.00  0.00    -0.568 N  
HETATM   30  C   UNL     1     -10.214  11.110  68.494  1.00  0.00    -0.198 C  
HETATM   31  CA  UNL     1     -10.290  12.288  67.483  1.00  0.00    -0.203 C  
HETATM   32  H   UNL     1      -8.092  11.131  68.192  1.00  0.00     0.000 HD 
HETATM   33  H   UNL     1     -10.213   9.040  62.205  1.00  0.00     0.000 HD 
HETATM   34  O   UNL     1     -12.249  11.662  66.181  1.00  0.00    -0.151 OA 
HETATM   35  C   UNL     1      -9.682  11.018  62.786  1.00  0.00    -0.269 C  
HETATM   36  C   UNL     1     -11.038  11.880  66.193  1.00  0.00    -0.326 C  
HETATM   37  H   UNL     1      -9.335  12.190  65.062  1.00  0.00     0.000 HD 
HETATM   38  C   UNL     1      -8.569   9.263  68.935  1.00  0.00    -0.130 C  
HETATM   39  O   UNL     1      -8.774  11.791  62.471  1.00  0.00    -0.163 OA 
HETATM   40  CA  UNL     1     -10.858  11.477  63.695  1.00  0.00    -0.415 C  
BRANCH  18  41
HETATM   41  N   UNL     1      -8.177   4.469  64.630  1.00  0.00    -0.105 N  
HETATM   42  H   UNL     1      -7.475   4.143  63.966  1.00  0.00     0.000 HD 
BRANCH  41  43
HETATM   43  C   UNL     1      -9.453   4.004  64.509  1.00  0.00    -0.167 C  
HETATM   44  H2  UNL     1      -9.109   3.655  62.468  1.00  0.00     0.000 HD 
HETATM   45  N   UNL     1      -9.764   3.609  63.248  1.00  0.00    -0.128 N  
HETATM   46  H1  UNL     1     -10.719   3.261  63.158  1.00  0.00     0.000 HD 
HETATM   47  O   UNL     1     -10.273   3.916  65.416  1.00  0.00    -0.143 OA 
ENDBRANCH  41  43
ENDBRANCH  18  41
BRANCH  28  48
HETATM   48  C   UNL     1      -8.140   9.610  64.648  1.00  0.00    -0.141 C  
HETATM   49  O   UNL     1      -7.174  10.668  64.744  1.00  0.00    -0.346 OA 
HETATM   50  H   UNL     1      -7.104  10.992  65.634  1.00  0.00     0.000 HD 
ENDBRANCH  28  48
BRANCH  40  51
HETATM   51  CB  UNL     1     -11.585  12.653  63.033  1.00  0.00     0.087 C  
HETATM   52  O   UNL     1     -12.832  12.964  63.657  1.00  0.00    -0.692 OA 
HETATM   53  H   UNL     1     -13.282  13.694  63.246  1.00  0.00     0.000 HD 
ENDBRANCH  40  51
BRANCH  31  54
HETATM   54  N   UNL     1     -10.937  13.473  68.060  1.00  0.00    -0.244 N  
HETATM   55  H   UNL     1     -11.408  13.396  68.961  1.00  0.00     0.000 HD 
HETATM   56  O   UNL     1     -10.336  14.836  66.335  1.00  0.00    -0.278 OA 
HETATM   57  C   UNL     1     -10.917  14.689  67.408  1.00  0.00    -0.308 C  
BRANCH  57  58
HETATM   58  C   UNL     1     -11.654  15.804  68.144  1.00  0.00    -0.259 C  
BRANCH  58  59
HETATM   59  C   UNL     1     -11.641  15.662  69.680  1.00  0.00    -0.356 C  
HETATM   60  H1  UNL     1     -10.998  16.744  71.313  1.00  0.00     0.000 HD 
HETATM   61  N   UNL     1     -11.007  16.838  70.297  1.00  0.00    -0.350 NA 
HETATM   62  H2  UNL     1     -11.448  17.708  69.999  1.00  0.00     0.000 HD 
BRANCH  59  63
HETATM   63  C   UNL     1     -13.056  15.535  70.292  1.00  0.00    -0.033 C  
BRANCH  63  64
HETATM   64  C   UNL     1     -13.065  14.928  71.699  1.00  0.00    -0.424 C  
BRANCH  64  65
HETATM   65  C   UNL     1     -13.618  15.904  72.739  1.00  0.00    -0.510 C  
HETATM   66  N   UNL     1     -12.860  15.774  73.979  1.00  0.00    -0.742 NA 
HETATM   67  H2  UNL     1     -11.858  15.894  73.832  1.00  0.00     0.000 HD 
HETATM   68  H1  UNL     1     -13.228  16.425  74.672  1.00  0.00     0.000 HD 
ENDBRANCH  64  65
ENDBRANCH  63  64
ENDBRANCH  59  63
ENDBRANCH  58  59
ENDBRANCH  57  58
ENDBRANCH  31  54
ENDBRANCH   1  14
TORSDOF 11
ENDMDL
MODEL       23
REMARK 921   NORMALIZED FREE ENERGY PREDICTED BY IDOCK:   -3.82 KCAL/MOL
REMARK 922        TOTAL FREE ENERGY PREDICTED BY IDOCK:   -8.23 KCAL/MOL
REMARK 923 INTER-LIGAND FREE ENERGY PREDICTED BY IDOCK:  -10.45 KCAL/MOL
REMARK 924 INTRA-LIGAND FREE ENERGY PREDICTED BY IDOCK:    2.22 KCAL/MOL
REMARK 927      BINDING AFFINITY PREDICTED BY RF-SCORE:    0.00 PKD
ROOT
HETATM    1  C   UNL     1     -11.272  13.767  64.100  1.00  0.00    -0.219 C  
HETATM    2  C   UNL     1     -10.118  12.723  64.167  1.00  0.00    -0.260 C  
HETATM    3  H1  UNL     1     -14.611  12.296  63.639  1.00  0.00     0.000 HD 
HETATM    4  H   UNL     1     -12.577  13.828  62.351  1.00  0.00     0.000 HD 
HETATM    5  C   UNL     1     -10.679  11.309  64.303  1.00  0.00    -0.349 C  
HETATM    6  H2  UNL     1     -14.012  10.665  63.880  1.00  0.00     0.000 HD 
HETATM    7  N   UNL     1     -11.621  11.092  63.240  1.00  0.00    -0.637 NA 
HETATM    8  O   UNL     1      -9.653  10.348  64.206  1.00  0.00    -0.269 OA 
HETATM    9  N   UNL     1     -12.234  13.247  63.117  1.00  0.00    -0.578 NA 
HETATM   10  N   UNL     1     -13.835  11.635  63.615  1.00  0.00     0.434 NA 
HETATM   11  H   UNL     1     -11.523  10.357  62.539  1.00  0.00     0.000 HD 
HETATM   12  C   UNL     1     -12.648  11.967  63.270  1.00  0.00    -0.344 C  
HETATM   13  H   UNL     1     -10.002   9.469  64.292  1.00  0.00     0.000 HD 
ENDROOT
BRANCH   1  14
HETATM   14  C   UNL     1     -11.945  14.095  65.476  1.00  0.00    -0.391 C  
HETATM   15  N   UNL     1      -8.430  16.904  67.228  1.00  0.00    -0.192 N  
HETATM   16  O   UNL     1     -10.242  16.628  65.048  1.00  0.00    -0.561 OA 
HETATM   17  C   UNL     1     -10.534  16.181  66.149  1.00  0.00    -0.325 C  
HETATM   18  C   UNL     1     -10.588  17.423  68.249  1.00  0.00    -0.366 C  
HETATM   19  N   UNL     1      -7.585  11.098  67.702  1.00  0.00    -0.102 N  
HETATM   20  H   UNL     1     -11.340  14.816  67.400  1.00  0.00     0.000 HD 
HETATM   21  N   UNL     1     -11.256  15.050  66.410  1.00  0.00    -0.335 N  
HETATM   22  H   UNL     1      -7.993  17.446  66.483  1.00  0.00     0.000 HD 
HETATM   23  C   UNL     1      -9.834  16.820  67.322  1.00  0.00    -0.260 C  
HETATM   24  C   UNL     1      -7.641  16.230  68.175  1.00  0.00    -0.149 C  
HETATM   25  O   UNL     1     -12.862  12.854  67.362  1.00  0.00     0.599 OA 
HETATM   26  O   UNL     1      -7.608  16.528  69.367  1.00  0.00    -0.215 OA 
HETATM   27  N   UNL     1     -11.232  11.784  66.180  1.00  0.00    -0.323 N  
HETATM   28  CA  UNL     1      -6.925  14.961  67.603  1.00  0.00    -0.184 C  
HETATM   29  N   UNL     1      -6.276  14.068  68.589  1.00  0.00    -0.083 N  
HETATM   30  C   UNL     1     -11.068  10.657  67.103  1.00  0.00    -0.196 C  
HETATM   31  CA  UNL     1      -9.676   9.995  66.902  1.00  0.00    -0.189 C  
HETATM   32  H   UNL     1     -10.660  11.798  65.335  1.00  0.00     0.000 HD 
HETATM   33  H   UNL     1      -6.144  14.337  69.564  1.00  0.00     0.000 HD 
HETATM   34  O   UNL     1      -8.851   9.937  69.191  1.00  0.00    -0.142 OA 
HETATM   35  C   UNL     1      -5.853  12.825  68.094  1.00  0.00    -0.083 C  
HETATM   36  C   UNL     1      -8.704  10.363  68.045  1.00  0.00    -0.123 C  
HETATM   37  H   UNL     1      -7.445  11.327  66.717  1.00  0.00     0.000 HD 
HETATM   38  C   UNL     1     -12.114  12.826  66.383  1.00  0.00    -0.300 C  
HETATM   39  O   UNL     1      -5.203  12.758  67.048  1.00  0.00    -0.340 OA 
HETATM   40  CA  UNL     1      -6.570  11.577  68.684  1.00  0.00    -0.064 C  
BRANCH  18  41
HETATM   41  N   UNL     1     -10.073  18.257  69.210  1.00  0.00    -0.327 N  
HETATM   42  H   UNL     1      -9.974  17.901  70.161  1.00  0.00     0.000 HD 
BRANCH  41  43
HETATM   43  C   UNL     1      -9.687  19.539  68.952  1.00  0.00    -0.426 C  
HETATM   44  H2  UNL     1      -7.772  19.087  69.686  1.00  0.00     0.000 HD 
HETATM   45  N   UNL     1      -8.394  19.788  69.283  1.00  0.00    -0.028 N  
HETATM   46  H1  UNL     1      -8.105  20.747  69.090  1.00  0.00     0.000 HD 
HETATM   47  O   UNL     1     -10.389  20.414  68.459  1.00  0.00    -0.278 OA 
ENDBRANCH  41  43
ENDBRANCH  18  41
BRANCH  28  48
HETATM   48  C   UNL     1      -8.030  14.133  66.918  1.00  0.00     0.187 C  
HETATM   49  O   UNL     1      -9.010  13.688  67.867  1.00  0.00    -0.176 OA 
HETATM   50  H   UNL     1      -9.691  13.177  67.445  1.00  0.00     0.000 HD 
ENDBRANCH  28  48
BRANCH  40  51
HETATM   51  CB  UNL     1      -5.536  10.479  68.959  1.00  0.00    -0.041 C  
HETATM   52  O   UNL     1      -5.787   9.764  70.170  1.00  0.00    -0.040 OA 
HETATM   53  H   UNL     1      -5.146   9.083  70.341  1.00  0.00     0.000 HD 
ENDBRANCH  40  51
BRANCH  31  54
HETATM   54  N   UNL     1      -9.768   8.534  66.798  1.00  0.00    -0.213 N  
HETATM   55  H   UNL     1     -10.614   8.062  67.116  1.00  0.00     0.000 HD 
HETATM   56  O   UNL     1      -7.704   8.313  65.856  1.00  0.00    -0.082 OA 
HETATM   57  C   UNL     1      -8.731   7.786  66.278  1.00  0.00    -0.155 C  
BRANCH  57  58
HETATM   58  C   UNL     1      -8.991   6.283  66.264  1.00  0.00    -0.164 C  
BRANCH  58  59
HETATM   59  C   UNL     1     -10.356   5.873  66.855  1.00  0.00    -0.247 C  
HETATM   60  H1  UNL     1     -11.954   4.680  66.335  1.00  0.00     0.000 HD 
HETATM   61  N   UNL     1     -11.051   4.950  65.944  1.00  0.00    -0.839 NA 
HETATM   62  H2  UNL     1     -10.477   4.139  65.714  1.00  0.00     0.000 HD 
BRANCH  59  63
HETATM   63  C   UNL     1     -10.238   5.160  68.223  1.00  0.00    -0.179 C  
BRANCH  63  64
HETATM   64  C   UNL     1     -11.065   5.818  69.332  1.00  0.00    -0.259 C  
BRANCH  64  65
HETATM   65  C   UNL     1     -10.315   6.973  69.996  1.00  0.00    -0.202 C  
HETATM   66  N   UNL     1     -11.053   8.215  69.793  1.00  0.00    -0.431 NA 
HETATM   67  H2  UNL     1     -12.019   8.147  70.115  1.00  0.00     0.000 HD 
HETATM   68  H1  UNL     1     -10.553   8.985  70.236  1.00  0.00     0.000 HD 
ENDBRANCH  64  65
ENDBRANCH  63  64
ENDBRANCH  59  63
ENDBRANCH  58  59
ENDBRANCH  57  58
ENDBRANCH  31  54
ENDBRANCH   1  14
TORSDOF 11
ENDMDL
MODEL       24
REMARK 921   NORMALIZED FREE ENERGY PREDICTED BY IDOCK:   -3.76 KCAL/MOL
REMARK 922        TOTAL FREE ENERGY PREDICTED BY IDOCK:   -8.14 KCAL/MOL
REMARK 923 INTER-LIGAND FREE ENERGY PREDICTED BY IDOCK:   -8.04 KCAL/MOL
REMARK 924 INTRA-LIGAND FREE ENERGY PREDICTED BY IDOCK:   -0.09 KCAL/MOL
REMARK 927      BINDING AFFINITY PREDICTED BY RF-SCORE:    0.00 PKD
ROOT
HETATM    1  C   UNL     1      -9.062   6.538  66.705  1.00  0.00    -0.144 C  
HETATM    2  C   UNL     1      -9.127   7.440  65.437  1.00  0.00     0.257 C  
HETATM    3  H1  UNL     1      -6.679   3.748  66.449  1.00  0.00     0.000 HD 
HETATM    4  H   UNL     1      -9.457   4.398  66.534  1.00  0.00     0.000 HD 
HETATM    5  C   UNL     1      -7.979   7.115  64.485  1.00  0.00    -0.104 C  
HETATM    6  H2  UNL     1      -6.011   4.354  64.945  1.00  0.00     0.000 HD 
HETATM    7  N   UNL     1      -8.001   5.703  64.217  1.00  0.00    -0.119 NA 
HETATM    8  O   UNL     1      -8.119   7.812  63.269  1.00  0.00    -0.245 OA 
HETATM    9  N   UNL     1      -8.862   5.165  66.218  1.00  0.00    -0.121 NA 
HETATM   10  N   UNL     1      -6.788   4.309  65.604  1.00  0.00    -0.056 NA 
HETATM   11  H   UNL     1      -8.113   5.306  63.284  1.00  0.00     0.000 HD 
HETATM   12  C   UNL     1      -7.856   4.960  65.335  1.00  0.00    -0.091 C  
HETATM   13  H   UNL     1      -7.404   7.609  62.677  1.00  0.00     0.000 HD 
ENDROOT
BRANCH   1  14
HETATM   14  C   UNL     1      -7.981   6.958  67.759  1.00  0.00    -0.114 C  
HETATM   15  N   UNL     1      -9.526   4.158  71.376  1.00  0.00    -0.149 N  
HETATM   16  O   UNL     1      -8.602   4.084  68.683  1.00  0.00    -0.088 OA 
HETATM   17  C   UNL     1      -8.233   4.977  69.434  1.00  0.00    -0.082 C  
HETATM   18  C   UNL     1      -7.153   4.691  71.603  1.00  0.00    -0.062 C  
HETATM   19  N   UNL     1     -12.425   9.221  70.602  1.00  0.00    -0.499 N  
HETATM   20  H   UNL     1      -7.733   6.881  69.885  1.00  0.00     0.000 HD 
HETATM   21  N   UNL     1      -7.973   6.276  69.098  1.00  0.00    -0.108 N  
HETATM   22  H   UNL     1      -9.893   3.274  71.021  1.00  0.00     0.000 HD 
HETATM   23  C   UNL     1      -8.296   4.661  70.907  1.00  0.00    -0.093 C  
HETATM   24  C   UNL     1     -10.240   4.888  72.339  1.00  0.00    -0.199 C  
HETATM   25  O   UNL     1      -7.169   9.023  68.765  1.00  0.00    -0.072 OA 
HETATM   26  O   UNL     1      -9.842   5.068  73.489  1.00  0.00    -0.145 OA 
HETATM   27  N   UNL     1      -9.334   9.063  68.050  1.00  0.00    -0.141 N  
HETATM   28  CA  UNL     1     -11.518   5.591  71.771  1.00  0.00     0.050 C  
HETATM   29  N   UNL     1     -12.185   6.570  72.659  1.00  0.00    -0.490 N  
HETATM   30  C   UNL     1      -9.680  10.360  68.639  1.00  0.00    -0.175 C  
HETATM   31  CA  UNL     1     -11.221  10.478  68.814  1.00  0.00    -0.262 C  
HETATM   32  H   UNL     1     -10.053   8.571  67.521  1.00  0.00     0.000 HD 
HETATM   33  H   UNL     1     -11.942   6.664  73.645  1.00  0.00     0.000 HD 
HETATM   34  O   UNL     1     -11.377  11.163  71.143  1.00  0.00     0.445 OA 
HETATM   35  C   UNL     1     -13.174   7.360  72.054  1.00  0.00    -0.136 C  
HETATM   36  C   UNL     1     -11.637  10.313  70.292  1.00  0.00    -0.316 C  
HETATM   37  H   UNL     1     -12.715   8.607  69.839  1.00  0.00     0.000 HD 
HETATM   38  C   UNL     1      -8.094   8.469  68.170  1.00  0.00    -0.119 C  
HETATM   39  O   UNL     1     -14.046   6.840  71.354  1.00  0.00    -0.156 OA 
HETATM   40  CA  UNL     1     -12.878   8.885  71.983  1.00  0.00    -0.397 C  
BRANCH  18  41
HETATM   41  N   UNL     1      -7.030   4.174  72.869  1.00  0.00    -0.059 N  
HETATM   42  H   UNL     1      -7.188   4.793  73.665  1.00  0.00     0.000 HD 
BRANCH  41  43
HETATM   43  C   UNL     1      -6.708   2.872  73.112  1.00  0.00    -0.026 C  
HETATM   44  H2  UNL     1      -8.379   2.716  74.372  1.00  0.00     0.000 HD 
HETATM   45  N   UNL     1      -7.570   2.253  73.958  1.00  0.00    -0.040 N  
HETATM   46  H1  UNL     1      -7.329   1.279  74.140  1.00  0.00     0.000 HD 
HETATM   47  O   UNL     1      -5.756   2.268  72.631  1.00  0.00    -0.007 OA 
ENDBRANCH  41  43
ENDBRANCH  18  41
BRANCH  28  48
HETATM   48  C   UNL     1     -11.047   6.372  70.530  1.00  0.00    -0.328 C  
HETATM   49  O   UNL     1     -11.250   5.613  69.328  1.00  0.00    -0.206 OA 
HETATM   50  H   UNL     1     -10.959   6.094  68.563  1.00  0.00     0.000 HD 
ENDBRANCH  28  48
BRANCH  40  51
HETATM   51  CB  UNL     1     -14.149   9.668  72.332  1.00  0.00     0.005 C  
HETATM   52  O   UNL     1     -13.997  11.080  72.181  1.00  0.00    -0.111 OA 
HETATM   53  H   UNL     1     -14.786  11.565  72.397  1.00  0.00     0.000 HD 
ENDBRANCH  40  51
BRANCH  31  54
HETATM   54  N   UNL     1     -11.740  11.753  68.306  1.00  0.00    -0.316 N  
HETATM   55  H   UNL     1     -12.647  12.089  68.631  1.00  0.00     0.000 HD 
HETATM   56  O   UNL     1      -9.916  12.157  67.000  1.00  0.00    -0.200 OA 
HETATM   57  C   UNL     1     -11.025  12.507  67.397  1.00  0.00    -0.259 C  
BRANCH  57  58
HETATM   58  C   UNL     1     -11.725  13.792  66.964  1.00  0.00    -0.420 C  
BRANCH  58  59
HETATM   59  C   UNL     1     -12.291  13.749  65.529  1.00  0.00    -0.475 C  
HETATM   60  H1  UNL     1     -13.667  14.780  64.394  1.00  0.00     0.000 HD 
HETATM   61  N   UNL     1     -13.293  14.809  65.342  1.00  0.00    -0.081 NA 
HETATM   62  H2  UNL     1     -12.922  15.729  65.577  1.00  0.00     0.000 HD 
BRANCH  59  63
HETATM   63  C   UNL     1     -11.208  13.950  64.442  1.00  0.00    -0.341 C  
BRANCH  63  64
HETATM   64  C   UNL     1     -10.769  12.648  63.765  1.00  0.00    -0.454 C  
BRANCH  64  65
HETATM   65  C   UNL     1     -11.864  11.581  63.813  1.00  0.00    -0.136 C  
HETATM   66  N   UNL     1     -13.015  12.029  63.037  1.00  0.00    -0.657 NA 
HETATM   67  H2  UNL     1     -12.762  12.279  62.081  1.00  0.00     0.000 HD 
HETATM   68  H1  UNL     1     -13.745  11.318  63.069  1.00  0.00     0.000 HD 
ENDBRANCH  64  65
ENDBRANCH  63  64
ENDBRANCH  59  63
ENDBRANCH  58  59
ENDBRANCH  57  58
ENDBRANCH  31  54
ENDBRANCH   1  14
TORSDOF 11
ENDMDL
MODEL       25
REMARK 921   NORMALIZED FREE ENERGY PREDICTED BY IDOCK:   -3.18 KCAL/MOL
REMARK 922        TOTAL FREE ENERGY PREDICTED BY IDOCK:   -7.18 KCAL/MOL
REMARK 923 INTER-LIGAND FREE ENERGY PREDICTED BY IDOCK:   -8.47 KCAL/MOL
REMARK 924 INTRA-LIGAND FREE ENERGY PREDICTED BY IDOCK:    1.29 KCAL/MOL
REMARK 927      BINDING AFFINITY PREDICTED BY RF-SCORE:    0.00 PKD
ROOT
HETATM    1  C   UNL     1      -7.755  11.408  69.393  1.00  0.00     0.157 C  
HETATM    2  C   UNL     1      -8.525  10.318  68.590  1.00  0.00    -0.127 C  
HETATM    3  H1  UNL     1      -4.577  10.252  70.839  1.00  0.00     0.000 HD 
HETATM    4  H   UNL     1      -7.240  11.051  71.484  1.00  0.00     0.000 HD 
HETATM    5  C   UNL     1      -7.640   9.095  68.357  1.00  0.00    -0.083 C  
HETATM    6  H2  UNL     1      -4.647   8.729  69.973  1.00  0.00     0.000 HD 
HETATM    7  N   UNL     1      -7.134   8.656  69.628  1.00  0.00    -0.054 NA 
HETATM    8  O   UNL     1      -8.375   8.045  67.772  1.00  0.00    -0.126 OA 
HETATM    9  N   UNL     1      -7.130  10.712  70.528  1.00  0.00    -0.126 NA 
HETATM   10  N   UNL     1      -5.130   9.536  70.368  1.00  0.00    -0.027 NA 
HETATM   11  H   UNL     1      -7.308   7.729  70.017  1.00  0.00     0.000 HD 
HETATM   12  C   UNL     1      -6.402   9.604  70.252  1.00  0.00    -0.076 C  
HETATM   13  H   UNL     1      -7.824   7.285  67.627  1.00  0.00     0.000 HD 
ENDROOT
BRANCH   1  14
HETATM   14  C   UNL     1      -6.719  12.234  68.558  1.00  0.00    -0.076 C  
HETATM   15  N   UNL     1      -9.317  16.287  68.185  1.00  0.00    -0.207 N  
HETATM   16  O   UNL     1      -8.169  14.492  70.075  1.00  0.00     0.410 OA 
HETATM   17  C   UNL     1      -7.658  14.630  68.971  1.00  0.00    -0.136 C  
HETATM   18  C   UNL     1      -6.926  16.730  67.968  1.00  0.00    -0.148 C  
HETATM   19  N   UNL     1     -10.682  11.979  64.413  1.00  0.00    -0.301 N  
HETATM   20  H   UNL     1      -6.724  13.972  67.307  1.00  0.00     0.000 HD 
HETATM   21  N   UNL     1      -7.031  13.668  68.231  1.00  0.00    -0.095 N  
HETATM   22  H   UNL     1      -9.865  16.447  69.031  1.00  0.00     0.000 HD 
HETATM   23  C   UNL     1      -7.956  15.932  68.271  1.00  0.00    -0.139 C  
HETATM   24  C   UNL     1      -9.910  16.417  66.919  1.00  0.00    -0.261 C  
HETATM   25  O   UNL     1      -5.501  11.983  66.462  1.00  0.00    -0.318 OA 
HETATM   26  O   UNL     1      -9.603  17.290  66.111  1.00  0.00    -0.382 OA 
HETATM   27  N   UNL     1      -7.492  10.878  66.581  1.00  0.00    -0.133 N  
HETATM   28  CA  UNL     1     -10.892  15.250  66.565  1.00  0.00    -0.311 C  
HETATM   29  N   UNL     1     -11.366  15.187  65.164  1.00  0.00    -0.371 N  
HETATM   30  C   UNL     1      -7.544  10.476  65.172  1.00  0.00    -0.046 C  
HETATM   31  CA  UNL     1      -9.008  10.160  64.756  1.00  0.00    -0.203 C  
HETATM   32  H   UNL     1      -8.256  10.586  67.191  1.00  0.00     0.000 HD 
HETATM   33  H   UNL     1     -11.212  15.947  64.502  1.00  0.00     0.000 HD 
HETATM   34  O   UNL     1      -9.222  11.503  62.738  1.00  0.00    -0.349 OA 
HETATM   35  C   UNL     1     -12.043  14.011  64.806  1.00  0.00    -0.437 C  
HETATM   36  C   UNL     1      -9.606  11.289  63.887  1.00  0.00    -0.245 C  
HETATM   37  H   UNL     1     -11.042  11.686  65.322  1.00  0.00     0.000 HD 
HETATM   38  C   UNL     1      -6.472  11.627  67.132  1.00  0.00    -0.137 C  
HETATM   39  O   UNL     1     -12.943  13.566  65.523  1.00  0.00    -0.586 OA 
HETATM   40  CA  UNL     1     -11.350  13.126  63.731  1.00  0.00    -0.322 C  
BRANCH  18  41
HETATM   41  N   UNL     1      -7.077  18.038  67.577  1.00  0.00    -0.192 N  
HETATM   42  H   UNL     1      -6.669  18.331  66.689  1.00  0.00     0.000 HD 
BRANCH  41  43
HETATM   43  C   UNL     1      -7.748  18.963  68.321  1.00  0.00    -0.301 C  
HETATM   44  H2  UNL     1      -9.145  19.167  66.768  1.00  0.00     0.000 HD 
HETATM   45  N   UNL     1      -8.848  19.457  67.700  1.00  0.00    -0.302 N  
HETATM   46  H1  UNL     1      -9.350  20.149  68.256  1.00  0.00     0.000 HD 
HETATM   47  O   UNL     1      -7.441  19.336  69.448  1.00  0.00    -0.266 OA 
ENDBRANCH  41  43
ENDBRANCH  18  41
BRANCH  28  48
HETATM   48  C   UNL     1     -10.103  13.951  66.822  1.00  0.00    -0.265 C  
HETATM   49  O   UNL     1     -10.663  13.210  67.916  1.00  0.00    -0.227 OA 
HETATM   50  H   UNL     1     -10.177  12.409  68.074  1.00  0.00     0.000 HD 
ENDBRANCH  28  48
BRANCH  40  51
HETATM   51  CB  UNL     1     -12.399  12.617  62.737  1.00  0.00     0.702 C  
HETATM   52  O   UNL     1     -13.153  11.511  63.235  1.00  0.00    -0.616 OA 
HETATM   53  H   UNL     1     -13.804  11.196  62.618  1.00  0.00     0.000 HD 
ENDBRANCH  40  51
BRANCH  31  54
HETATM   54  N   UNL     1      -9.117   8.887  64.034  1.00  0.00    -0.348 N  
HETATM   55  H   UNL     1      -9.924   8.286  64.200  1.00  0.00     0.000 HD 
HETATM   56  O   UNL     1      -7.175   9.194  62.881  1.00  0.00    -0.096 OA 
HETATM   57  C   UNL     1      -8.149   8.489  63.134  1.00  0.00    -0.165 C  
BRANCH  57  58
HETATM   58  C   UNL     1      -8.415   7.131  62.492  1.00  0.00     0.119 C  
BRANCH  58  59
HETATM   59  C   UNL     1      -7.839   5.936  63.281  1.00  0.00    -0.103 C  
HETATM   60  H1  UNL     1      -6.675   5.622  64.952  1.00  0.00     0.000 HD 
HETATM   61  N   UNL     1      -7.055   6.412  64.431  1.00  0.00    -0.054 NA 
HETATM   62  H2  UNL     1      -7.597   7.038  65.028  1.00  0.00     0.000 HD 
BRANCH  59  63
HETATM   63  C   UNL     1      -8.932   4.991  63.835  1.00  0.00     0.027 C  
BRANCH  63  64
HETATM   64  C   UNL     1      -8.580   4.375  65.193  1.00  0.00    -0.126 C  
BRANCH  64  65
HETATM   65  C   UNL     1      -9.823   3.890  65.941  1.00  0.00    -0.128 C  
HETATM   66  N   UNL     1     -10.947   4.770  65.639  1.00  0.00    -0.875 NA 
HETATM   67  H2  UNL     1     -11.110   4.857  64.635  1.00  0.00     0.000 HD 
HETATM   68  H1  UNL     1     -11.776   4.447  66.136  1.00  0.00     0.000 HD 
ENDBRANCH  64  65
ENDBRANCH  63  64
ENDBRANCH  59  63
ENDBRANCH  58  59
ENDBRANCH  57  58
ENDBRANCH  31  54
ENDBRANCH   1  14
TORSDOF 11
ENDMDL
MODEL       26
REMARK 921   NORMALIZED FREE ENERGY PREDICTED BY IDOCK:   -2.91 KCAL/MOL
REMARK 922        TOTAL FREE ENERGY PREDICTED BY IDOCK:   -6.75 KCAL/MOL
REMARK 923 INTER-LIGAND FREE ENERGY PREDICTED BY IDOCK:   -9.09 KCAL/MOL
REMARK 924 INTRA-LIGAND FREE ENERGY PREDICTED BY IDOCK:    2.35 KCAL/MOL
REMARK 927      BINDING AFFINITY PREDICTED BY RF-SCORE:    0.00 PKD
ROOT
HETATM    1  C   UNL     1     -11.153   8.999  72.058  1.00  0.00    -0.301 C  
HETATM    2  C   UNL     1     -10.615   9.895  70.903  1.00  0.00    -0.254 C  
HETATM    3  H1  UNL     1     -14.771   8.352  71.903  1.00  0.00     0.000 HD 
HETATM    4  H   UNL     1     -12.745   9.743  73.355  1.00  0.00     0.000 HD 
HETATM    5  C   UNL     1     -11.675  10.068  69.818  1.00  0.00    -0.082 C  
HETATM    6  H2  UNL     1     -14.911   9.074  70.311  1.00  0.00     0.000 HD 
HETATM    7  N   UNL     1     -12.880  10.547  70.435  1.00  0.00    -0.470 NA 
HETATM    8  O   UNL     1     -11.256  11.001  68.849  1.00  0.00    -0.220 OA 
HETATM    9  N   UNL     1     -12.486   9.522  72.392  1.00  0.00    -0.221 NA 
HETATM   10  N   UNL     1     -14.410   8.993  71.196  1.00  0.00    -0.061 NA 
HETATM   11  H   UNL     1     -13.327  11.432  70.192  1.00  0.00     0.000 HD 
HETATM   12  C   UNL     1     -13.358   9.699  71.370  1.00  0.00    -0.368 C  
HETATM   13  H   UNL     1     -11.915  11.108  68.173  1.00  0.00     0.000 HD 
ENDROOT
BRANCH   1  14
HETATM   14  C   UNL     1     -11.179   7.464  71.745  1.00  0.00    -0.246 C  
HETATM   15  N   UNL     1      -6.569   6.536  72.843  1.00  0.00    -0.067 N  
HETATM   16  O   UNL     1      -8.994   7.575  73.917  1.00  0.00    -0.213 OA 
HETATM   17  C   UNL     1      -9.027   6.738  73.025  1.00  0.00    -0.127 C  
HETATM   18  C   UNL     1      -7.963   4.542  73.060  1.00  0.00    -0.095 C  
HETATM   19  N   UNL     1      -7.550   8.827  67.511  1.00  0.00    -0.093 N  
HETATM   20  H   UNL     1      -9.761   5.912  71.335  1.00  0.00     0.000 HD 
HETATM   21  N   UNL     1      -9.944   6.650  72.016  1.00  0.00    -0.166 N  
HETATM   22  H   UNL     1      -6.257   7.116  73.623  1.00  0.00     0.000 HD 
HETATM   23  C   UNL     1      -7.805   5.862  72.904  1.00  0.00    -0.107 C  
HETATM   24  C   UNL     1      -5.772   6.398  71.696  1.00  0.00    -0.032 C  
HETATM   25  O   UNL     1     -11.756   6.030  69.862  1.00  0.00    -0.223 OA 
HETATM   26  O   UNL     1      -5.244   5.341  71.357  1.00  0.00    -0.004 OA 
HETATM   27  N   UNL     1     -11.063   8.133  69.319  1.00  0.00    -0.434 N  
HETATM   28  CA  UNL     1      -5.744   7.680  70.796  1.00  0.00    -0.030 C  
HETATM   29  N   UNL     1      -5.129   7.535  69.458  1.00  0.00    -0.015 N  
HETATM   30  C   UNL     1     -10.972   7.911  67.873  1.00  0.00     0.139 C  
HETATM   31  CA  UNL     1     -10.025   8.961  67.226  1.00  0.00    -0.216 C  
HETATM   32  H   UNL     1     -10.836   9.061  69.676  1.00  0.00     0.000 HD 
HETATM   33  H   UNL     1      -4.597   6.707  69.190  1.00  0.00     0.000 HD 
HETATM   34  O   UNL     1      -8.544   7.522  65.938  1.00  0.00    -0.144 OA 
HETATM   35  C   UNL     1      -5.326   8.612  68.581  1.00  0.00    -0.037 C  
HETATM   36  C   UNL     1      -8.662   8.338  66.852  1.00  0.00    -0.134 C  
HETATM   37  H   UNL     1      -7.684   9.588  68.177  1.00  0.00     0.000 HD 
HETATM   38  C   UNL     1     -11.435   7.162  70.227  1.00  0.00    -0.247 C  
HETATM   39  O   UNL     1      -5.125   9.769  68.958  1.00  0.00    -0.037 OA 
HETATM   40  CA  UNL     1      -6.166   8.309  67.307  1.00  0.00    -0.056 C  
BRANCH  18  41
HETATM   41  N   UNL     1      -6.913   3.675  73.235  1.00  0.00    -0.047 N  
HETATM   42  H   UNL     1      -6.151   3.952  73.855  1.00  0.00     0.000 HD 
BRANCH  41  43
HETATM   43  C   UNL     1      -6.842   2.460  72.620  1.00  0.00    -0.023 C  
HETATM   44  H2  UNL     1      -4.767   2.709  72.417  1.00  0.00     0.000 HD 
HETATM   45  N   UNL     1      -5.581   2.117  72.251  1.00  0.00    -0.007 N  
HETATM   46  H1  UNL     1      -5.528   1.208  71.791  1.00  0.00     0.000 HD 
HETATM   47  O   UNL     1      -7.786   1.707  72.409  1.00  0.00    -0.042 OA 
ENDBRANCH  41  43
ENDBRANCH  18  41
BRANCH  28  48
HETATM   48  C   UNL     1      -7.220   8.057  70.564  1.00  0.00    -0.052 C  
HETATM   49  O   UNL     1      -7.441   9.457  70.792  1.00  0.00    -0.129 OA 
HETATM   50  H   UNL     1      -8.351   9.690  70.649  1.00  0.00     0.000 HD 
ENDBRANCH  28  48
BRANCH  40  51
HETATM   51  CB  UNL     1      -5.517   8.987  66.095  1.00  0.00    -0.041 C  
HETATM   52  O   UNL     1      -6.442   9.746  65.316  1.00  0.00    -0.078 OA 
HETATM   53  H   UNL     1      -6.038  10.167  64.565  1.00  0.00     0.000 HD 
ENDBRANCH  40  51
BRANCH  31  54
HETATM   54  N   UNL     1     -10.616   9.579  66.033  1.00  0.00     0.038 N  
HETATM   55  H   UNL     1     -11.453   9.167  65.619  1.00  0.00     0.000 HD 
HETATM   56  O   UNL     1      -9.073  11.253  65.942  1.00  0.00    -0.200 OA 
HETATM   57  C   UNL     1     -10.063  10.706  65.461  1.00  0.00    -0.280 C  
BRANCH  57  58
HETATM   58  C   UNL     1     -10.796  11.200  64.218  1.00  0.00    -0.354 C  
BRANCH  58  59
HETATM   59  C   UNL     1     -11.257  12.671  64.300  1.00  0.00    -0.362 C  
HETATM   60  H1  UNL     1     -12.590  13.914  63.337  1.00  0.00     0.000 HD 
HETATM   61  N   UNL     1     -12.285  12.942  63.283  1.00  0.00    -0.743 NA 
HETATM   62  H2  UNL     1     -13.069  12.292  63.352  1.00  0.00     0.000 HD 
BRANCH  59  63
HETATM   63  C   UNL     1     -11.866  13.041  65.673  1.00  0.00    -0.445 C  
BRANCH  63  64
HETATM   64  C   UNL     1     -12.113  14.543  65.850  1.00  0.00    -0.288 C  
BRANCH  64  65
HETATM   65  C   UNL     1     -10.860  15.368  65.547  1.00  0.00    -0.374 C  
HETATM   66  N   UNL     1     -11.127  16.267  64.430  1.00  0.00    -1.111 NA 
HETATM   67  H2  UNL     1     -11.944  16.855  64.594  1.00  0.00     0.000 HD 
HETATM   68  H1  UNL     1     -10.292  16.817  64.229  1.00  0.00     0.000 HD 
ENDBRANCH  64  65
ENDBRANCH  63  64
ENDBRANCH  59  63
ENDBRANCH  58  59
ENDBRANCH  57  58
ENDBRANCH  31  54
ENDBRANCH   1  14
TORSDOF 11
ENDMDL
MODEL       27
REMARK 921   NORMALIZED FREE ENERGY PREDICTED BY IDOCK:   -2.90 KCAL/MOL
REMARK 922        TOTAL FREE ENERGY PREDICTED BY IDOCK:   -6.73 KCAL/MOL
REMARK 923 INTER-LIGAND FREE ENERGY PREDICTED BY IDOCK:   -5.73 KCAL/MOL
REMARK 924 INTRA-LIGAND FREE ENERGY PREDICTED BY IDOCK:   -0.99 KCAL/MOL
REMARK 927      BINDING AFFINITY PREDICTED BY RF-SCORE:    0.00 PKD
ROOT
HETATM    1  C   UNL     1     -10.462  12.457  65.121  1.00  0.00    -0.292 C  
HETATM    2  C   UNL     1      -9.524  11.295  64.677  1.00  0.00    -0.215 C  
HETATM    3  H1  UNL     1     -13.667  12.579  63.320  1.00  0.00     0.000 HD 
HETATM    4  H   UNL     1     -11.162  13.908  63.648  1.00  0.00     0.000 HD 
HETATM    5  C   UNL     1     -10.274  10.309  63.786  1.00  0.00     0.279 C  
HETATM    6  H2  UNL     1     -13.380  11.032  62.546  1.00  0.00     0.000 HD 
HETATM    7  N   UNL     1     -10.873  11.041  62.704  1.00  0.00    -0.501 NA 
HETATM    8  O   UNL     1      -9.397   9.343  63.252  1.00  0.00    -0.471 OA 
HETATM    9  N   UNL     1     -11.143  12.919  63.903  1.00  0.00    -0.414 NA 
HETATM   10  N   UNL     1     -13.010  11.869  62.997  1.00  0.00    -0.389 NA 
HETATM   11  H   UNL     1     -10.664  10.870  61.721  1.00  0.00     0.000 HD 
HETATM   12  C   UNL     1     -11.743  11.981  63.132  1.00  0.00    -0.183 C  
HETATM   13  H   UNL     1      -9.865   8.729  62.698  1.00  0.00     0.000 HD 
ENDROOT
BRANCH   1  14
HETATM   14  C   UNL     1     -11.471  12.090  66.263  1.00  0.00    -0.345 C  
HETATM   15  N   UNL     1     -10.939  16.119  68.871  1.00  0.00    -0.302 N  
HETATM   16  O   UNL     1     -11.663  15.167  66.286  1.00  0.00    -0.180 OA 
HETATM   17  C   UNL     1     -11.845  14.465  67.272  1.00  0.00    -0.405 C  
HETATM   18  C   UNL     1     -13.108  15.071  69.270  1.00  0.00     1.034 C  
HETATM   19  N   UNL     1      -6.804  11.994  69.604  1.00  0.00    -0.339 N  
HETATM   20  H   UNL     1     -11.876  12.711  68.272  1.00  0.00     0.000 HD 
HETATM   21  N   UNL     1     -11.744  13.104  67.339  1.00  0.00    -0.355 N  
HETATM   22  H   UNL     1     -10.784  16.926  68.266  1.00  0.00     0.000 HD 
HETATM   23  C   UNL     1     -11.966  15.198  68.585  1.00  0.00    -0.240 C  
HETATM   24  C   UNL     1     -10.131  15.912  70.001  1.00  0.00    -0.109 C  
HETATM   25  O   UNL     1     -11.800  10.266  67.844  1.00  0.00    -0.162 OA 
HETATM   26  O   UNL     1     -10.548  15.974  71.155  1.00  0.00     0.223 OA 
HETATM   27  N   UNL     1      -9.652  10.592  67.152  1.00  0.00    -0.166 N  
HETATM   28  CA  UNL     1      -8.680  15.437  69.654  1.00  0.00    -0.134 C  
HETATM   29  N   UNL     1      -7.850  14.966  70.785  1.00  0.00     0.715 N  
HETATM   30  C   UNL     1      -9.029   9.658  68.096  1.00  0.00    -0.123 C  
HETATM   31  CA  UNL     1      -7.525  10.005  68.282  1.00  0.00    -0.079 C  
HETATM   32  H   UNL     1      -9.046  11.081  66.493  1.00  0.00     0.000 HD 
HETATM   33  H   UNL     1      -8.128  15.100  71.757  1.00  0.00     0.000 HD 
HETATM   34  O   UNL     1      -7.361  10.087  70.708  1.00  0.00    -0.323 OA 
HETATM   35  C   UNL     1      -6.653  14.324  70.433  1.00  0.00    -0.001 C  
HETATM   36  C   UNL     1      -7.267  10.692  69.641  1.00  0.00    -0.139 C  
HETATM   37  H   UNL     1      -6.628  12.415  68.692  1.00  0.00     0.000 HD 
HETATM   38  C   UNL     1     -11.007  10.848  67.102  1.00  0.00    -0.272 C  
HETATM   39  O   UNL     1      -5.896  14.829  69.600  1.00  0.00    -0.095 OA 
HETATM   40  CA  UNL     1      -6.547  12.821  70.819  1.00  0.00     1.384 C  
BRANCH  18  41
HETATM   41  N   UNL     1     -13.445  15.880  70.327  1.00  0.00    -0.468 N  
HETATM   42  H   UNL     1     -13.684  16.853  70.138  1.00  0.00     0.000 HD 
BRANCH  41  43
HETATM   43  C   UNL     1     -13.475  15.441  71.618  1.00  0.00    -0.502 C  
HETATM   44  H2  UNL     1     -12.546  13.659  71.010  1.00  0.00     0.000 HD 
HETATM   45  N   UNL     1     -12.935  14.206  71.779  1.00  0.00    -0.331 N  
HETATM   46  H1  UNL     1     -12.957  13.878  72.744  1.00  0.00     0.000 HD 
HETATM   47  O   UNL     1     -13.918  16.063  72.576  1.00  0.00    -0.413 OA 
ENDBRANCH  41  43
ENDBRANCH  18  41
BRANCH  28  48
HETATM   48  C   UNL     1      -8.852  14.235  68.704  1.00  0.00    -0.150 C  
HETATM   49  O   UNL     1      -7.925  14.298  67.610  1.00  0.00    -0.151 OA 
HETATM   50  H   UNL     1      -8.031  13.558  67.025  1.00  0.00     0.000 HD 
ENDBRANCH  28  48
BRANCH  40  51
HETATM   51  CB  UNL     1      -5.147  12.535  71.372  1.00  0.00    -0.132 C  
HETATM   52  O   UNL     1      -5.167  11.795  72.594  1.00  0.00    -0.288 OA 
HETATM   53  H   UNL     1      -4.298  11.618  72.936  1.00  0.00     0.000 HD 
ENDBRANCH  40  51
BRANCH  31  54
HETATM   54  N   UNL     1      -6.666   8.820  68.170  1.00  0.00    -0.064 N  
HETATM   55  H   UNL     1      -5.878   8.712  68.808  1.00  0.00     0.000 HD 
HETATM   56  O   UNL     1      -7.859   7.923  66.447  1.00  0.00    -0.093 OA 
HETATM   57  C   UNL     1      -6.904   7.849  67.218  1.00  0.00    -0.070 C  
BRANCH  57  58
HETATM   58  C   UNL     1      -5.901   6.700  67.233  1.00  0.00    -0.013 C  
BRANCH  58  59
HETATM   59  C   UNL     1      -6.258   5.564  68.215  1.00  0.00    -0.030 C  
HETATM   60  H1  UNL     1      -7.123   5.361  70.074  1.00  0.00     0.000 HD 
HETATM   61  N   UNL     1      -6.888   6.112  69.425  1.00  0.00    -0.060 NA 
HETATM   62  H2  UNL     1      -7.698   6.692  69.204  1.00  0.00     0.000 HD 
BRANCH  59  63
HETATM   63  C   UNL     1      -7.243   4.531  67.617  1.00  0.00    -0.065 C  
BRANCH  63  64
HETATM   64  C   UNL     1      -7.061   4.309  66.112  1.00  0.00    -0.067 C  
BRANCH  64  65
HETATM   65  C   UNL     1      -8.314   4.689  65.322  1.00  0.00    -0.124 C  
HETATM   66  N   UNL     1      -7.937   5.510  64.177  1.00  0.00    -0.114 NA 
HETATM   67  H2  UNL     1      -7.236   5.057  63.591  1.00  0.00     0.000 HD 
HETATM   68  H1  UNL     1      -8.773   5.763  63.650  1.00  0.00     0.000 HD 
ENDBRANCH  64  65
ENDBRANCH  63  64
ENDBRANCH  59  63
ENDBRANCH  58  59
ENDBRANCH  57  58
ENDBRANCH  31  54
ENDBRANCH   1  14
TORSDOF 11
ENDMDL
MODEL       28
REMARK 921   NORMALIZED FREE ENERGY PREDICTED BY IDOCK:   -2.88 KCAL/MOL
REMARK 922        TOTAL FREE ENERGY PREDICTED BY IDOCK:   -6.70 KCAL/MOL
REMARK 923 INTER-LIGAND FREE ENERGY PREDICTED BY IDOCK:   -9.84 KCAL/MOL
REMARK 924 INTRA-LIGAND FREE ENERGY PREDICTED BY IDOCK:    3.14 KCAL/MOL
REMARK 927      BINDING AFFINITY PREDICTED BY RF-SCORE:    0.00 PKD
ROOT
HETATM    1  C   UNL     1      -6.130   9.631  69.590  1.00  0.00    -0.043 C  
HETATM    2  C   UNL     1      -7.207   9.917  70.678  1.00  0.00    -0.035 C  
HETATM    3  H1  UNL     1      -4.902   6.164  69.560  1.00  0.00     0.000 HD 
HETATM    4  H   UNL     1      -4.176   8.854  70.178  1.00  0.00     0.000 HD 
HETATM    5  C   UNL     1      -7.704   8.614  71.299  1.00  0.00    -0.118 C  
HETATM    6  H2  UNL     1      -6.122   5.639  70.704  1.00  0.00     0.000 HD 
HETATM    7  N   UNL     1      -6.565   7.872  71.765  1.00  0.00    -0.046 NA 
HETATM    8  O   UNL     1      -8.560   8.869  72.389  1.00  0.00    -0.399 OA 
HETATM    9  N   UNL     1      -5.182   8.683  70.195  1.00  0.00    -0.022 NA 
HETATM   10  N   UNL     1      -5.556   6.390  70.309  1.00  0.00    -0.018 NA 
HETATM   11  H   UNL     1      -6.427   7.601  72.739  1.00  0.00     0.000 HD 
HETATM   12  C   UNL     1      -5.699   7.573  70.774  1.00  0.00    -0.030 C  
HETATM   13  H   UNL     1      -8.869   8.057  72.775  1.00  0.00     0.000 HD 
ENDROOT
BRANCH   1  14
HETATM   14  C   UNL     1      -6.694   9.116  68.222  1.00  0.00    -0.060 C  
HETATM   15  N   UNL     1      -9.940  12.625  67.535  1.00  0.00    -0.203 N  
HETATM   16  O   UNL     1      -7.160  12.150  67.935  1.00  0.00    -0.084 OA 
HETATM   17  C   UNL     1      -7.857  11.299  67.398  1.00  0.00    -0.128 C  
HETATM   18  C   UNL     1      -9.256  11.608  65.423  1.00  0.00    -0.065 C  
HETATM   19  N   UNL     1     -11.550   8.281  71.166  1.00  0.00    -0.276 N  
HETATM   20  H   UNL     1      -8.448   9.404  67.028  1.00  0.00     0.000 HD 
HETATM   21  N   UNL     1      -7.727   9.943  67.508  1.00  0.00    -0.092 N  
HETATM   22  H   UNL     1      -9.593  13.516  67.892  1.00  0.00     0.000 HD 
HETATM   23  C   UNL     1      -9.116  11.804  66.739  1.00  0.00    -0.194 C  
HETATM   24  C   UNL     1     -11.245  12.200  67.831  1.00  0.00    -0.272 C  
HETATM   25  O   UNL     1      -7.678   7.066  67.349  1.00  0.00    -0.106 OA 
HETATM   26  O   UNL     1     -12.130  12.083  66.986  1.00  0.00    -0.603 OA 
HETATM   27  N   UNL     1      -7.967   7.421  69.582  1.00  0.00    -0.123 N  
HETATM   28  CA  UNL     1     -11.430  11.735  69.315  1.00  0.00    -0.306 C  
HETATM   29  N   UNL     1     -12.701  11.050  69.639  1.00  0.00    -0.227 N  
HETATM   30  C   UNL     1      -8.908   6.319  69.807  1.00  0.00    -0.140 C  
HETATM   31  CA  UNL     1      -9.734   6.572  71.099  1.00  0.00    -0.174 C  
HETATM   32  H   UNL     1      -7.697   7.991  70.384  1.00  0.00     0.000 HD 
HETATM   33  H   UNL     1     -13.489  11.029  68.992  1.00  0.00     0.000 HD 
HETATM   34  O   UNL     1     -12.000   6.238  70.278  1.00  0.00    -0.273 OA 
HETATM   35  C   UNL     1     -12.752  10.431  70.898  1.00  0.00    -0.385 C  
HETATM   36  C   UNL     1     -11.178   7.010  70.771  1.00  0.00    -0.285 C  
HETATM   37  H   UNL     1     -10.869   8.843  71.678  1.00  0.00     0.000 HD 
HETATM   38  C   UNL     1      -7.425   7.733  68.352  1.00  0.00    -0.104 C  
HETATM   39  O   UNL     1     -12.389  11.039  71.907  1.00  0.00    -0.104 OA 
HETATM   40  CA  UNL     1     -12.888   8.881  70.890  1.00  0.00     0.093 C  
BRANCH  18  41
HETATM   41  N   UNL     1     -10.212  12.239  64.666  1.00  0.00    -0.309 N  
HETATM   42  H   UNL     1     -10.773  12.971  65.102  1.00  0.00     0.000 HD 
BRANCH  41  43
HETATM   43  C   UNL     1     -10.445  11.934  63.357  1.00  0.00    -0.441 C  
HETATM   44  H2  UNL     1     -12.201  13.082  63.425  1.00  0.00     0.000 HD 
HETATM   45  N   UNL     1     -11.581  12.492  62.869  1.00  0.00    -0.631 N  
HETATM   46  H1  UNL     1     -11.756  12.264  61.890  1.00  0.00     0.000 HD 
HETATM   47  O   UNL     1      -9.727  11.242  62.644  1.00  0.00    -0.283 OA 
ENDBRANCH  41  43
ENDBRANCH  18  41
BRANCH  28  48
HETATM   48  C   UNL     1     -10.302  10.718  69.576  1.00  0.00    -0.144 C  
HETATM   49  O   UNL     1     -10.425   9.573  68.719  1.00  0.00    -0.209 OA 
HETATM   50  H   UNL     1      -9.729   8.946  68.879  1.00  0.00     0.000 HD 
ENDBRANCH  28  48
BRANCH  40  51
HETATM   51  CB  UNL     1     -13.896   8.453  71.962  1.00  0.00    -0.388 C  
HETATM   52  O   UNL     1     -13.668   9.077  73.226  1.00  0.00    -1.072 OA 
HETATM   53  H   UNL     1     -14.294   8.812  73.891  1.00  0.00     0.000 HD 
ENDBRANCH  40  51
BRANCH  31  54
HETATM   54  N   UNL     1      -9.774   5.391  71.970  1.00  0.00    -0.159 N  
HETATM   55  H   UNL     1     -10.162   4.518  71.611  1.00  0.00     0.000 HD 
HETATM   56  O   UNL     1      -8.797   6.460  73.730  1.00  0.00    -0.123 OA 
HETATM   57  C   UNL     1      -9.299   5.438  73.265  1.00  0.00    -0.135 C  
BRANCH  57  58
HETATM   58  C   UNL     1      -9.438   4.126  74.030  1.00  0.00    -0.121 C  
BRANCH  58  59
HETATM   59  C   UNL     1     -10.873   3.558  74.051  1.00  0.00    -0.192 C  
HETATM   60  H1  UNL     1     -12.773   4.177  73.548  1.00  0.00     0.000 HD 
HETATM   61  N   UNL     1     -11.825   4.552  73.534  1.00  0.00    -0.259 NA 
HETATM   62  H2  UNL     1     -11.561   4.885  72.606  1.00  0.00     0.000 HD 
BRANCH  59  63
HETATM   63  C   UNL     1     -11.034   2.282  73.191  1.00  0.00    -0.243 C  
BRANCH  63  64
HETATM   64  C   UNL     1      -9.715   1.763  72.610  1.00  0.00    -0.153 C  
BRANCH  64  65
HETATM   65  C   UNL     1      -9.823   1.480  71.110  1.00  0.00    -0.090 C  
HETATM   66  N   UNL     1      -9.673   2.726  70.367  1.00  0.00    -0.066 NA 
HETATM   67  H2  UNL     1      -8.811   3.216  70.606  1.00  0.00     0.000 HD 
HETATM   68  H1  UNL     1      -9.745   2.537  69.368  1.00  0.00     0.000 HD 
ENDBRANCH  64  65
ENDBRANCH  63  64
ENDBRANCH  59  63
ENDBRANCH  58  59
ENDBRANCH  57  58
ENDBRANCH  31  54
ENDBRANCH   1  14
TORSDOF 11
ENDMDL
MODEL       29
REMARK 921   NORMALIZED FREE ENERGY PREDICTED BY IDOCK:   -2.66 KCAL/MOL
REMARK 922        TOTAL FREE ENERGY PREDICTED BY IDOCK:   -6.34 KCAL/MOL
REMARK 923 INTER-LIGAND FREE ENERGY PREDICTED BY IDOCK:   -6.08 KCAL/MOL
REMARK 924 INTRA-LIGAND FREE ENERGY PREDICTED BY IDOCK:   -0.26 KCAL/MOL
REMARK 927      BINDING AFFINITY PREDICTED BY RF-SCORE:    0.00 PKD
ROOT
HETATM    1  C   UNL     1      -6.816  10.605  66.096  1.00  0.00    -0.135 C  
HETATM    2  C   UNL     1      -6.563   9.103  66.425  1.00  0.00    -0.067 C  
HETATM    3  H1  UNL     1      -5.897  11.571  62.668  1.00  0.00     0.000 HD 
HETATM    4  H   UNL     1      -5.164  11.857  65.412  1.00  0.00     0.000 HD 
HETATM    5  C   UNL     1      -6.249   8.319  65.153  1.00  0.00    -0.045 C  
HETATM    6  H2  UNL     1      -5.624   9.907  62.188  1.00  0.00     0.000 HD 
HETATM    7  N   UNL     1      -5.165   8.973  64.475  1.00  0.00    -0.049 NA 
HETATM    8  O   UNL     1      -5.865   6.998  65.457  1.00  0.00    -0.034 OA 
HETATM    9  N   UNL     1      -5.714  11.020  65.215  1.00  0.00    -0.082 NA 
HETATM   10  N   UNL     1      -5.675  10.610  62.926  1.00  0.00    -0.153 NA 
HETATM   11  H   UNL     1      -4.271   8.525  64.273  1.00  0.00     0.000 HD 
HETATM   12  C   UNL     1      -5.459  10.246  64.133  1.00  0.00    -0.139 C  
HETATM   13  H   UNL     1      -5.670   6.510  64.666  1.00  0.00     0.000 HD 
ENDROOT
BRANCH   1  14
HETATM   14  C   UNL     1      -8.221  10.916  65.477  1.00  0.00    -0.052 C  
HETATM   15  N   UNL     1     -10.122  13.107  69.337  1.00  0.00    -0.100 N  
HETATM   16  O   UNL     1      -7.952  13.230  67.496  1.00  0.00    -0.161 OA 
HETATM   17  C   UNL     1      -9.023  12.746  67.152  1.00  0.00    -0.214 C  
HETATM   18  C   UNL     1     -11.207  13.827  67.271  1.00  0.00    -0.311 C  
HETATM   19  N   UNL     1     -10.166   7.222  69.416  1.00  0.00    -0.187 N  
HETATM   20  H   UNL     1     -10.183  11.410  66.180  1.00  0.00     0.000 HD 
HETATM   21  N   UNL     1      -9.212  11.703  66.290  1.00  0.00    -0.214 N  
HETATM   22  H   UNL     1      -9.412  13.641  69.839  1.00  0.00     0.000 HD 
HETATM   23  C   UNL     1     -10.229  13.200  67.935  1.00  0.00    -0.233 C  
HETATM   24  C   UNL     1     -11.007  12.269  70.035  1.00  0.00     0.631 C  
HETATM   25  O   UNL     1     -10.026   9.672  64.414  1.00  0.00     0.092 OA 
HETATM   26  O   UNL     1     -12.217  12.472  70.112  1.00  0.00    -0.302 OA 
HETATM   27  N   UNL     1      -8.747   8.487  65.884  1.00  0.00    -0.165 N  
HETATM   28  CA  UNL     1     -10.336  10.963  70.577  1.00  0.00     1.205 C  
HETATM   29  N   UNL     1     -11.246   9.922  71.107  1.00  0.00    -0.362 N  
HETATM   30  C   UNL     1      -9.586   7.284  65.903  1.00  0.00     0.283 C  
HETATM   31  CA  UNL     1      -9.318   6.462  67.195  1.00  0.00    -0.124 C  
HETATM   32  H   UNL     1      -7.899   8.488  66.450  1.00  0.00     0.000 HD 
HETATM   33  H   UNL     1     -12.236  10.101  71.277  1.00  0.00     0.000 HD 
HETATM   34  O   UNL     1     -11.585   6.130  68.016  1.00  0.00     0.174 OA 
HETATM   35  C   UNL     1     -10.657   8.675  71.361  1.00  0.00    -0.264 C  
HETATM   36  C   UNL     1     -10.471   6.616  68.212  1.00  0.00    -0.209 C  
HETATM   37  H   UNL     1      -9.199   7.501  69.580  1.00  0.00     0.000 HD 
HETATM   38  C   UNL     1      -9.037   9.617  65.147  1.00  0.00    -0.228 C  
HETATM   39  O   UNL     1      -9.600   8.600  71.993  1.00  0.00    -0.271 OA 
HETATM   40  CA  UNL     1     -11.166   7.491  70.490  1.00  0.00    -0.269 C  
BRANCH  18  41
HETATM   41  N   UNL     1     -12.218  14.515  67.895  1.00  0.00    -0.622 N  
HETATM   42  H   UNL     1     -13.180  14.209  67.745  1.00  0.00     0.000 HD 
BRANCH  41  43
HETATM   43  C   UNL     1     -11.997  15.588  68.707  1.00  0.00    -0.243 C  
HETATM   44  H2  UNL     1     -13.272  14.738  70.141  1.00  0.00     0.000 HD 
HETATM   45  N   UNL     1     -12.664  15.517  69.887  1.00  0.00    -0.605 N  
HETATM   46  H1  UNL     1     -12.498  16.319  70.494  1.00  0.00     0.000 HD 
HETATM   47  O   UNL     1     -11.268  16.540  68.453  1.00  0.00    -0.359 OA 
ENDBRANCH  41  43
ENDBRANCH  18  41
BRANCH  28  48
HETATM   48  C   UNL     1      -9.609  10.338  69.370  1.00  0.00    -0.218 C  
HETATM   49  O   UNL     1      -8.185  10.462  69.499  1.00  0.00    -0.213 OA 
HETATM   50  H   UNL     1      -7.736  10.077  68.755  1.00  0.00     0.000 HD 
ENDBRANCH  28  48
BRANCH  40  51
HETATM   51  CB  UNL     1     -11.348   6.251  71.372  1.00  0.00    -0.296 C  
HETATM   52  O   UNL     1     -12.236   6.469  72.469  1.00  0.00    -0.513 OA 
HETATM   53  H   UNL     1     -12.349   5.699  73.016  1.00  0.00     0.000 HD 
ENDBRANCH  40  51
BRANCH  31  54
HETATM   54  N   UNL     1      -9.111   5.037  66.912  1.00  0.00    -0.116 N  
HETATM   55  H   UNL     1      -9.871   4.493  66.503  1.00  0.00     0.000 HD 
HETATM   56  O   UNL     1      -6.956   5.041  67.656  1.00  0.00    -0.059 OA 
HETATM   57  C   UNL     1      -7.909   4.419  67.189  1.00  0.00    -0.097 C  
BRANCH  57  58
HETATM   58  C   UNL     1      -7.878   2.932  66.849  1.00  0.00    -0.075 C  
BRANCH  58  59
HETATM   59  C   UNL     1      -8.201   2.615  65.374  1.00  0.00    -0.089 C  
HETATM   60  H1  UNL     1      -7.295   1.687  63.772  1.00  0.00     0.000 HD 
HETATM   61  N   UNL     1      -7.081   1.897  64.748  1.00  0.00    -0.047 NA 
HETATM   62  H2  UNL     1      -6.828   1.058  65.270  1.00  0.00     0.000 HD 
BRANCH  59  63
HETATM   63  C   UNL     1      -9.461   1.733  65.203  1.00  0.00     0.048 C  
BRANCH  63  64
HETATM   64  C   UNL     1     -10.357   2.160  64.036  1.00  0.00     0.050 C  
BRANCH  64  65
HETATM   65  C   UNL     1     -10.088   3.604  63.608  1.00  0.00    -0.199 C  
HETATM   66  N   UNL     1     -10.956   4.505  64.359  1.00  0.00    -0.441 NA 
HETATM   67  H2  UNL     1     -10.863   4.378  65.367  1.00  0.00     0.000 HD 
HETATM   68  H1  UNL     1     -10.776   5.467  64.074  1.00  0.00     0.000 HD 
ENDBRANCH  64  65
ENDBRANCH  63  64
ENDBRANCH  59  63
ENDBRANCH  58  59
ENDBRANCH  57  58
ENDBRANCH  31  54
ENDBRANCH   1  14
TORSDOF 11
ENDMDL
MODEL       30
REMARK 921   NORMALIZED FREE ENERGY PREDICTED BY IDOCK:   -2.66 KCAL/MOL
REMARK 922        TOTAL FREE ENERGY PREDICTED BY IDOCK:   -6.33 KCAL/MOL
REMARK 923 INTER-LIGAND FREE ENERGY PREDICTED BY IDOCK:   -5.76 KCAL/MOL
REMARK 924 INTRA-LIGAND FREE ENERGY PREDICTED BY IDOCK:   -0.58 KCAL/MOL
REMARK 927      BINDING AFFINITY PREDICTED BY RF-SCORE:    0.00 PKD
ROOT
HETATM    1  C   UNL     1      -6.265  10.688  69.405  1.00  0.00    -0.051 C  
HETATM    2  C   UNL     1      -6.630  12.201  69.349  1.00  0.00    -0.090 C  
HETATM    3  H1  UNL     1      -5.203   9.517  72.726  1.00  0.00     0.000 HD 
HETATM    4  H   UNL     1      -4.282  10.077  70.083  1.00  0.00     0.000 HD 
HETATM    5  C   UNL     1      -6.727  12.784  70.757  1.00  0.00     1.754 C  
HETATM    6  H2  UNL     1      -5.656  11.028  73.490  1.00  0.00     0.000 HD 
HETATM    7  N   UNL     1      -5.505  12.489  71.453  1.00  0.00    -0.379 NA 
HETATM    8  O   UNL     1      -6.900  14.182  70.713  1.00  0.00    -0.364 OA 
HETATM    9  N   UNL     1      -5.134  10.576  70.339  1.00  0.00    -0.041 NA 
HETATM   10  N   UNL     1      -5.380  10.518  72.652  1.00  0.00    -0.292 NA 
HETATM   11  H   UNL     1      -4.882  13.204  71.831  1.00  0.00     0.000 HD 
HETATM   12  C   UNL     1      -5.271  11.163  71.552  1.00  0.00     0.018 C  
HETATM   13  H   UNL     1      -6.961  14.544  71.589  1.00  0.00     0.000 HD 
ENDROOT
BRANCH   1  14
HETATM   14  C   UNL     1      -7.449   9.738  69.790  1.00  0.00    -0.127 C  
HETATM   15  N   UNL     1      -6.857   6.541  66.219  1.00  0.00    -0.056 N  
HETATM   16  O   UNL     1      -5.528   7.746  68.431  1.00  0.00    -0.026 OA 
HETATM   17  C   UNL     1      -6.745   7.621  68.441  1.00  0.00    -0.061 C  
HETATM   18  C   UNL     1      -7.989   5.543  68.140  1.00  0.00    -0.096 C  
HETATM   19  N   UNL     1      -9.736  11.480  64.821  1.00  0.00    -0.291 N  
HETATM   20  H   UNL     1      -8.630   8.222  68.843  1.00  0.00     0.000 HD 
HETATM   21  N   UNL     1      -7.654   8.478  68.994  1.00  0.00    -0.093 N  
HETATM   22  H   UNL     1      -5.868   6.421  65.999  1.00  0.00     0.000 HD 
HETATM   23  C   UNL     1      -7.298   6.530  67.558  1.00  0.00    -0.095 C  
HETATM   24  C   UNL     1      -7.798   6.719  65.192  1.00  0.00    -0.119 C  
HETATM   25  O   UNL     1      -9.848   9.930  70.172  1.00  0.00    -0.247 OA 
HETATM   26  O   UNL     1      -8.676   5.902  64.926  1.00  0.00    -0.090 OA 
HETATM   27  N   UNL     1      -8.951  11.475  68.755  1.00  0.00    -0.353 N  
HETATM   28  CA  UNL     1      -7.726   8.128  64.515  1.00  0.00    -0.121 C  
HETATM   29  N   UNL     1      -8.834   8.479  63.598  1.00  0.00    -0.367 N  
HETATM   30  C   UNL     1     -10.224  12.046  68.304  1.00  0.00    -0.206 C  
HETATM   31  CA  UNL     1     -10.036  12.767  66.939  1.00  0.00    -0.232 C  
HETATM   32  H   UNL     1      -8.089  11.872  68.382  1.00  0.00     0.000 HD 
HETATM   33  H   UNL     1      -9.516   7.791  63.281  1.00  0.00     0.000 HD 
HETATM   34  O   UNL     1     -11.837  11.777  65.636  1.00  0.00    -0.346 OA 
HETATM   35  C   UNL     1      -8.882   9.821  63.192  1.00  0.00    -0.246 C  
HETATM   36  C   UNL     1     -10.625  11.938  65.775  1.00  0.00    -0.267 C  
HETATM   37  H   UNL     1      -8.754  11.740  64.917  1.00  0.00     0.000 HD 
HETATM   38  C   UNL     1      -8.850  10.433  69.654  1.00  0.00    -0.026 C  
HETATM   39  O   UNL     1      -7.866  10.386  62.781  1.00  0.00    -0.147 OA 
HETATM   40  CA  UNL     1     -10.126  10.630  63.660  1.00  0.00    -0.245 C  
BRANCH  18  41
HETATM   41  N   UNL     1      -8.313   4.373  67.499  1.00  0.00    -0.099 N  
HETATM   42  H   UNL     1      -9.197   4.323  66.992  1.00  0.00     0.000 HD 
BRANCH  41  43
HETATM   43  C   UNL     1      -7.506   3.273  67.508  1.00  0.00    -0.062 C  
HETATM   44  H2  UNL     1      -9.088   2.134  66.729  1.00  0.00     0.000 HD 
HETATM   45  N   UNL     1      -8.120   2.152  67.049  1.00  0.00    -0.074 N  
HETATM   46  H1  UNL     1      -7.517   1.330  67.056  1.00  0.00     0.000 HD 
HETATM   47  O   UNL     1      -6.336   3.246  67.870  1.00  0.00    -0.034 OA 
ENDBRANCH  41  43
ENDBRANCH  18  41
BRANCH  28  48
HETATM   48  C   UNL     1      -7.772   9.147  65.671  1.00  0.00    -0.094 C  
HETATM   49  O   UNL     1      -6.937  10.282  65.398  1.00  0.00    -0.133 OA 
HETATM   50  H   UNL     1      -6.965  10.910  66.110  1.00  0.00     0.000 HD 
ENDBRANCH  28  48
BRANCH  40  51
HETATM   51  CB  UNL     1     -10.630  11.502  62.505  1.00  0.00     0.876 C  
HETATM   52  O   UNL     1     -11.729  12.338  62.872  1.00  0.00    -0.622 OA 
HETATM   53  H   UNL     1     -12.040  12.880  62.156  1.00  0.00     0.000 HD 
ENDBRANCH  40  51
BRANCH  31  54
HETATM   54  N   UNL     1     -10.639  14.105  66.931  1.00  0.00    -0.279 N  
HETATM   55  H   UNL     1     -11.325  14.348  67.647  1.00  0.00     0.000 HD 
HETATM   56  O   UNL     1      -9.454  14.801  65.113  1.00  0.00     0.032 OA 
HETATM   57  C   UNL     1     -10.296  15.040  65.976  1.00  0.00    -0.312 C  
BRANCH  57  58
HETATM   58  C   UNL     1     -11.035  16.368  66.109  1.00  0.00     0.052 C  
BRANCH  58  59
HETATM   59  C   UNL     1     -10.127  17.561  66.476  1.00  0.00    -0.331 C  
HETATM   60  H1  UNL     1     -10.275  19.336  67.513  1.00  0.00     0.000 HD 
HETATM   61  N   UNL     1     -10.875  18.547  67.271  1.00  0.00    -0.370 NA 
HETATM   62  H2  UNL     1     -11.302  18.126  68.096  1.00  0.00     0.000 HD 
BRANCH  59  63
HETATM   63  C   UNL     1      -8.889  17.149  67.309  1.00  0.00    -0.226 C  
BRANCH  63  64
HETATM   64  C   UNL     1      -9.108  17.245  68.822  1.00  0.00    -0.232 C  
BRANCH  64  65
HETATM   65  C   UNL     1      -9.879  16.041  69.366  1.00  0.00    -0.254 C  
HETATM   66  N   UNL     1     -11.275  16.411  69.576  1.00  0.00    -0.290 NA 
HETATM   67  H2  UNL     1     -11.703  16.794  68.733  1.00  0.00     0.000 HD 
HETATM   68  H1  UNL     1     -11.789  15.608  69.938  1.00  0.00     0.000 HD 
ENDBRANCH  64  65
ENDBRANCH  63  64
ENDBRANCH  59  63
ENDBRANCH  58  59
ENDBRANCH  57  58
ENDBRANCH  31  54
ENDBRANCH   1  14
TORSDOF 11
ENDMDL
MODEL       31
REMARK 921   NORMALIZED FREE ENERGY PREDICTED BY IDOCK:   -2.44 KCAL/MOL
REMARK 922        TOTAL FREE ENERGY PREDICTED BY IDOCK:   -5.97 KCAL/MOL
REMARK 923 INTER-LIGAND FREE ENERGY PREDICTED BY IDOCK:   -8.58 KCAL/MOL
REMARK 924 INTRA-LIGAND FREE ENERGY PREDICTED BY IDOCK:    2.61 KCAL/MOL
REMARK 927      BINDING AFFINITY PREDICTED BY RF-SCORE:    0.00 PKD
ROOT
HETATM    1  C   UNL     1     -11.863  11.936  66.579  1.00  0.00    -0.049 C  
HETATM    2  C   UNL     1     -11.195  12.655  67.789  1.00  0.00    -0.319 C  
HETATM    3  H1  UNL     1     -13.211  14.218  64.028  1.00  0.00     0.000 HD 
HETATM    4  H   UNL     1     -13.943  12.369  66.075  1.00  0.00     0.000 HD 
HETATM    5  C   UNL     1     -11.011  14.143  67.497  1.00  0.00    -0.283 C  
HETATM    6  H2  UNL     1     -12.475  15.620  64.781  1.00  0.00     0.000 HD 
HETATM    7  N   UNL     1     -12.282  14.687  67.105  1.00  0.00    -0.506 NA 
HETATM    8  O   UNL     1     -10.555  14.828  68.640  1.00  0.00    -0.240 OA 
HETATM    9  N   UNL     1     -13.012  12.770  66.194  1.00  0.00     0.356 NA 
HETATM   10  N   UNL     1     -12.832  14.668  64.861  1.00  0.00    -0.442 NA 
HETATM   11  H   UNL     1     -12.753  15.441  67.605  1.00  0.00     0.000 HD 
HETATM   12  C   UNL     1     -12.784  14.091  66.002  1.00  0.00    -0.338 C  
HETATM   13  H   UNL     1     -10.440  15.754  68.458  1.00  0.00     0.000 HD 
ENDROOT
BRANCH   1  14
HETATM   14  C   UNL     1     -10.906  11.650  65.372  1.00  0.00    -0.280 C  
HETATM   15  N   UNL     1      -7.455   9.360  67.856  1.00  0.00    -0.084 N  
HETATM   16  O   UNL     1     -10.231   9.278  67.223  1.00  0.00    -0.216 OA 
HETATM   17  C   UNL     1      -9.437   9.778  66.437  1.00  0.00    -0.184 C  
HETATM   18  C   UNL     1      -7.454   8.704  65.503  1.00  0.00    -0.085 C  
HETATM   19  N   UNL     1      -7.329  15.241  68.067  1.00  0.00    -0.114 N  
HETATM   20  H   UNL     1      -8.845  11.147  65.075  1.00  0.00     0.000 HD 
HETATM   21  N   UNL     1      -9.658  10.846  65.614  1.00  0.00    -0.212 N  
HETATM   22  H   UNL     1      -7.858   8.808  68.614  1.00  0.00     0.000 HD 
HETATM   23  C   UNL     1      -8.009   9.307  66.561  1.00  0.00    -0.104 C  
HETATM   24  C   UNL     1      -6.341  10.182  68.088  1.00  0.00    -0.053 C  
HETATM   25  O   UNL     1      -9.786  12.933  63.630  1.00  0.00    -0.078 OA 
HETATM   26  O   UNL     1      -5.234   9.983  67.592  1.00  0.00    -0.035 OA 
HETATM   27  N   UNL     1     -10.230  14.069  65.557  1.00  0.00    -0.332 N  
HETATM   28  CA  UNL     1      -6.674  11.469  68.914  1.00  0.00    -0.086 C  
HETATM   29  N   UNL     1      -5.613  12.498  68.992  1.00  0.00    -0.063 N  
HETATM   30  C   UNL     1      -9.467  15.275  65.219  1.00  0.00     0.182 C  
HETATM   31  CA  UNL     1      -9.100  16.058  66.511  1.00  0.00    -0.285 C  
HETATM   32  H   UNL     1     -10.721  14.048  66.451  1.00  0.00     0.000 HD 
HETATM   33  H   UNL     1      -4.659  12.321  68.681  1.00  0.00     0.000 HD 
HETATM   34  O   UNL     1      -6.708  16.379  66.200  1.00  0.00     0.065 OA 
HETATM   35  C   UNL     1      -6.007  13.736  69.524  1.00  0.00    -0.107 C  
HETATM   36  C   UNL     1      -7.609  15.882  66.876  1.00  0.00    -0.219 C  
HETATM   37  H   UNL     1      -8.113  14.951  68.652  1.00  0.00     0.000 HD 
HETATM   38  C   UNL     1     -10.323  12.962  64.738  1.00  0.00    -0.323 C  
HETATM   39  O   UNL     1      -6.652  13.786  70.574  1.00  0.00     0.053 OA 
HETATM   40  CA  UNL     1      -5.948  14.946  68.549  1.00  0.00    -0.095 C  
BRANCH  18  41
HETATM   41  N   UNL     1      -6.274   8.004  65.570  1.00  0.00    -0.038 N  
HETATM   42  H   UNL     1      -5.398   8.525  65.550  1.00  0.00     0.000 HD 
BRANCH  41  43
HETATM   43  C   UNL     1      -6.222   6.645  65.662  1.00  0.00    -0.038 C  
HETATM   44  H2  UNL     1      -6.326   6.805  67.753  1.00  0.00     0.000 HD 
HETATM   45  N   UNL     1      -6.262   6.191  66.941  1.00  0.00    -0.031 N  
HETATM   46  H1  UNL     1      -6.223   5.174  67.010  1.00  0.00     0.000 HD 
HETATM   47  O   UNL     1      -6.158   5.864  64.719  1.00  0.00    -0.024 OA 
ENDBRANCH  41  43
ENDBRANCH  18  41
BRANCH  28  48
HETATM   48  C   UNL     1      -7.871  12.124  68.198  1.00  0.00    -0.147 C  
HETATM   49  O   UNL     1      -7.523  12.530  66.866  1.00  0.00    -0.370 OA 
HETATM   50  H   UNL     1      -8.261  12.933  66.424  1.00  0.00     0.000 HD 
ENDBRANCH  28  48
BRANCH  40  51
HETATM   51  CB  UNL     1      -5.369  16.162  69.281  1.00  0.00    -0.113 C  
HETATM   52  O   UNL     1      -6.187  17.327  69.167  1.00  0.00    -0.199 OA 
HETATM   53  H   UNL     1      -5.827  18.081  69.622  1.00  0.00     0.000 HD 
ENDBRANCH  40  51
BRANCH  31  54
HETATM   54  N   UNL     1      -9.403  17.490  66.395  1.00  0.00    -0.261 N  
HETATM   55  H   UNL     1      -8.877  18.060  65.732  1.00  0.00     0.000 HD 
HETATM   56  O   UNL     1     -11.062  17.427  67.957  1.00  0.00    -0.259 OA 
HETATM   57  C   UNL     1     -10.384  18.080  67.166  1.00  0.00    -0.374 C  
BRANCH  57  58
HETATM   58  C   UNL     1     -10.549  19.578  66.928  1.00  0.00    -0.602 C  
BRANCH  58  59
HETATM   59  C   UNL     1      -9.541  20.454  67.703  1.00  0.00    -0.378 C  
HETATM   60  H1  UNL     1      -8.318  20.287  69.353  1.00  0.00     0.000 HD 
HETATM   61  N   UNL     1      -8.984  19.708  68.841  1.00  0.00    -0.289 NA 
HETATM   62  H2  UNL     1      -8.571  18.821  68.549  1.00  0.00     0.000 HD 
BRANCH  59  63
HETATM   63  C   UNL     1      -8.348  20.920  66.835  1.00  0.00    -0.010 C  
BRANCH  63  64
HETATM   64  C   UNL     1      -7.000  20.346  67.286  1.00  0.00    -0.329 C  
BRANCH  64  65
HETATM   65  C   UNL     1      -6.105  19.990  66.098  1.00  0.00    -0.175 C  
HETATM   66  N   UNL     1      -6.843  19.142  65.169  1.00  0.00    -0.467 NA 
HETATM   67  H2  UNL     1      -7.723  19.567  64.874  1.00  0.00     0.000 HD 
HETATM   68  H1  UNL     1      -6.247  18.904  64.376  1.00  0.00     0.000 HD 
ENDBRANCH  64  65
ENDBRANCH  63  64
ENDBRANCH  59  63
ENDBRANCH  58  59
ENDBRANCH  57  58
ENDBRANCH  31  54
ENDBRANCH   1  14
TORSDOF 11
ENDMDL
MODEL       32
REMARK 921   NORMALIZED FREE ENERGY PREDICTED BY IDOCK:   -2.25 KCAL/MOL
REMARK 922        TOTAL FREE ENERGY PREDICTED BY IDOCK:   -5.66 KCAL/MOL
REMARK 923 INTER-LIGAND FREE ENERGY PREDICTED BY IDOCK:   -6.07 KCAL/MOL
REMARK 924 INTRA-LIGAND FREE ENERGY PREDICTED BY IDOCK:    0.41 KCAL/MOL
REMARK 927      BINDING AFFINITY PREDICTED BY RF-SCORE:    0.00 PKD
ROOT
HETATM    1  C   UNL     1      -7.559  10.351  70.013  1.00  0.00    -0.033 C  
HETATM    2  C   UNL     1      -8.354   9.170  69.382  1.00  0.00    -0.124 C  
HETATM    3  H1  UNL     1      -4.579   9.320  71.906  1.00  0.00     0.000 HD 
HETATM    4  H   UNL     1      -7.211  10.394  72.168  1.00  0.00     0.000 HD 
HETATM    5  C   UNL     1      -7.551   7.874  69.466  1.00  0.00    -0.099 C  
HETATM    6  H2  UNL     1      -4.707   7.661  71.355  1.00  0.00     0.000 HD 
HETATM    7  N   UNL     1      -7.164   7.671  70.835  1.00  0.00    -0.061 NA 
HETATM    8  O   UNL     1      -8.323   6.774  69.043  1.00  0.00    -0.122 OA 
HETATM    9  N   UNL     1      -7.064   9.863  71.308  1.00  0.00    -0.208 NA 
HETATM   10  N   UNL     1      -5.152   8.558  71.544  1.00  0.00    -0.032 NA 
HETATM   11  H   UNL     1      -7.433   6.854  71.384  1.00  0.00     0.000 HD 
HETATM   12  C   UNL     1      -6.405   8.679  71.315  1.00  0.00    -0.053 C  
HETATM   13  H   UNL     1      -7.823   5.968  69.096  1.00  0.00     0.000 HD 
ENDROOT
BRANCH   1  14
HETATM   14  C   UNL     1      -6.410  10.926  69.116  1.00  0.00    -0.058 C  
HETATM   15  N   UNL     1      -8.451  15.198  68.165  1.00  0.00    -0.149 N  
HETATM   16  O   UNL     1      -7.577  13.524  70.297  1.00  0.00     1.326 OA 
HETATM   17  C   UNL     1      -7.036  13.455  69.202  1.00  0.00    -0.044 C  
HETATM   18  C   UNL     1      -6.019  15.302  67.972  1.00  0.00    -0.145 C  
HETATM   19  N   UNL     1     -10.307  10.659  64.909  1.00  0.00    -0.313 N  
HETATM   20  H   UNL     1      -6.169  12.479  67.661  1.00  0.00     0.000 HD 
HETATM   21  N   UNL     1      -6.527  12.336  68.606  1.00  0.00    -0.067 N  
HETATM   22  H   UNL     1      -8.987  15.531  68.968  1.00  0.00     0.000 HD 
HETATM   23  C   UNL     1      -7.150  14.686  68.338  1.00  0.00    -0.116 C  
HETATM   24  C   UNL     1      -9.002  15.242  66.875  1.00  0.00    -0.249 C  
HETATM   25  O   UNL     1      -5.203  10.260  67.108  1.00  0.00    -0.040 OA 
HETATM   26  O   UNL     1      -8.570  15.960  65.976  1.00  0.00    -0.307 OA 
HETATM   27  N   UNL     1      -7.322   9.441  67.297  1.00  0.00    -0.087 N  
HETATM   28  CA  UNL     1     -10.122  14.175  66.635  1.00  0.00    -0.275 C  
HETATM   29  N   UNL     1     -10.578  13.996  65.238  1.00  0.00    -0.341 N  
HETATM   30  C   UNL     1      -7.404   8.876  65.947  1.00  0.00    -0.093 C  
HETATM   31  CA  UNL     1      -8.890   8.699  65.527  1.00  0.00    -0.179 C  
HETATM   32  H   UNL     1      -8.127   9.328  67.913  1.00  0.00     0.000 HD 
HETATM   33  H   UNL     1     -10.315  14.641  64.494  1.00  0.00     0.000 HD 
HETATM   34  O   UNL     1      -8.894   9.793  63.353  1.00  0.00    -0.210 OA 
HETATM   35  C   UNL     1     -11.397  12.881  65.006  1.00  0.00    -0.305 C  
HETATM   36  C   UNL     1      -9.322   9.777  64.507  1.00  0.00    -0.235 C  
HETATM   37  H   UNL     1     -10.716  10.531  65.835  1.00  0.00     0.000 HD 
HETATM   38  C   UNL     1      -6.222  10.118  67.784  1.00  0.00    -0.057 C  
HETATM   39  O   UNL     1     -12.358  12.648  65.743  1.00  0.00    -0.594 OA 
HETATM   40  CA  UNL     1     -10.808  11.786  64.071  1.00  0.00    -0.385 C  
BRANCH  18  41
HETATM   41  N   UNL     1      -5.992  16.558  67.419  1.00  0.00    -0.145 N  
HETATM   42  H   UNL     1      -5.705  16.655  66.445  1.00  0.00     0.000 HD 
BRANCH  41  43
HETATM   43  C   UNL     1      -6.333  17.682  68.112  1.00  0.00    -0.172 C  
HETATM   44  H2  UNL     1      -4.626  18.640  67.353  1.00  0.00     0.000 HD 
HETATM   45  N   UNL     1      -5.457  18.705  67.941  1.00  0.00    -0.175 N  
HETATM   46  H1  UNL     1      -5.712  19.546  68.459  1.00  0.00     0.000 HD 
HETATM   47  O   UNL     1      -7.324  17.815  68.820  1.00  0.00    -0.263 OA 
ENDBRANCH  41  43
ENDBRANCH  18  41
BRANCH  28  48
HETATM   48  C   UNL     1      -9.514  12.828  67.075  1.00  0.00    -0.233 C  
HETATM   49  O   UNL     1      -8.390  12.472  66.255  1.00  0.00    -0.389 OA 
HETATM   50  H   UNL     1      -8.015  11.642  66.527  1.00  0.00     0.000 HD 
ENDBRANCH  28  48
BRANCH  40  51
HETATM   51  CB  UNL     1     -11.899  11.294  63.113  1.00  0.00     0.565 C  
HETATM   52  O   UNL     1     -13.112  12.040  63.215  1.00  0.00    -0.701 OA 
HETATM   53  H   UNL     1     -13.789  11.735  62.621  1.00  0.00     0.000 HD 
ENDBRANCH  40  51
BRANCH  31  54
HETATM   54  N   UNL     1      -9.153   7.370  64.963  1.00  0.00    -0.099 N  
HETATM   55  H   UNL     1      -9.767   7.282  64.153  1.00  0.00     0.000 HD 
HETATM   56  O   UNL     1      -7.815   6.296  66.464  1.00  0.00    -0.101 OA 
HETATM   57  C   UNL     1      -8.584   6.236  65.507  1.00  0.00    -0.119 C  
BRANCH  57  58
HETATM   58  C   UNL     1      -8.982   4.940  64.806  1.00  0.00    -0.125 C  
BRANCH  58  59
HETATM   59  C   UNL     1      -8.284   3.682  65.364  1.00  0.00    -0.097 C  
HETATM   60  H1  UNL     1      -6.371   3.070  65.827  1.00  0.00     0.000 HD 
HETATM   61  N   UNL     1      -6.833   3.902  65.459  1.00  0.00    -0.055 NA 
HETATM   62  H2  UNL     1      -6.609   4.734  66.005  1.00  0.00     0.000 HD 
BRANCH  59  63
HETATM   63  C   UNL     1      -8.778   3.287  66.776  1.00  0.00    -0.132 C  
BRANCH  63  64
HETATM   64  C   UNL     1      -7.663   3.241  67.826  1.00  0.00    -0.068 C  
BRANCH  64  65
HETATM   65  C   UNL     1      -8.217   3.055  69.240  1.00  0.00    -0.058 C  
HETATM   66  N   UNL     1      -7.775   4.158  70.086  1.00  0.00    -0.049 NA 
HETATM   67  H2  UNL     1      -8.019   5.067  69.693  1.00  0.00     0.000 HD 
HETATM   68  H1  UNL     1      -8.144   4.033  71.028  1.00  0.00     0.000 HD 
ENDBRANCH  64  65
ENDBRANCH  63  64
ENDBRANCH  59  63
ENDBRANCH  58  59
ENDBRANCH  57  58
ENDBRANCH  31  54
ENDBRANCH   1  14
TORSDOF 11
ENDMDL
MODEL       33
REMARK 921   NORMALIZED FREE ENERGY PREDICTED BY IDOCK:   -2.21 KCAL/MOL
REMARK 922        TOTAL FREE ENERGY PREDICTED BY IDOCK:   -5.59 KCAL/MOL
REMARK 923 INTER-LIGAND FREE ENERGY PREDICTED BY IDOCK:   -6.56 KCAL/MOL
REMARK 924 INTRA-LIGAND FREE ENERGY PREDICTED BY IDOCK:    0.97 KCAL/MOL
REMARK 927      BINDING AFFINITY PREDICTED BY RF-SCORE:    0.00 PKD
ROOT
HETATM    1  C   UNL     1     -11.754   8.740  70.130  1.00  0.00     0.165 C  
HETATM    2  C   UNL     1     -11.266   7.637  69.144  1.00  0.00     0.233 C  
HETATM    3  H1  UNL     1     -11.587   7.774  73.674  1.00  0.00     0.000 HD 
HETATM    4  H   UNL     1     -13.381   8.308  71.520  1.00  0.00     0.000 HD 
HETATM    5  C   UNL     1     -10.570   6.508  69.900  1.00  0.00    -0.233 C  
HETATM    6  H2  UNL     1     -10.704   6.302  73.313  1.00  0.00     0.000 HD 
HETATM    7  N   UNL     1     -11.456   6.041  70.930  1.00  0.00    -0.239 NA 
HETATM    8  O   UNL     1     -10.267   5.435  69.039  1.00  0.00    -0.199 OA 
HETATM    9  N   UNL     1     -12.444   8.035  71.220  1.00  0.00    -0.286 NA 
HETATM   10  N   UNL     1     -11.338   7.042  73.009  1.00  0.00    -0.197 NA 
HETATM   11  H   UNL     1     -11.799   5.082  70.990  1.00  0.00     0.000 HD 
HETATM   12  C   UNL     1     -11.786   7.010  71.811  1.00  0.00    -0.298 C  
HETATM   13  H   UNL     1      -9.833   4.733  69.510  1.00  0.00     0.000 HD 
ENDROOT
BRANCH   1  14
HETATM   14  C   UNL     1     -10.630   9.696  70.657  1.00  0.00    -0.319 C  
HETATM   15  N   UNL     1     -11.587  13.432  67.750  1.00  0.00    -0.319 N  
HETATM   16  O   UNL     1     -12.743  11.741  69.730  1.00  0.00     0.071 OA 
HETATM   17  C   UNL     1     -11.539  11.960  69.737  1.00  0.00    -0.286 C  
HETATM   18  C   UNL     1     -10.465  14.151  69.797  1.00  0.00     0.313 C  
HETATM   19  N   UNL     1      -8.399   9.075  65.404  1.00  0.00    -0.136 N  
HETATM   20  H   UNL     1      -9.601  11.448  69.980  1.00  0.00     0.000 HD 
HETATM   21  N   UNL     1     -10.549  11.092  70.103  1.00  0.00     0.193 N  
HETATM   22  H   UNL     1     -12.590  13.510  67.577  1.00  0.00     0.000 HD 
HETATM   23  C   UNL     1     -11.101  13.234  69.058  1.00  0.00    -0.244 C  
HETATM   24  C   UNL     1     -10.674  13.519  66.688  1.00  0.00    -0.282 C  
HETATM   25  O   UNL     1      -8.212   9.630  70.945  1.00  0.00    -0.290 OA 
HETATM   26  O   UNL     1      -9.868  14.439  66.558  1.00  0.00    -0.265 OA 
HETATM   27  N   UNL     1      -9.041   8.302  69.288  1.00  0.00    -0.150 N  
HETATM   28  CA  UNL     1     -10.664  12.255  65.764  1.00  0.00    -0.263 C  
HETATM   29  N   UNL     1      -9.567  12.167  64.775  1.00  0.00    -0.455 N  
HETATM   30  C   UNL     1      -7.746   7.926  68.711  1.00  0.00    -0.112 C  
HETATM   31  CA  UNL     1      -7.929   7.454  67.242  1.00  0.00    -0.115 C  
HETATM   32  H   UNL     1      -9.884   7.912  68.866  1.00  0.00     0.000 HD 
HETATM   33  H   UNL     1      -8.950  12.954  64.575  1.00  0.00     0.000 HD 
HETATM   34  O   UNL     1      -6.254   8.805  66.105  1.00  0.00    -0.057 OA 
HETATM   35  C   UNL     1      -9.433  10.929  64.128  1.00  0.00    -0.257 C  
HETATM   36  C   UNL     1      -7.445   8.524  66.238  1.00  0.00    -0.090 C  
HETATM   37  H   UNL     1      -9.355   8.724  65.472  1.00  0.00     0.000 HD 
HETATM   38  C   UNL     1      -9.188   9.152  70.365  1.00  0.00    -0.233 C  
HETATM   39  O   UNL     1     -10.418  10.369  63.641  1.00  0.00     0.029 OA 
HETATM   40  CA  UNL     1      -8.116  10.152  64.411  1.00  0.00    -0.163 C  
BRANCH  18  41
HETATM   41  N   UNL     1     -10.253  15.440  69.375  1.00  0.00    -0.246 N  
HETATM   42  H   UNL     1      -9.329  15.692  69.025  1.00  0.00     0.000 HD 
BRANCH  41  43
HETATM   43  C   UNL     1     -11.221  16.400  69.404  1.00  0.00    -0.267 C  
HETATM   44  H2  UNL     1     -12.219  15.317  70.900  1.00  0.00     0.000 HD 
HETATM   45  N   UNL     1     -12.205  16.144  70.303  1.00  0.00    -0.350 N  
HETATM   46  H1  UNL     1     -12.930  16.862  70.325  1.00  0.00     0.000 HD 
HETATM   47  O   UNL     1     -11.244  17.416  68.719  1.00  0.00     0.052 OA 
ENDBRANCH  41  43
ENDBRANCH  18  41
BRANCH  28  48
HETATM   48  C   UNL     1     -10.501  11.050  66.711  1.00  0.00    -0.251 C  
HETATM   49  O   UNL     1      -9.309  11.168  67.503  1.00  0.00    -0.165 OA 
HETATM   50  H   UNL     1      -9.209  10.425  68.087  1.00  0.00     0.000 HD 
ENDBRANCH  28  48
BRANCH  40  51
HETATM   51  CB  UNL     1      -7.590   9.547  63.105  1.00  0.00    -0.110 C  
HETATM   52  O   UNL     1      -8.594   8.845  62.369  1.00  0.00    -0.209 OA 
HETATM   53  H   UNL     1      -8.267   8.470  61.558  1.00  0.00     0.000 HD 
ENDBRANCH  40  51
BRANCH  31  54
HETATM   54  N   UNL     1      -7.228   6.192  66.975  1.00  0.00    -0.073 N  
HETATM   55  H   UNL     1      -6.339   6.005  67.440  1.00  0.00     0.000 HD 
HETATM   56  O   UNL     1      -8.829   5.421  65.547  1.00  0.00    -0.151 OA 
HETATM   57  C   UNL     1      -7.748   5.253  66.108  1.00  0.00    -0.088 C  
BRANCH  57  58
HETATM   58  C   UNL     1      -6.878   4.012  65.935  1.00  0.00    -0.054 C  
BRANCH  58  59
HETATM   59  C   UNL     1      -6.981   3.002  67.098  1.00  0.00    -0.049 C  
HETATM   60  H1  UNL     1      -7.381   0.997  67.354  1.00  0.00     0.000 HD 
HETATM   61  N   UNL     1      -7.312   1.664  66.586  1.00  0.00    -0.055 NA 
HETATM   62  H2  UNL     1      -6.652   1.356  65.872  1.00  0.00     0.000 HD 
BRANCH  59  63
HETATM   63  C   UNL     1      -5.668   2.868  67.905  1.00  0.00    -0.019 C  
BRANCH  63  64
HETATM   64  C   UNL     1      -5.352   4.093  68.771  1.00  0.00    -0.012 C  
BRANCH  64  65
HETATM   65  C   UNL     1      -5.930   3.961  70.181  1.00  0.00    -0.018 C  
HETATM   66  N   UNL     1      -5.684   5.192  70.925  1.00  0.00    -0.015 NA 
HETATM   67  H2  UNL     1      -6.039   6.015  70.438  1.00  0.00     0.000 HD 
HETATM   68  H1  UNL     1      -6.069   5.104  71.865  1.00  0.00     0.000 HD 
ENDBRANCH  64  65
ENDBRANCH  63  64
ENDBRANCH  59  63
ENDBRANCH  58  59
ENDBRANCH  57  58
ENDBRANCH  31  54
ENDBRANCH   1  14
TORSDOF 11
ENDMDL
MODEL       34
REMARK 921   NORMALIZED FREE ENERGY PREDICTED BY IDOCK:   -2.12 KCAL/MOL
REMARK 922        TOTAL FREE ENERGY PREDICTED BY IDOCK:   -5.44 KCAL/MOL
REMARK 923 INTER-LIGAND FREE ENERGY PREDICTED BY IDOCK:   -4.90 KCAL/MOL
REMARK 924 INTRA-LIGAND FREE ENERGY PREDICTED BY IDOCK:   -0.54 KCAL/MOL
REMARK 927      BINDING AFFINITY PREDICTED BY RF-SCORE:    0.00 PKD
ROOT
HETATM    1  C   UNL     1      -7.023  10.246  66.665  1.00  0.00    -0.103 C  
HETATM    2  C   UNL     1      -6.714   8.725  66.797  1.00  0.00    -0.069 C  
HETATM    3  H1  UNL     1      -5.854  11.754  63.520  1.00  0.00     0.000 HD 
HETATM    4  H   UNL     1      -5.391  11.658  66.335  1.00  0.00     0.000 HD 
HETATM    5  C   UNL     1      -6.242   8.154  65.462  1.00  0.00    -0.045 C  
HETATM    6  H2  UNL     1      -5.442  10.194  62.834  1.00  0.00     0.000 HD 
HETATM    7  N   UNL     1      -5.140   8.950  64.995  1.00  0.00    -0.037 NA 
HETATM    8  O   UNL     1      -5.811   6.820  65.608  1.00  0.00    -0.032 OA 
HETATM    9  N   UNL     1      -5.871  10.836  65.967  1.00  0.00    -0.126 NA 
HETATM   10  N   UNL     1      -5.601  10.775  63.657  1.00  0.00    -0.080 NA 
HETATM   11  H   UNL     1      -4.207   8.576  64.820  1.00  0.00     0.000 HD 
HETATM   12  C   UNL     1      -5.474  10.245  64.814  1.00  0.00    -0.124 C  
HETATM   13  H   UNL     1      -5.517   6.465  64.777  1.00  0.00     0.000 HD 
ENDROOT
BRANCH   1  14
HETATM   14  C   UNL     1      -8.381  10.585  65.963  1.00  0.00    -0.158 C  
HETATM   15  N   UNL     1     -10.419  12.928  69.661  1.00  0.00    -0.023 N  
HETATM   16  O   UNL     1      -8.150  12.939  67.940  1.00  0.00    -0.135 OA 
HETATM   17  C   UNL     1      -9.214  12.479  67.548  1.00  0.00    -0.188 C  
HETATM   18  C   UNL     1     -11.366  13.629  67.522  1.00  0.00    -0.308 C  
HETATM   19  N   UNL     1     -10.654   7.051  69.873  1.00  0.00    -0.221 N  
HETATM   20  H   UNL     1     -10.362  11.155  66.545  1.00  0.00     0.000 HD 
HETATM   21  N   UNL     1      -9.389  11.421  66.701  1.00  0.00    -0.180 N  
HETATM   22  H   UNL     1      -9.720  13.452  70.188  1.00  0.00     0.000 HD 
HETATM   23  C   UNL     1     -10.446  12.990  68.253  1.00  0.00    -0.250 C  
HETATM   24  C   UNL     1     -11.367  12.135  70.328  1.00  0.00     0.355 C  
HETATM   25  O   UNL     1     -10.164   9.370  64.831  1.00  0.00     0.396 OA 
HETATM   26  O   UNL     1     -12.572  12.377  70.333  1.00  0.00    -0.157 OA 
HETATM   27  N   UNL     1      -9.006   8.183  66.396  1.00  0.00    -0.162 N  
HETATM   28  CA  UNL     1     -10.768  10.823  70.936  1.00  0.00     1.155 C  
HETATM   29  N   UNL     1     -11.738   9.824  71.439  1.00  0.00    -0.390 N  
HETATM   30  C   UNL     1      -9.882   7.008  66.397  1.00  0.00    -0.035 C  
HETATM   31  CA  UNL     1      -9.712   6.211  67.721  1.00  0.00    -0.116 C  
HETATM   32  H   UNL     1      -8.190   8.173  67.008  1.00  0.00     0.000 HD 
HETATM   33  H   UNL     1     -12.729  10.037  71.550  1.00  0.00     0.000 HD 
HETATM   34  O   UNL     1     -12.029   5.968  68.422  1.00  0.00     1.233 OA 
HETATM   35  C   UNL     1     -11.204   8.566  71.754  1.00  0.00    -0.309 C  
HETATM   36  C   UNL     1     -10.913   6.424  68.669  1.00  0.00    -0.330 C  
HETATM   37  H   UNL     1      -9.689   7.305  70.084  1.00  0.00     0.000 HD 
HETATM   38  C   UNL     1      -9.219   9.304  65.618  1.00  0.00    -0.231 C  
HETATM   39  O   UNL     1     -10.186   8.475  72.444  1.00  0.00    -0.312 OA 
HETATM   40  CA  UNL     1     -11.702   7.377  70.884  1.00  0.00    -0.296 C  
BRANCH  18  41
HETATM   41  N   UNL     1     -12.388  14.363  68.073  1.00  0.00    -0.589 N  
HETATM   42  H   UNL     1     -13.349  14.110  67.841  1.00  0.00     0.000 HD 
BRANCH  41  43
HETATM   43  C   UNL     1     -12.177  15.413  68.917  1.00  0.00    -0.086 C  
HETATM   44  H2  UNL     1     -13.928  14.901  69.956  1.00  0.00     0.000 HD 
HETATM   45  N   UNL     1     -13.131  15.533  69.875  1.00  0.00    -0.515 N  
HETATM   46  H1  UNL     1     -12.974  16.319  70.506  1.00  0.00     0.000 HD 
HETATM   47  O   UNL     1     -11.232  16.192  68.870  1.00  0.00    -0.319 OA 
ENDBRANCH  41  43
ENDBRANCH  18  41
BRANCH  28  48
HETATM   48  C   UNL     1      -9.996  10.146  69.786  1.00  0.00    -0.220 C  
HETATM   49  O   UNL     1      -8.590  10.087  70.066  1.00  0.00    -0.296 OA 
HETATM   50  H   UNL     1      -8.114   9.669  69.358  1.00  0.00     0.000 HD 
ENDBRANCH  28  48
BRANCH  40  51
HETATM   51  CB  UNL     1     -11.971   6.165  71.783  1.00  0.00    -0.164 C  
HETATM   52  O   UNL     1     -11.535   6.359  73.129  1.00  0.00    -0.474 OA 
HETATM   53  H   UNL     1     -11.702   5.607  73.687  1.00  0.00     0.000 HD 
ENDBRANCH  40  51
BRANCH  31  54
HETATM   54  N   UNL     1      -9.535   4.773  67.483  1.00  0.00    -0.138 N  
HETATM   55  H   UNL     1     -10.356   4.169  67.439  1.00  0.00     0.000 HD 
HETATM   56  O   UNL     1      -7.265   4.917  67.333  1.00  0.00    -0.071 OA 
HETATM   57  C   UNL     1      -8.280   4.224  67.317  1.00  0.00    -0.100 C  
BRANCH  57  58
HETATM   58  C   UNL     1      -8.283   2.714  67.099  1.00  0.00    -0.078 C  
BRANCH  58  59
HETATM   59  C   UNL     1      -8.074   1.890  68.387  1.00  0.00    -0.056 C  
HETATM   60  H1  UNL     1      -6.616   1.635  69.822  1.00  0.00     0.000 HD 
HETATM   61  N   UNL     1      -6.755   2.179  68.970  1.00  0.00    -0.033 NA 
HETATM   62  H2  UNL     1      -6.621   3.178  69.131  1.00  0.00     0.000 HD 
BRANCH  59  63
HETATM   63  C   UNL     1      -9.129   2.188  69.478  1.00  0.00    -0.172 C  
BRANCH  63  64
HETATM   64  C   UNL     1      -8.540   2.304  70.888  1.00  0.00    -0.099 C  
BRANCH  64  65
HETATM   65  C   UNL     1      -9.467   3.068  71.834  1.00  0.00    -0.137 C  
HETATM   66  N   UNL     1      -8.910   3.050  73.182  1.00  0.00    -0.080 NA 
HETATM   67  H2  UNL     1      -7.954   3.405  73.209  1.00  0.00     0.000 HD 
HETATM   68  H1  UNL     1      -9.528   3.559  73.813  1.00  0.00     0.000 HD 
ENDBRANCH  64  65
ENDBRANCH  63  64
ENDBRANCH  59  63
ENDBRANCH  58  59
ENDBRANCH  57  58
ENDBRANCH  31  54
ENDBRANCH   1  14
TORSDOF 11
ENDMDL
MODEL       35
REMARK 921   NORMALIZED FREE ENERGY PREDICTED BY IDOCK:   -2.11 KCAL/MOL
REMARK 922        TOTAL FREE ENERGY PREDICTED BY IDOCK:   -5.43 KCAL/MOL
REMARK 923 INTER-LIGAND FREE ENERGY PREDICTED BY IDOCK:   -8.96 KCAL/MOL
REMARK 924 INTRA-LIGAND FREE ENERGY PREDICTED BY IDOCK:    3.53 KCAL/MOL
REMARK 927      BINDING AFFINITY PREDICTED BY RF-SCORE:    0.00 PKD
ROOT
HETATM    1  C   UNL     1      -6.698  11.976  69.485  1.00  0.00    -0.035 C  
HETATM    2  C   UNL     1      -8.217  11.736  69.237  1.00  0.00     0.432 C  
HETATM    3  H1  UNL     1      -4.543   9.177  68.460  1.00  0.00     0.000 HD 
HETATM    4  H   UNL     1      -5.570  10.578  70.725  1.00  0.00     0.000 HD 
HETATM    5  C   UNL     1      -8.432  10.501  68.366  1.00  0.00    -0.128 C  
HETATM    6  H2  UNL     1      -5.870   8.342  67.674  1.00  0.00     0.000 HD 
HETATM    7  N   UNL     1      -7.743   9.395  68.973  1.00  0.00    -0.074 NA 
HETATM    8  O   UNL     1      -9.801  10.185  68.267  1.00  0.00    -0.142 OA 
HETATM    9  N   UNL     1      -6.141  10.675  69.885  1.00  0.00    -0.072 NA 
HETATM   10  N   UNL     1      -5.546   9.013  68.370  1.00  0.00    -0.038 NA 
HETATM   11  H   UNL     1      -8.207   8.540  69.281  1.00  0.00     0.000 HD 
HETATM   12  C   UNL     1      -6.416   9.612  69.092  1.00  0.00    -0.044 C  
HETATM   13  H   UNL     1      -9.935   9.416  67.724  1.00  0.00     0.000 HD 
ENDROOT
BRANCH   1  14
HETATM   14  C   UNL     1      -5.924  12.609  68.280  1.00  0.00    -0.068 C  
HETATM   15  N   UNL     1      -8.688  16.536  67.768  1.00  0.00    -0.194 N  
HETATM   16  O   UNL     1      -7.052  15.138  69.634  1.00  0.00    -0.177 OA 
HETATM   17  C   UNL     1      -6.827  15.050  68.434  1.00  0.00    -0.110 C  
HETATM   18  C   UNL     1      -6.437  16.902  66.894  1.00  0.00    -0.213 C  
HETATM   19  N   UNL     1     -10.754  11.582  65.352  1.00  0.00    -0.285 N  
HETATM   20  H   UNL     1      -6.296  14.065  66.754  1.00  0.00     0.000 HD 
HETATM   21  N   UNL     1      -6.360  13.953  67.766  1.00  0.00    -0.163 N  
HETATM   22  H   UNL     1      -9.022  16.866  68.674  1.00  0.00     0.000 HD 
HETATM   23  C   UNL     1      -7.333  16.191  67.588  1.00  0.00    -0.142 C  
HETATM   24  C   UNL     1      -9.572  16.419  66.683  1.00  0.00    -0.256 C  
HETATM   25  O   UNL     1      -5.237  11.936  66.041  1.00  0.00    -0.233 OA 
HETATM   26  O   UNL     1      -9.500  17.112  65.671  1.00  0.00    -0.523 OA 
HETATM   27  N   UNL     1      -7.098  10.897  66.852  1.00  0.00    -0.112 N  
HETATM   28  CA  UNL     1     -10.565  15.216  66.812  1.00  0.00    -0.298 C  
HETATM   29  N   UNL     1     -11.359  14.882  65.608  1.00  0.00    -0.342 N  
HETATM   30  C   UNL     1      -7.471  10.225  65.604  1.00  0.00    -0.149 C  
HETATM   31  CA  UNL     1      -8.979   9.849  65.626  1.00  0.00    -0.171 C  
HETATM   32  H   UNL     1      -7.681  10.740  67.674  1.00  0.00     0.000 HD 
HETATM   33  H   UNL     1     -11.396  15.495  64.794  1.00  0.00     0.000 HD 
HETATM   34  O   UNL     1      -9.722  10.768  63.498  1.00  0.00    -0.282 OA 
HETATM   35  C   UNL     1     -12.057  13.666  65.661  1.00  0.00    -0.425 C  
HETATM   36  C   UNL     1      -9.811  10.790  64.726  1.00  0.00    -0.300 C  
HETATM   37  H   UNL     1     -10.874  11.479  66.360  1.00  0.00     0.000 HD 
HETATM   38  C   UNL     1      -6.004  11.729  66.982  1.00  0.00    -0.153 C  
HETATM   39  O   UNL     1     -12.740  13.381  66.647  1.00  0.00    -0.155 OA 
HETATM   40  CA  UNL     1     -11.609  12.578  64.643  1.00  0.00    -0.343 C  
BRANCH  18  41
HETATM   41  N   UNL     1      -6.726  18.108  66.305  1.00  0.00    -0.217 N  
HETATM   42  H   UNL     1      -7.604  18.201  65.793  1.00  0.00     0.000 HD 
BRANCH  41  43
HETATM   43  C   UNL     1      -5.895  19.187  66.374  1.00  0.00    -0.161 C  
HETATM   44  H2  UNL     1      -6.395  19.414  68.400  1.00  0.00     0.000 HD 
HETATM   45  N   UNL     1      -5.856  19.758  67.605  1.00  0.00    -0.182 N  
HETATM   46  H1  UNL     1      -5.234  20.565  67.656  1.00  0.00     0.000 HD 
HETATM   47  O   UNL     1      -5.218  19.630  65.453  1.00  0.00    -0.157 OA 
ENDBRANCH  41  43
ENDBRANCH  18  41
BRANCH  28  48
HETATM   48  C   UNL     1      -9.689  13.985  67.117  1.00  0.00    -0.242 C  
HETATM   49  O   UNL     1      -8.837  13.664  66.007  1.00  0.00    -0.348 OA 
HETATM   50  H   UNL     1      -8.297  12.905  66.196  1.00  0.00     0.000 HD 
ENDBRANCH  28  48
BRANCH  40  51
HETATM   51  CB  UNL     1     -12.846  11.894  64.051  1.00  0.00    -0.171 C  
HETATM   52  O   UNL     1     -12.612  11.334  62.758  1.00  0.00    -0.912 OA 
HETATM   53  H   UNL     1     -13.379  10.909  62.392  1.00  0.00     0.000 HD 
ENDBRANCH  40  51
BRANCH  31  54
HETATM   54  N   UNL     1      -9.210   8.460  65.213  1.00  0.00    -0.410 N  
HETATM   55  H   UNL     1      -9.352   8.249  64.225  1.00  0.00     0.000 HD 
HETATM   56  O   UNL     1      -9.042   7.636  67.332  1.00  0.00    -0.125 OA 
HETATM   57  C   UNL     1      -9.237   7.433  66.135  1.00  0.00    -0.099 C  
BRANCH  57  58
HETATM   58  C   UNL     1      -9.508   6.058  65.532  1.00  0.00     0.249 C  
BRANCH  58  59
HETATM   59  C   UNL     1      -8.809   4.897  66.269  1.00  0.00    -0.116 C  
HETATM   60  H1  UNL     1      -9.286   3.465  67.672  1.00  0.00     0.000 HD 
HETATM   61  N   UNL     1      -9.748   4.233  67.185  1.00  0.00    -0.205 NA 
HETATM   62  H2  UNL     1     -10.594   3.924  66.705  1.00  0.00     0.000 HD 
BRANCH  59  63
HETATM   63  C   UNL     1      -8.261   3.811  65.312  1.00  0.00    -0.097 C  
BRANCH  63  64
HETATM   64  C   UNL     1      -8.724   3.983  63.861  1.00  0.00    -0.113 C  
BRANCH  64  65
HETATM   65  C   UNL     1      -9.763   2.932  63.465  1.00  0.00    -0.113 C  
HETATM   66  N   UNL     1      -9.957   1.998  64.568  1.00  0.00    -0.343 NA 
HETATM   67  H2  UNL     1     -10.201   2.474  65.437  1.00  0.00     0.000 HD 
HETATM   68  H1  UNL     1     -10.650   1.298  64.304  1.00  0.00     0.000 HD 
ENDBRANCH  64  65
ENDBRANCH  63  64
ENDBRANCH  59  63
ENDBRANCH  58  59
ENDBRANCH  57  58
ENDBRANCH  31  54
ENDBRANCH   1  14
TORSDOF 11
ENDMDL
MODEL       36
REMARK 921   NORMALIZED FREE ENERGY PREDICTED BY IDOCK:   -2.10 KCAL/MOL
REMARK 922        TOTAL FREE ENERGY PREDICTED BY IDOCK:   -5.41 KCAL/MOL
REMARK 923 INTER-LIGAND FREE ENERGY PREDICTED BY IDOCK:   -4.33 KCAL/MOL
REMARK 924 INTRA-LIGAND FREE ENERGY PREDICTED BY IDOCK:   -1.09 KCAL/MOL
REMARK 927      BINDING AFFINITY PREDICTED BY RF-SCORE:    0.00 PKD
ROOT
HETATM    1  C   UNL     1     -12.741  13.284  70.179  1.00  0.00     0.085 C  
HETATM    2  C   UNL     1     -12.964  11.790  70.557  1.00  0.00     0.128 C  
HETATM    3  H1  UNL     1     -12.695  15.575  73.057  1.00  0.00     0.000 HD 
HETATM    4  H   UNL     1     -14.213  14.783  70.773  1.00  0.00     0.000 HD 
HETATM    5  C   UNL     1     -12.834  11.590  72.065  1.00  0.00    -0.154 C  
HETATM    6  H2  UNL     1     -12.691  14.253  74.209  1.00  0.00     0.000 HD 
HETATM    7  N   UNL     1     -13.721  12.512  72.720  1.00  0.00    -0.602 NA 
HETATM    8  O   UNL     1     -13.189  10.277  72.432  1.00  0.00    -0.563 OA 
HETATM    9  N   UNL     1     -13.568  14.067  71.110  1.00  0.00    -0.212 NA 
HETATM   10  N   UNL     1     -12.909  14.602  73.276  1.00  0.00    -0.507 NA 
HETATM   11  H   UNL     1     -14.482  12.224  73.337  1.00  0.00     0.000 HD 
HETATM   12  C   UNL     1     -13.438  13.800  72.431  1.00  0.00    -0.571 C  
HETATM   13  H   UNL     1     -13.108  10.153  73.371  1.00  0.00     0.000 HD 
ENDROOT
BRANCH   1  14
HETATM   14  C   UNL     1     -11.244  13.748  70.180  1.00  0.00     0.154 C  
HETATM   15  N   UNL     1     -11.555  16.831  66.476  1.00  0.00     0.992 N  
HETATM   16  O   UNL     1     -12.629  16.261  69.051  1.00  0.00     0.343 OA 
HETATM   17  C   UNL     1     -11.481  15.934  68.779  1.00  0.00    -0.393 C  
HETATM   18  C   UNL     1      -9.710  17.405  67.970  1.00  0.00    -0.281 C  
HETATM   19  N   UNL     1     -11.007  11.141  65.071  1.00  0.00    -0.168 N  
HETATM   20  H   UNL     1      -9.885  14.699  68.825  1.00  0.00     0.000 HD 
HETATM   21  N   UNL     1     -10.819  14.821  69.216  1.00  0.00    -0.258 N  
HETATM   22  H   UNL     1     -12.463  17.296  66.466  1.00  0.00     0.000 HD 
HETATM   23  C   UNL     1     -10.822  16.721  67.674  1.00  0.00    -0.252 C  
HETATM   24  C   UNL     1     -11.020  16.291  65.295  1.00  0.00    -0.236 C  
HETATM   25  O   UNL     1      -9.046  12.706  70.046  1.00  0.00     2.728 OA 
HETATM   26  O   UNL     1     -10.007  16.722  64.749  1.00  0.00     0.313 OA 
HETATM   27  N   UNL     1     -10.743  11.552  69.052  1.00  0.00    -0.264 N  
HETATM   28  CA  UNL     1     -11.740  14.984  64.821  1.00  0.00    -0.370 C  
HETATM   29  N   UNL     1     -11.087  14.226  63.731  1.00  0.00    -0.027 N  
HETATM   30  C   UNL     1      -9.901  10.543  68.403  1.00  0.00    -0.161 C  
HETATM   31  CA  UNL     1     -10.658   9.899  67.207  1.00  0.00    -0.252 C  
HETATM   32  H   UNL     1     -11.754  11.486  68.927  1.00  0.00     0.000 HD 
HETATM   33  H   UNL     1     -10.309  14.608  63.193  1.00  0.00     0.000 HD 
HETATM   34  O   UNL     1      -9.008  10.123  65.434  1.00  0.00    -0.158 OA 
HETATM   35  C   UNL     1     -11.608  12.947  63.486  1.00  0.00    -0.468 C  
HETATM   36  C   UNL     1     -10.126  10.420  65.854  1.00  0.00    -0.261 C  
HETATM   37  H   UNL     1     -11.963  11.260  65.410  1.00  0.00     0.000 HD 
HETATM   38  C   UNL     1     -10.252  12.586  69.823  1.00  0.00     1.382 C  
HETATM   39  O   UNL     1     -12.825  12.779  63.377  1.00  0.00    -0.667 OA 
HETATM   40  CA  UNL     1     -10.647  11.755  63.761  1.00  0.00    -0.415 C  
BRANCH  18  41
HETATM   41  N   UNL     1      -9.170  18.356  67.140  1.00  0.00    -0.260 N  
HETATM   42  H   UNL     1      -8.312  18.132  66.636  1.00  0.00     0.000 HD 
BRANCH  41  43
HETATM   43  C   UNL     1      -9.728  19.587  66.958  1.00  0.00    -0.347 C  
HETATM   44  H2  UNL     1      -8.048  20.458  67.866  1.00  0.00     0.000 HD 
HETATM   45  N   UNL     1      -8.956  20.602  67.424  1.00  0.00    -0.431 N  
HETATM   46  H1  UNL     1      -9.374  21.522  67.288  1.00  0.00     0.000 HD 
HETATM   47  O   UNL     1     -10.808  19.813  66.423  1.00  0.00    -0.440 OA 
ENDBRANCH  41  43
ENDBRANCH  18  41
BRANCH  28  48
HETATM   48  C   UNL     1     -11.766  14.055  66.050  1.00  0.00    -0.369 C  
HETATM   49  O   UNL     1     -10.454  13.560  66.357  1.00  0.00    -0.279 OA 
HETATM   50  H   UNL     1     -10.470  12.987  67.115  1.00  0.00     0.000 HD 
ENDBRANCH  28  48
BRANCH  40  51
HETATM   51  CB  UNL     1     -10.779  10.724  62.634  1.00  0.00     0.993 C  
HETATM   52  O   UNL     1      -9.630   9.885  62.505  1.00  0.00    -0.477 OA 
HETATM   53  H   UNL     1      -9.713   9.246  61.806  1.00  0.00     0.000 HD 
ENDBRANCH  40  51
BRANCH  31  54
HETATM   54  N   UNL     1     -10.579   8.434  67.225  1.00  0.00    -0.418 N  
HETATM   55  H   UNL     1     -10.273   7.940  66.387  1.00  0.00     0.000 HD 
HETATM   56  O   UNL     1     -11.254   8.266  69.396  1.00  0.00     0.019 OA 
HETATM   57  C   UNL     1     -10.908   7.712  68.354  1.00  0.00     0.044 C  
BRANCH  57  58
HETATM   58  C   UNL     1     -10.786   6.200  68.187  1.00  0.00    -0.367 C  
BRANCH  58  59
HETATM   59  C   UNL     1      -9.542   5.589  68.866  1.00  0.00    -0.136 C  
HETATM   60  H1  UNL     1      -7.619   6.160  69.338  1.00  0.00     0.000 HD 
HETATM   61  N   UNL     1      -8.441   6.564  68.890  1.00  0.00    -0.122 NA 
HETATM   62  H2  UNL     1      -8.720   7.443  69.327  1.00  0.00     0.000 HD 
BRANCH  59  63
HETATM   63  C   UNL     1      -9.799   5.157  70.329  1.00  0.00    -0.295 C  
BRANCH  63  64
HETATM   64  C   UNL     1      -8.626   4.399  70.960  1.00  0.00    -0.113 C  
BRANCH  64  65
HETATM   65  C   UNL     1      -8.011   5.169  72.130  1.00  0.00    -0.112 C  
HETATM   66  N   UNL     1      -8.352   4.504  73.383  1.00  0.00    -0.102 NA 
HETATM   67  H2  UNL     1      -8.081   3.521  73.385  1.00  0.00     0.000 HD 
HETATM   68  H1  UNL     1      -7.942   5.018  74.163  1.00  0.00     0.000 HD 
ENDBRANCH  64  65
ENDBRANCH  63  64
ENDBRANCH  59  63
ENDBRANCH  58  59
ENDBRANCH  57  58
ENDBRANCH  31  54
ENDBRANCH   1  14
TORSDOF 11
ENDMDL
MODEL       37
REMARK 921   NORMALIZED FREE ENERGY PREDICTED BY IDOCK:   -2.09 KCAL/MOL
REMARK 922        TOTAL FREE ENERGY PREDICTED BY IDOCK:   -5.39 KCAL/MOL
REMARK 923 INTER-LIGAND FREE ENERGY PREDICTED BY IDOCK:   -5.98 KCAL/MOL
REMARK 924 INTRA-LIGAND FREE ENERGY PREDICTED BY IDOCK:    0.58 KCAL/MOL
REMARK 927      BINDING AFFINITY PREDICTED BY RF-SCORE:    0.00 PKD
ROOT
HETATM    1  C   UNL     1     -11.427   8.466  69.951  1.00  0.00     0.178 C  
HETATM    2  C   UNL     1     -10.846   7.027  69.817  1.00  0.00    -0.276 C  
HETATM    3  H1  UNL     1     -12.027   9.532  73.420  1.00  0.00     0.000 HD 
HETATM    4  H   UNL     1     -13.322   8.777  70.991  1.00  0.00     0.000 HD 
HETATM    5  C   UNL     1     -10.401   6.497  71.178  1.00  0.00    -0.205 C  
HETATM    6  H2  UNL     1     -11.210   8.126  74.076  1.00  0.00     0.000 HD 
HETATM    7  N   UNL     1     -11.504   6.615  72.091  1.00  0.00    -0.274 NA 
HETATM    8  O   UNL     1     -10.022   5.143  71.093  1.00  0.00    -0.185 OA 
HETATM    9  N   UNL     1     -12.369   8.421  71.080  1.00  0.00    -0.197 NA 
HETATM   10  N   UNL     1     -11.713   8.568  73.306  1.00  0.00     0.447 NA 
HETATM   11  H   UNL     1     -11.926   5.821  72.574  1.00  0.00     0.000 HD 
HETATM   12  C   UNL     1     -11.921   7.890  72.242  1.00  0.00    -0.337 C  
HETATM   13  H   UNL     1      -9.744   4.814  71.940  1.00  0.00     0.000 HD 
ENDROOT
BRANCH   1  14
HETATM   14  C   UNL     1     -10.356   9.597  70.115  1.00  0.00    -0.266 C  
HETATM   15  N   UNL     1     -10.429  11.180  65.554  1.00  0.00    -0.266 N  
HETATM   16  O   UNL     1     -12.079  10.758  67.837  1.00  0.00    -0.407 OA 
HETATM   17  C   UNL     1     -10.885  10.991  67.977  1.00  0.00    -0.229 C  
HETATM   18  C   UNL     1      -9.673  12.917  67.096  1.00  0.00    -0.221 C  
HETATM   19  N   UNL     1      -7.201   6.365  66.572  1.00  0.00    -0.072 N  
HETATM   20  H   UNL     1      -9.078  10.759  68.848  1.00  0.00     0.000 HD 
HETATM   21  N   UNL     1     -10.058  10.487  68.941  1.00  0.00    -0.192 N  
HETATM   22  H   UNL     1     -11.369  11.118  65.163  1.00  0.00     0.000 HD 
HETATM   23  C   UNL     1     -10.224  11.725  66.837  1.00  0.00    -0.209 C  
HETATM   24  C   UNL     1      -9.322  10.724  64.821  1.00  0.00    -0.226 C  
HETATM   25  O   UNL     1      -8.053   9.784  70.888  1.00  0.00    -0.252 OA 
HETATM   26  O   UNL     1      -8.436  11.464  64.397  1.00  0.00     0.346 OA 
HETATM   27  N   UNL     1      -8.646   7.748  70.049  1.00  0.00    -0.138 N  
HETATM   28  CA  UNL     1      -9.233   9.164  64.726  1.00  0.00    -0.018 C  
HETATM   29  N   UNL     1      -7.975   8.605  64.184  1.00  0.00    -0.142 N  
HETATM   30  C   UNL     1      -7.298   7.172  70.040  1.00  0.00    -0.080 C  
HETATM   31  CA  UNL     1      -7.228   5.985  69.039  1.00  0.00    -0.083 C  
HETATM   32  H   UNL     1      -9.419   7.163  69.732  1.00  0.00     0.000 HD 
HETATM   33  H   UNL     1      -7.270   9.188  63.733  1.00  0.00     0.000 HD 
HETATM   34  O   UNL     1      -5.262   6.587  67.737  1.00  0.00    -0.004 OA 
HETATM   35  C   UNL     1      -7.816   7.218  64.330  1.00  0.00    -0.125 C  
HETATM   36  C   UNL     1      -6.475   6.377  67.748  1.00  0.00    -0.052 C  
HETATM   37  H   UNL     1      -8.177   6.068  66.615  1.00  0.00     0.000 HD 
HETATM   38  C   UNL     1      -8.932   9.034  70.460  1.00  0.00    -0.213 C  
HETATM   39  O   UNL     1      -8.729   6.449  64.019  1.00  0.00     0.271 OA 
HETATM   40  CA  UNL     1      -6.645   6.759  65.246  1.00  0.00    -0.050 C  
BRANCH  18  41
HETATM   41  N   UNL     1      -9.281  13.793  66.113  1.00  0.00    -0.494 N  
HETATM   42  H   UNL     1      -8.373  13.654  65.671  1.00  0.00     0.000 HD 
BRANCH  41  43
HETATM   43  C   UNL     1     -10.051  14.840  65.702  1.00  0.00    -0.366 C  
HETATM   44  H2  UNL     1      -9.753  15.763  67.564  1.00  0.00     0.000 HD 
HETATM   45  N   UNL     1     -10.185  15.811  66.641  1.00  0.00    -0.277 N  
HETATM   46  H1  UNL     1     -10.761  16.595  66.333  1.00  0.00     0.000 HD 
HETATM   47  O   UNL     1     -10.581  14.952  64.602  1.00  0.00    -0.360 OA 
ENDBRANCH  41  43
ENDBRANCH  18  41
BRANCH  28  48
HETATM   48  C   UNL     1      -9.353   8.653  66.176  1.00  0.00    -0.226 C  
HETATM   49  O   UNL     1     -10.679   8.175  66.451  1.00  0.00    -0.224 OA 
HETATM   50  H   UNL     1     -10.753   7.860  67.344  1.00  0.00     0.000 HD 
ENDBRANCH  28  48
BRANCH  40  51
HETATM   51  CB  UNL     1      -5.925   5.573  64.595  1.00  0.00    -0.022 C  
HETATM   52  O   UNL     1      -6.646   4.346  64.715  1.00  0.00    -0.041 OA 
HETATM   53  H   UNL     1      -6.199   3.610  64.312  1.00  0.00     0.000 HD 
ENDBRANCH  40  51
BRANCH  31  54
HETATM   54  N   UNL     1      -6.591   4.801  69.628  1.00  0.00    -0.035 N  
HETATM   55  H   UNL     1      -5.912   4.921  70.380  1.00  0.00     0.000 HD 
HETATM   56  O   UNL     1      -7.726   3.335  68.301  1.00  0.00    -0.059 OA 
HETATM   57  C   UNL     1      -6.893   3.529  69.184  1.00  0.00    -0.045 C  
BRANCH  57  58
HETATM   58  C   UNL     1      -6.124   2.421  69.896  1.00  0.00    -0.024 C  
BRANCH  58  59
HETATM   59  C   UNL     1      -6.183   2.499  71.436  1.00  0.00    -0.018 C  
HETATM   60  H1  UNL     1      -6.664   3.887  72.881  1.00  0.00     0.000 HD 
HETATM   61  N   UNL     1      -6.625   3.835  71.863  1.00  0.00    -0.015 NA 
HETATM   62  H2  UNL     1      -7.513   4.097  71.434  1.00  0.00     0.000 HD 
BRANCH  59  63
HETATM   63  C   UNL     1      -7.160   1.475  72.060  1.00  0.00    -0.030 C  
BRANCH  63  64
HETATM   64  C   UNL     1      -8.635   1.793  71.795  1.00  0.00    -0.080 C  
BRANCH  64  65
HETATM   65  C   UNL     1      -9.449   1.850  73.089  1.00  0.00    -0.073 C  
HETATM   66  N   UNL     1      -9.926   3.211  73.305  1.00  0.00    -0.110 NA 
HETATM   67  H2  UNL     1     -10.449   3.568  72.505  1.00  0.00     0.000 HD 
HETATM   68  H1  UNL     1     -10.469   3.249  74.167  1.00  0.00     0.000 HD 
ENDBRANCH  64  65
ENDBRANCH  63  64
ENDBRANCH  59  63
ENDBRANCH  58  59
ENDBRANCH  57  58
ENDBRANCH  31  54
ENDBRANCH   1  14
TORSDOF 11
ENDMDL
MODEL       38
REMARK 921   NORMALIZED FREE ENERGY PREDICTED BY IDOCK:   -1.86 KCAL/MOL
REMARK 922        TOTAL FREE ENERGY PREDICTED BY IDOCK:   -5.02 KCAL/MOL
REMARK 923 INTER-LIGAND FREE ENERGY PREDICTED BY IDOCK:   -8.46 KCAL/MOL
REMARK 924 INTRA-LIGAND FREE ENERGY PREDICTED BY IDOCK:    3.44 KCAL/MOL
REMARK 927      BINDING AFFINITY PREDICTED BY RF-SCORE:    0.00 PKD
ROOT
HETATM    1  C   UNL     1      -6.628  13.003  69.858  1.00  0.00     0.129 C  
HETATM    2  C   UNL     1      -8.137  12.690  69.637  1.00  0.00     1.531 C  
HETATM    3  H1  UNL     1      -4.404  10.112  69.382  1.00  0.00     0.000 HD 
HETATM    4  H   UNL     1      -5.494  11.875  71.344  1.00  0.00     0.000 HD 
HETATM    5  C   UNL     1      -8.314  11.313  69.001  1.00  0.00    -0.008 C  
HETATM    6  H2  UNL     1      -5.701   9.121  68.742  1.00  0.00     0.000 HD 
HETATM    7  N   UNL     1      -7.615  10.350  69.806  1.00  0.00    -0.246 NA 
HETATM    8  O   UNL     1      -9.676  10.956  68.942  1.00  0.00    -0.191 OA 
HETATM    9  N   UNL     1      -6.053  11.808  70.493  1.00  0.00    -0.283 NA 
HETATM   10  N   UNL     1      -5.401   9.913  69.311  1.00  0.00    -0.035 NA 
HETATM   11  H   UNL     1      -8.068   9.554  70.257  1.00  0.00     0.000 HD 
HETATM   12  C   UNL     1      -6.294  10.613  69.901  1.00  0.00    -0.110 C  
HETATM   13  H   UNL     1      -9.785  10.099  68.546  1.00  0.00     0.000 HD 
ENDROOT
BRANCH   1  14
HETATM   14  C   UNL     1      -5.846  13.425  68.568  1.00  0.00    -0.089 C  
HETATM   15  N   UNL     1      -8.584  17.228  67.405  1.00  0.00    -0.203 N  
HETATM   16  O   UNL     1      -6.963  16.148  69.483  1.00  0.00    -0.215 OA 
HETATM   17  C   UNL     1      -6.735  15.863  68.315  1.00  0.00    -0.118 C  
HETATM   18  C   UNL     1      -6.328  17.434  66.493  1.00  0.00    -0.225 C  
HETATM   19  N   UNL     1     -10.671  11.956  65.828  1.00  0.00    -0.274 N  
HETATM   20  H   UNL     1      -6.203  14.612  66.821  1.00  0.00     0.000 HD 
HETATM   21  N   UNL     1      -6.271  14.669  67.838  1.00  0.00    -0.152 N  
HETATM   22  H   UNL     1      -8.919  17.705  68.243  1.00  0.00     0.000 HD 
HETATM   23  C   UNL     1      -7.231  16.852  67.290  1.00  0.00    -0.166 C  
HETATM   24  C   UNL     1      -9.465  16.940  66.351  1.00  0.00    -0.283 C  
HETATM   25  O   UNL     1      -5.154  12.389  66.473  1.00  0.00    -0.284 OA 
HETATM   26  O   UNL     1      -9.386  17.457  65.238  1.00  0.00     0.189 OA 
HETATM   27  N   UNL     1      -7.024  11.507  67.436  1.00  0.00    -0.102 N  
HETATM   28  CA  UNL     1     -10.466  15.779  66.671  1.00  0.00    -0.302 C  
HETATM   29  N   UNL     1     -11.257  15.256  65.535  1.00  0.00    -0.311 N  
HETATM   30  C   UNL     1      -7.397  10.642  66.313  1.00  0.00    -0.137 C  
HETATM   31  CA  UNL     1      -8.908  10.282  66.390  1.00  0.00    -0.145 C  
HETATM   32  H   UNL     1      -7.612  11.491  68.270  1.00  0.00     0.000 HD 
HETATM   33  H   UNL     1     -11.289  15.727  64.631  1.00  0.00     0.000 HD 
HETATM   34  O   UNL     1      -9.637  10.843  64.137  1.00  0.00    -0.233 OA 
HETATM   35  C   UNL     1     -11.963  14.069  65.784  1.00  0.00    -0.404 C  
HETATM   36  C   UNL     1      -9.731  11.067  65.344  1.00  0.00    -0.232 C  
HETATM   37  H   UNL     1     -10.795  12.020  66.839  1.00  0.00     0.000 HD 
HETATM   38  C   UNL     1      -5.927  12.344  67.432  1.00  0.00    -0.154 C  
HETATM   39  O   UNL     1     -12.651  13.954  66.801  1.00  0.00    -0.311 OA 
HETATM   40  CA  UNL     1     -11.518  12.826  64.961  1.00  0.00    -0.321 C  
BRANCH  18  41
HETATM   41  N   UNL     1      -6.608  18.528  65.712  1.00  0.00    -0.256 N  
HETATM   42  H   UNL     1      -6.691  18.399  64.704  1.00  0.00     0.000 HD 
BRANCH  41  43
HETATM   43  C   UNL     1      -6.782  19.780  66.224  1.00  0.00    -0.216 C  
HETATM   44  H2  UNL     1      -4.723  20.129  66.009  1.00  0.00     0.000 HD 
HETATM   45  N   UNL     1      -5.630  20.493  66.303  1.00  0.00    -0.174 N  
HETATM   46  H1  UNL     1      -5.759  21.430  66.685  1.00  0.00     0.000 HD 
HETATM   47  O   UNL     1      -7.849  20.268  66.578  1.00  0.00    -0.287 OA 
ENDBRANCH  41  43
ENDBRANCH  18  41
BRANCH  28  48
HETATM   48  C   UNL     1      -9.598  14.611  67.178  1.00  0.00    -0.233 C  
HETATM   49  O   UNL     1      -8.717  14.132  66.151  1.00  0.00    -0.402 OA 
HETATM   50  H   UNL     1      -8.182  13.412  66.464  1.00  0.00     0.000 HD 
ENDBRANCH  28  48
BRANCH  40  51
HETATM   51  CB  UNL     1     -12.757  12.061  64.485  1.00  0.00    -0.021 C  
HETATM   52  O   UNL     1     -12.888  12.035  63.062  1.00  0.00    -0.766 OA 
HETATM   53  H   UNL     1     -13.656  11.560  62.767  1.00  0.00     0.000 HD 
ENDBRANCH  40  51
BRANCH  31  54
HETATM   54  N   UNL     1      -9.145   8.845  66.211  1.00  0.00    -0.176 N  
HETATM   55  H   UNL     1      -8.612   8.335  65.507  1.00  0.00     0.000 HD 
HETATM   56  O   UNL     1     -10.719   8.739  67.856  1.00  0.00    -0.203 OA 
HETATM   57  C   UNL     1     -10.075   8.171  66.976  1.00  0.00    -0.280 C  
BRANCH  57  58
HETATM   58  C   UNL     1     -10.204   6.688  66.641  1.00  0.00    -0.208 C  
BRANCH  58  59
HETATM   59  C   UNL     1      -9.944   5.746  67.836  1.00  0.00    -0.137 C  
HETATM   60  H1  UNL     1      -8.562   5.538  69.350  1.00  0.00     0.000 HD 
HETATM   61  N   UNL     1      -8.733   6.161  68.561  1.00  0.00    -0.112 NA 
HETATM   62  H2  UNL     1      -8.779   7.139  68.850  1.00  0.00     0.000 HD 
BRANCH  59  63
HETATM   63  C   UNL     1     -11.104   5.729  68.859  1.00  0.00    -0.136 C  
BRANCH  63  64
HETATM   64  C   UNL     1     -10.637   5.798  70.317  1.00  0.00    -0.369 C  
BRANCH  64  65
HETATM   65  C   UNL     1     -11.538   6.700  71.164  1.00  0.00    -0.332 C  
HETATM   66  N   UNL     1     -11.716   6.108  72.485  1.00  0.00    -0.463 NA 
HETATM   67  H2  UNL     1     -10.825   5.913  72.943  1.00  0.00     0.000 HD 
HETATM   68  H1  UNL     1     -12.316   6.710  73.049  1.00  0.00     0.000 HD 
ENDBRANCH  64  65
ENDBRANCH  63  64
ENDBRANCH  59  63
ENDBRANCH  58  59
ENDBRANCH  57  58
ENDBRANCH  31  54
ENDBRANCH   1  14
TORSDOF 11
ENDMDL
MODEL       39
REMARK 921   NORMALIZED FREE ENERGY PREDICTED BY IDOCK:   -1.74 KCAL/MOL
REMARK 922        TOTAL FREE ENERGY PREDICTED BY IDOCK:   -4.82 KCAL/MOL
REMARK 923 INTER-LIGAND FREE ENERGY PREDICTED BY IDOCK:   -7.80 KCAL/MOL
REMARK 924 INTRA-LIGAND FREE ENERGY PREDICTED BY IDOCK:    2.98 KCAL/MOL
REMARK 927      BINDING AFFINITY PREDICTED BY RF-SCORE:    0.00 PKD
ROOT
HETATM    1  C   UNL     1      -6.096   7.796  69.026  1.00  0.00    -0.035 C  
HETATM    2  C   UNL     1      -6.049   8.903  67.930  1.00  0.00    -0.051 C  
HETATM    3  H1  UNL     1      -8.145   8.662  71.955  1.00  0.00     0.000 HD 
HETATM    4  H   UNL     1      -5.463   8.261  71.063  1.00  0.00     0.000 HD 
HETATM    5  C   UNL     1      -7.094   9.980  68.208  1.00  0.00    -0.072 C  
HETATM    6  H2  UNL     1      -8.779  10.103  71.183  1.00  0.00     0.000 HD 
HETATM    7  N   UNL     1      -6.904  10.458  69.550  1.00  0.00    -0.079 NA 
HETATM    8  O   UNL     1      -6.955  11.061  67.315  1.00  0.00    -0.084 OA 
HETATM    9  N   UNL     1      -6.117   8.502  70.316  1.00  0.00    -0.030 NA 
HETATM   10  N   UNL     1      -8.044   9.400  71.258  1.00  0.00    -0.287 NA 
HETATM   11  H   UNL     1      -6.692  11.430  69.780  1.00  0.00     0.000 HD 
HETATM   12  C   UNL     1      -7.037   9.482  70.473  1.00  0.00    -0.127 C  
HETATM   13  H   UNL     1      -7.605  11.731  67.488  1.00  0.00     0.000 HD 
ENDROOT
BRANCH   1  14
HETATM   14  C   UNL     1      -7.279   6.779  68.886  1.00  0.00    -0.091 C  
HETATM   15  N   UNL     1      -6.505   5.566  64.276  1.00  0.00    -0.029 N  
HETATM   16  O   UNL     1      -5.278   5.623  66.846  1.00  0.00    -0.005 OA 
HETATM   17  C   UNL     1      -6.493   5.511  66.748  1.00  0.00    -0.047 C  
HETATM   18  C   UNL     1      -7.692   3.805  65.481  1.00  0.00    -0.082 C  
HETATM   19  N   UNL     1      -9.406  10.608  65.175  1.00  0.00    -0.197 N  
HETATM   20  H   UNL     1      -8.401   5.868  67.304  1.00  0.00     0.000 HD 
HETATM   21  N   UNL     1      -7.435   6.023  67.595  1.00  0.00    -0.077 N  
HETATM   22  H   UNL     1      -5.507   5.557  64.066  1.00  0.00     0.000 HD 
HETATM   23  C   UNL     1      -6.995   4.946  65.443  1.00  0.00    -0.062 C  
HETATM   24  C   UNL     1      -7.409   6.197  63.407  1.00  0.00    -0.066 C  
HETATM   25  O   UNL     1      -9.693   6.783  69.217  1.00  0.00    -0.150 OA 
HETATM   26  O   UNL     1      -8.265   5.595  62.762  1.00  0.00    -0.105 OA 
HETATM   27  N   UNL     1      -8.768   8.803  68.700  1.00  0.00    -0.134 N  
HETATM   28  CA  UNL     1      -7.334   7.760  63.452  1.00  0.00    -0.101 C  
HETATM   29  N   UNL     1      -8.412   8.495  62.753  1.00  0.00    -0.366 N  
HETATM   30  C   UNL     1     -10.032   9.521  68.508  1.00  0.00    -0.167 C  
HETATM   31  CA  UNL     1      -9.804  10.785  67.632  1.00  0.00    -0.171 C  
HETATM   32  H   UNL     1      -7.899   9.323  68.584  1.00  0.00     0.000 HD 
HETATM   33  H   UNL     1      -9.072   8.030  62.130  1.00  0.00     0.000 HD 
HETATM   34  O   UNL     1     -11.541  10.506  65.950  1.00  0.00     0.593 OA 
HETATM   35  C   UNL     1      -8.467   9.874  63.004  1.00  0.00    -0.175 C  
HETATM   36  C   UNL     1     -10.337  10.582  66.196  1.00  0.00    -0.210 C  
HETATM   37  H   UNL     1      -8.433  10.792  65.418  1.00  0.00     0.000 HD 
HETATM   38  C   UNL     1      -8.684   7.464  69.027  1.00  0.00    -0.133 C  
HETATM   39  O   UNL     1      -7.444  10.561  62.937  1.00  0.00    -0.134 OA 
HETATM   40  CA  UNL     1      -9.739  10.383  63.739  1.00  0.00    -0.290 C  
BRANCH  18  41
HETATM   41  N   UNL     1      -7.974   3.058  64.364  1.00  0.00    -0.082 N  
HETATM   42  H   UNL     1      -7.231   2.903  63.682  1.00  0.00     0.000 HD 
BRANCH  41  43
HETATM   43  C   UNL     1      -9.201   2.513  64.124  1.00  0.00    -0.122 C  
HETATM   44  H2  UNL     1      -9.547   3.988  62.671  1.00  0.00     0.000 HD 
HETATM   45  N   UNL     1      -9.902   3.169  63.165  1.00  0.00    -0.099 N  
HETATM   46  H1  UNL     1     -10.820   2.761  62.985  1.00  0.00     0.000 HD 
HETATM   47  O   UNL     1      -9.667   1.525  64.679  1.00  0.00    -0.085 OA 
ENDBRANCH  41  43
ENDBRANCH  18  41
BRANCH  28  48
HETATM   48  C   UNL     1      -7.439   8.138  64.943  1.00  0.00    -0.092 C  
HETATM   49  O   UNL     1      -8.709   7.754  65.490  1.00  0.00    -0.265 OA 
HETATM   50  H   UNL     1      -8.774   7.987  66.408  1.00  0.00     0.000 HD 
ENDBRANCH  28  48
BRANCH  40  51
HETATM   51  CB  UNL     1     -10.213  11.689  63.091  1.00  0.00    -0.354 C  
HETATM   52  O   UNL     1      -9.699  12.854  63.738  1.00  0.00    -0.669 OA 
HETATM   53  H   UNL     1      -9.992  13.664  63.336  1.00  0.00     0.000 HD 
ENDBRANCH  40  51
BRANCH  31  54
HETATM   54  N   UNL     1     -10.427  11.980  68.213  1.00  0.00    -0.198 N  
HETATM   55  H   UNL     1     -11.417  11.958  68.460  1.00  0.00     0.000 HD 
HETATM   56  O   UNL     1      -8.500  13.196  68.176  1.00  0.00    -0.160 OA 
HETATM   57  C   UNL     1      -9.700  13.133  68.431  1.00  0.00    -0.196 C  
BRANCH  57  58
HETATM   58  C   UNL     1     -10.513  14.281  69.022  1.00  0.00    -0.212 C  
BRANCH  58  59
HETATM   59  C   UNL     1     -10.550  15.547  68.139  1.00  0.00    -0.266 C  
HETATM   60  H1  UNL     1      -9.262  17.045  67.554  1.00  0.00     0.000 HD 
HETATM   61  N   UNL     1      -9.237  16.208  68.137  1.00  0.00    -0.191 NA 
HETATM   62  H2  UNL     1      -8.491  15.571  67.857  1.00  0.00     0.000 HD 
BRANCH  59  63
HETATM   63  C   UNL     1     -10.913  15.249  66.665  1.00  0.00    -0.297 C  
BRANCH  63  64
HETATM   64  C   UNL     1     -12.167  14.383  66.504  1.00  0.00    -0.358 C  
BRANCH  64  65
HETATM   65  C   UNL     1     -12.550  14.199  65.035  1.00  0.00    -0.380 C  
HETATM   66  N   UNL     1     -13.096  12.860  64.838  1.00  0.00    -0.808 NA 
HETATM   67  H2  UNL     1     -13.875  12.666  65.467  1.00  0.00     0.000 HD 
HETATM   68  H1  UNL     1     -13.351  12.737  63.859  1.00  0.00     0.000 HD 
ENDBRANCH  64  65
ENDBRANCH  63  64
ENDBRANCH  59  63
ENDBRANCH  58  59
ENDBRANCH  57  58
ENDBRANCH  31  54
ENDBRANCH   1  14
TORSDOF 11
ENDMDL
MODEL       40
REMARK 921   NORMALIZED FREE ENERGY PREDICTED BY IDOCK:   -1.57 KCAL/MOL
REMARK 922        TOTAL FREE ENERGY PREDICTED BY IDOCK:   -4.54 KCAL/MOL
REMARK 923 INTER-LIGAND FREE ENERGY PREDICTED BY IDOCK:   -4.55 KCAL/MOL
REMARK 924 INTRA-LIGAND FREE ENERGY PREDICTED BY IDOCK:    0.01 KCAL/MOL
REMARK 927      BINDING AFFINITY PREDICTED BY RF-SCORE:    0.00 PKD
ROOT
HETATM    1  C   UNL     1      -8.825  16.662  67.348  1.00  0.00    -0.188 C  
HETATM    2  C   UNL     1      -7.965  17.031  66.102  1.00  0.00    -0.299 C  
HETATM    3  H1  UNL     1      -9.960  19.560  69.308  1.00  0.00     0.000 HD 
HETATM    4  H   UNL     1      -8.194  17.317  69.332  1.00  0.00     0.000 HD 
HETATM    5  C   UNL     1      -8.027  18.533  65.831  1.00  0.00    -0.006 C  
HETATM    6  H2  UNL     1      -9.398  20.698  68.098  1.00  0.00     0.000 HD 
HETATM    7  N   UNL     1      -7.662  19.225  67.037  1.00  0.00    -0.241 NA 
HETATM    8  O   UNL     1      -7.130  18.897  64.807  1.00  0.00    -0.079 OA 
HETATM    9  N   UNL     1      -8.458  17.626  68.396  1.00  0.00    -0.280 NA 
HETATM   10  N   UNL     1      -9.338  19.775  68.529  1.00  0.00    -0.323 NA 
HETATM   11  H   UNL     1      -6.868  19.862  67.105  1.00  0.00     0.000 HD 
HETATM   12  C   UNL     1      -8.485  18.940  68.068  1.00  0.00    -0.295 C  
HETATM   13  H   UNL     1      -7.169  19.832  64.639  1.00  0.00     0.000 HD 
ENDROOT
BRANCH   1  14
HETATM   14  C   UNL     1     -10.370  16.620  67.093  1.00  0.00    -0.300 C  
HETATM   15  N   UNL     1     -11.621  14.500  71.247  1.00  0.00    -0.512 N  
HETATM   16  O   UNL     1     -10.295  16.779  70.171  1.00  0.00     0.031 OA 
HETATM   17  C   UNL     1     -11.189  16.233  69.537  1.00  0.00    -0.308 C  
HETATM   18  C   UNL     1     -13.462  15.806  70.315  1.00  0.00     0.862 C  
HETATM   19  N   UNL     1      -9.647  10.926  67.007  1.00  0.00    -0.172 N  
HETATM   20  H   UNL     1     -12.068  15.556  67.850  1.00  0.00     0.000 HD 
HETATM   21  N   UNL     1     -11.269  16.099  68.180  1.00  0.00    -0.339 N  
HETATM   22  H   UNL     1     -11.016  14.807  72.009  1.00  0.00     0.000 HD 
HETATM   23  C   UNL     1     -12.177  15.437  70.353  1.00  0.00    -0.391 C  
HETATM   24  C   UNL     1     -11.912  13.137  71.075  1.00  0.00     0.176 C  
HETATM   25  O   UNL     1     -11.881  15.765  65.383  1.00  0.00     0.240 OA 
HETATM   26  O   UNL     1     -13.034  12.657  71.225  1.00  0.00    -0.322 OA 
HETATM   27  N   UNL     1      -9.893  14.666  65.577  1.00  0.00    -0.473 N  
HETATM   28  CA  UNL     1     -10.707  12.305  70.521  1.00  0.00     2.543 C  
HETATM   29  N   UNL     1     -11.004  10.921  70.086  1.00  0.00    -0.468 N  
HETATM   30  C   UNL     1     -10.227  13.557  64.678  1.00  0.00    -0.316 C  
HETATM   31  CA  UNL     1      -9.315  12.333  64.972  1.00  0.00     0.278 C  
HETATM   32  H   UNL     1      -8.964  14.676  66.000  1.00  0.00     0.000 HD 
HETATM   33  H   UNL     1     -11.892  10.465  70.290  1.00  0.00     0.000 HD 
HETATM   34  O   UNL     1     -10.969  10.562  65.195  1.00  0.00     0.069 OA 
HETATM   35  C   UNL     1      -9.980  10.278  69.374  1.00  0.00    -0.233 C  
HETATM   36  C   UNL     1     -10.082  11.226  65.730  1.00  0.00    -0.247 C  
HETATM   37  H   UNL     1      -8.830  11.423  67.364  1.00  0.00     0.000 HD 
HETATM   38  C   UNL     1     -10.758  15.696  65.886  1.00  0.00    -0.329 C  
HETATM   39  O   UNL     1      -8.821  10.295  69.796  1.00  0.00    -0.160 OA 
HETATM   40  CA  UNL     1     -10.299   9.920  67.894  1.00  0.00    -0.212 C  
BRANCH  18  41
HETATM   41  N   UNL     1     -14.404  15.342  71.200  1.00  0.00    -0.821 N  
HETATM   42  H   UNL     1     -15.288  14.991  70.831  1.00  0.00     0.000 HD 
BRANCH  41  43
HETATM   43  C   UNL     1     -14.212  15.329  72.550  1.00  0.00    -0.384 C  
HETATM   44  H2  UNL     1     -14.268  17.427  72.557  1.00  0.00     0.000 HD 
HETATM   45  N   UNL     1     -14.168  16.569  73.100  1.00  0.00     0.048 N  
HETATM   46  H1  UNL     1     -14.024  16.559  74.109  1.00  0.00     0.000 HD 
HETATM   47  O   UNL     1     -14.099  14.328  73.248  1.00  0.00     0.084 OA 
ENDBRANCH  41  43
ENDBRANCH  18  41
BRANCH  28  48
HETATM   48  C   UNL     1     -10.218  13.064  69.271  1.00  0.00     0.408 C  
HETATM   49  O   UNL     1      -8.790  12.997  69.148  1.00  0.00    -0.183 OA 
HETATM   50  H   UNL     1      -8.488  13.465  68.378  1.00  0.00     0.000 HD 
ENDBRANCH  28  48
BRANCH  40  51
HETATM   51  CB  UNL     1      -9.772   8.515  67.585  1.00  0.00    -0.160 C  
HETATM   52  O   UNL     1     -10.621   7.780  66.702  1.00  0.00    -0.467 OA 
HETATM   53  H   UNL     1     -10.294   6.908  66.510  1.00  0.00     0.000 HD 
ENDBRANCH  40  51
BRANCH  31  54
HETATM   54  N   UNL     1      -8.736  11.766  63.748  1.00  0.00     0.026 N  
HETATM   55  H   UNL     1      -8.770  12.306  62.883  1.00  0.00     0.000 HD 
HETATM   56  O   UNL     1      -8.055   9.846  64.770  1.00  0.00    -0.136 OA 
HETATM   57  C   UNL     1      -8.145  10.519  63.746  1.00  0.00    -0.039 C  
BRANCH  57  58
HETATM   58  C   UNL     1      -7.614  10.082  62.384  1.00  0.00    -0.134 C  
BRANCH  58  59
HETATM   59  C   UNL     1      -6.099   9.789  62.362  1.00  0.00    -0.098 C  
HETATM   60  H1  UNL     1      -4.420  10.321  63.432  1.00  0.00     0.000 HD 
HETATM   61  N   UNL     1      -5.422  10.515  63.446  1.00  0.00    -0.167 NA 
HETATM   62  H2  UNL     1      -5.835  10.312  64.357  1.00  0.00     0.000 HD 
BRANCH  59  63
HETATM   63  C   UNL     1      -5.768   8.288  62.542  1.00  0.00    -0.075 C  
BRANCH  63  64
HETATM   64  C   UNL     1      -5.693   7.848  64.008  1.00  0.00    -0.052 C  
BRANCH  64  65
HETATM   65  C   UNL     1      -6.756   6.802  64.346  1.00  0.00    -0.042 C  
HETATM   66  N   UNL     1      -7.520   6.478  63.146  1.00  0.00    -0.067 NA 
HETATM   67  H2  UNL     1      -6.920   6.183  62.375  1.00  0.00     0.000 HD 
HETATM   68  H1  UNL     1      -8.229   5.781  63.371  1.00  0.00     0.000 HD 
ENDBRANCH  64  65
ENDBRANCH  63  64
ENDBRANCH  59  63
ENDBRANCH  58  59
ENDBRANCH  57  58
ENDBRANCH  31  54
ENDBRANCH   1  14
TORSDOF 11
ENDMDL
MODEL       41
REMARK 921   NORMALIZED FREE ENERGY PREDICTED BY IDOCK:   -1.48 KCAL/MOL
REMARK 922        TOTAL FREE ENERGY PREDICTED BY IDOCK:   -4.38 KCAL/MOL
REMARK 923 INTER-LIGAND FREE ENERGY PREDICTED BY IDOCK:   -3.99 KCAL/MOL
REMARK 924 INTRA-LIGAND FREE ENERGY PREDICTED BY IDOCK:   -0.39 KCAL/MOL
REMARK 927      BINDING AFFINITY PREDICTED BY RF-SCORE:    0.00 PKD
ROOT
HETATM    1  C   UNL     1     -12.408  12.555  69.764  1.00  0.00    -0.020 C  
HETATM    2  C   UNL     1     -12.368  11.052  70.173  1.00  0.00    -0.389 C  
HETATM    3  H1  UNL     1     -12.872  14.872  72.582  1.00  0.00     0.000 HD 
HETATM    4  H   UNL     1     -14.146  13.772  70.277  1.00  0.00     0.000 HD 
HETATM    5  C   UNL     1     -12.253  10.910  71.689  1.00  0.00    -0.019 C  
HETATM    6  H2  UNL     1     -12.665  13.596  73.767  1.00  0.00     0.000 HD 
HETATM    7  N   UNL     1     -13.314  11.667  72.295  1.00  0.00    -0.546 NA 
HETATM    8  O   UNL     1     -12.375   9.562  72.080  1.00  0.00    -0.368 OA 
HETATM    9  N   UNL     1     -13.393  13.192  70.650  1.00  0.00     0.357 NA 
HETATM   10  N   UNL     1     -12.913  13.881  72.819  1.00  0.00    -0.383 NA 
HETATM   11  H   UNL     1     -14.029  11.258  72.897  1.00  0.00     0.000 HD 
HETATM   12  C   UNL     1     -13.260  12.979  71.981  1.00  0.00    -0.444 C  
HETATM   13  H   UNL     1     -12.304   9.474  73.023  1.00  0.00     0.000 HD 
ENDROOT
BRANCH   1  14
HETATM   14  C   UNL     1     -11.021  13.284  69.795  1.00  0.00     0.266 C  
HETATM   15  N   UNL     1     -11.711  16.082  65.920  1.00  0.00     0.607 N  
HETATM   16  O   UNL     1     -12.783  15.446  68.481  1.00  0.00     0.515 OA 
HETATM   17  C   UNL     1     -11.584  15.322  68.270  1.00  0.00    -0.341 C  
HETATM   18  C   UNL     1     -10.071  17.052  67.448  1.00  0.00    -0.291 C  
HETATM   19  N   UNL     1     -10.081  10.528  64.847  1.00  0.00    -0.329 N  
HETATM   20  H   UNL     1      -9.794  14.402  68.442  1.00  0.00     0.000 HD 
HETATM   21  N   UNL     1     -10.753  14.370  68.791  1.00  0.00    -0.246 N  
HETATM   22  H   UNL     1     -12.687  16.373  65.851  1.00  0.00     0.000 HD 
HETATM   23  C   UNL     1     -11.026  16.163  67.149  1.00  0.00    -0.144 C  
HETATM   24  C   UNL     1     -11.033  15.594  64.791  1.00  0.00    -0.400 C  
HETATM   25  O   UNL     1      -8.667  12.655  69.799  1.00  0.00     1.778 OA 
HETATM   26  O   UNL     1     -10.090  16.178  64.260  1.00  0.00     0.867 OA 
HETATM   27  N   UNL     1     -10.081  11.166  68.807  1.00  0.00    -0.200 N  
HETATM   28  CA  UNL     1     -11.483  14.158  64.362  1.00  0.00    -0.332 C  
HETATM   29  N   UNL     1     -10.654  13.482  63.340  1.00  0.00     0.518 N  
HETATM   30  C   UNL     1      -9.041  10.298  68.246  1.00  0.00    -0.139 C  
HETATM   31  CA  UNL     1      -9.613   9.472  67.059  1.00  0.00    -0.164 C  
HETATM   32  H   UNL     1     -11.055  10.910  68.648  1.00  0.00     0.000 HD 
HETATM   33  H   UNL     1      -9.934  13.973  62.812  1.00  0.00     0.000 HD 
HETATM   34  O   UNL     1      -7.950   9.911  65.338  1.00  0.00    -0.123 OA 
HETATM   35  C   UNL     1     -10.924  12.118  63.145  1.00  0.00    -0.177 C  
HETATM   36  C   UNL     1      -9.121  10.018  65.700  1.00  0.00    -0.183 C  
HETATM   37  H   UNL     1     -11.057  10.487  65.144  1.00  0.00     0.000 HD 
HETATM   38  C   UNL     1      -9.820  12.307  69.539  1.00  0.00     1.116 C  
HETATM   39  O   UNL     1     -12.084  11.727  63.000  1.00  0.00    -0.268 OA 
HETATM   40  CA  UNL     1      -9.777  11.136  63.520  1.00  0.00    -0.334 C  
BRANCH  18  41
HETATM   41  N   UNL     1      -9.674  18.046  66.589  1.00  0.00    -0.317 N  
HETATM   42  H   UNL     1      -9.023  17.811  65.840  1.00  0.00     0.000 HD 
BRANCH  41  43
HETATM   43  C   UNL     1     -10.110  19.334  66.690  1.00  0.00    -0.399 C  
HETATM   44  H2  UNL     1      -8.171  20.003  66.243  1.00  0.00     0.000 HD 
HETATM   45  N   UNL     1      -9.135  20.252  66.466  1.00  0.00    -0.555 N  
HETATM   46  H1  UNL     1      -9.462  21.215  66.542  1.00  0.00     0.000 HD 
HETATM   47  O   UNL     1     -11.257  19.685  66.942  1.00  0.00    -0.299 OA 
ENDBRANCH  41  43
ENDBRANCH  18  41
BRANCH  28  48
HETATM   48  C   UNL     1     -11.398  13.297  65.638  1.00  0.00    -0.304 C  
HETATM   49  O   UNL     1     -12.618  12.574  65.861  1.00  0.00    -0.514 OA 
HETATM   50  H   UNL     1     -12.565  12.043  66.647  1.00  0.00     0.000 HD 
ENDBRANCH  28  48
BRANCH  40  51
HETATM   51  CB  UNL     1      -9.669  10.047  62.447  1.00  0.00     0.113 C  
HETATM   52  O   UNL     1      -9.039   8.855  62.920  1.00  0.00    -0.429 OA 
HETATM   53  H   UNL     1      -8.972   8.180  62.254  1.00  0.00     0.000 HD 
ENDBRANCH  40  51
BRANCH  31  54
HETATM   54  N   UNL     1      -9.271   8.048  67.159  1.00  0.00    -0.138 N  
HETATM   55  H   UNL     1      -9.389   7.447  66.344  1.00  0.00     0.000 HD 
HETATM   56  O   UNL     1      -8.608   8.198  69.335  1.00  0.00    -0.132 OA 
HETATM   57  C   UNL     1      -8.793   7.507  68.335  1.00  0.00    -0.126 C  
BRANCH  57  58
HETATM   58  C   UNL     1      -8.509   6.010  68.264  1.00  0.00    -0.112 C  
BRANCH  58  59
HETATM   59  C   UNL     1      -9.770   5.135  68.100  1.00  0.00    -0.144 C  
HETATM   60  H1  UNL     1     -11.808   5.328  68.333  1.00  0.00     0.000 HD 
HETATM   61  N   UNL     1     -10.975   5.906  68.442  1.00  0.00    -0.251 NA 
HETATM   62  H2  UNL     1     -11.039   6.771  67.905  1.00  0.00     0.000 HD 
BRANCH  59  63
HETATM   63  C   UNL     1      -9.961   4.609  66.657  1.00  0.00    -0.260 C  
BRANCH  63  64
HETATM   64  C   UNL     1      -8.660   4.548  65.849  1.00  0.00    -0.115 C  
BRANCH  64  65
HETATM   65  C   UNL     1      -8.649   5.566  64.707  1.00  0.00    -0.091 C  
HETATM   66  N   UNL     1      -8.225   4.911  63.475  1.00  0.00    -0.105 NA 
HETATM   67  H2  UNL     1      -8.796   4.094  63.257  1.00  0.00     0.000 HD 
HETATM   68  H1  UNL     1      -8.218   5.590  62.714  1.00  0.00     0.000 HD 
ENDBRANCH  64  65
ENDBRANCH  63  64
ENDBRANCH  59  63
ENDBRANCH  58  59
ENDBRANCH  57  58
ENDBRANCH  31  54
ENDBRANCH   1  14
TORSDOF 11
ENDMDL
MODEL       42
REMARK 921   NORMALIZED FREE ENERGY PREDICTED BY IDOCK:   -1.23 KCAL/MOL
REMARK 922        TOTAL FREE ENERGY PREDICTED BY IDOCK:   -3.99 KCAL/MOL
REMARK 923 INTER-LIGAND FREE ENERGY PREDICTED BY IDOCK:   -5.16 KCAL/MOL
REMARK 924 INTRA-LIGAND FREE ENERGY PREDICTED BY IDOCK:    1.17 KCAL/MOL
REMARK 927      BINDING AFFINITY PREDICTED BY RF-SCORE:    0.00 PKD
ROOT
HETATM    1  C   UNL     1     -10.650  13.061  64.786  1.00  0.00    -0.362 C  
HETATM    2  C   UNL     1      -9.677  11.859  64.602  1.00  0.00    -0.138 C  
HETATM    3  H1  UNL     1     -13.894  12.645  63.104  1.00  0.00     0.000 HD 
HETATM    4  H   UNL     1     -11.437  14.096  63.032  1.00  0.00     0.000 HD 
HETATM    5  C   UNL     1     -10.407  10.664  63.993  1.00  0.00    -0.191 C  
HETATM    6  H2  UNL     1     -13.563  10.969  62.710  1.00  0.00     0.000 HD 
HETATM    7  N   UNL     1     -11.056  11.098  62.787  1.00  0.00    -0.571 NA 
HETATM    8  O   UNL     1      -9.504   9.629  63.677  1.00  0.00    -0.430 OA 
HETATM    9  N   UNL     1     -11.374  13.198  63.513  1.00  0.00    -0.272 NA 
HETATM   10  N   UNL     1     -13.217  11.901  62.939  1.00  0.00    -0.152 NA 
HETATM   11  H   UNL     1     -10.861  10.704  61.866  1.00  0.00     0.000 HD 
HETATM   12  C   UNL     1     -11.953  12.083  63.006  1.00  0.00    -0.007 C  
HETATM   13  H   UNL     1      -9.958   8.886  63.299  1.00  0.00     0.000 HD 
ENDROOT
BRANCH   1  14
HETATM   14  C   UNL     1     -11.619  12.944  66.011  1.00  0.00    -0.375 C  
HETATM   15  N   UNL     1      -9.153  15.802  69.022  1.00  0.00    -0.227 N  
HETATM   16  O   UNL     1     -10.433  15.751  66.479  1.00  0.00    -0.293 OA 
HETATM   17  C   UNL     1     -10.824  15.017  67.377  1.00  0.00    -0.305 C  
HETATM   18  C   UNL     1     -11.521  15.708  69.611  1.00  0.00    -0.340 C  
HETATM   19  N   UNL     1      -7.214  10.266  68.537  1.00  0.00    -0.078 N  
HETATM   20  H   UNL     1     -11.542  13.284  68.124  1.00  0.00     0.000 HD 
HETATM   21  N   UNL     1     -11.328  13.754  67.244  1.00  0.00    -0.307 N  
HETATM   22  H   UNL     1      -8.709  16.568  68.515  1.00  0.00     0.000 HD 
HETATM   23  C   UNL     1     -10.501  15.470  68.779  1.00  0.00    -0.234 C  
HETATM   24  C   UNL     1      -8.429  15.065  69.973  1.00  0.00     0.437 C  
HETATM   25  O   UNL     1     -12.587  11.164  67.365  1.00  0.00     1.205 OA 
HETATM   26  O   UNL     1      -8.679  15.077  71.176  1.00  0.00     2.107 OA 
HETATM   27  N   UNL     1     -10.580  10.681  66.395  1.00  0.00    -0.210 N  
HETATM   28  CA  UNL     1      -7.370  14.100  69.343  1.00  0.00     0.033 C  
HETATM   29  N   UNL     1      -6.742  13.119  70.256  1.00  0.00    -0.218 N  
HETATM   30  C   UNL     1     -10.357   9.413  67.096  1.00  0.00    -0.258 C  
HETATM   31  CA  UNL     1      -8.845   9.053  67.089  1.00  0.00    -0.119 C  
HETATM   32  H   UNL     1      -9.878  10.986  65.721  1.00  0.00     0.000 HD 
HETATM   33  H   UNL     1      -6.851  13.171  71.269  1.00  0.00     0.000 HD 
HETATM   34  O   UNL     1      -8.461   8.598  69.448  1.00  0.00    -0.122 OA 
HETATM   35  C   UNL     1      -5.984  12.113  69.637  1.00  0.00    -0.117 C  
HETATM   36  C   UNL     1      -8.198   9.298  68.470  1.00  0.00    -0.114 C  
HETATM   37  H   UNL     1      -6.947  10.738  67.673  1.00  0.00     0.000 HD 
HETATM   38  C   UNL     1     -11.683  11.488  66.593  1.00  0.00     0.135 C  
HETATM   39  O   UNL     1      -5.153  12.401  68.772  1.00  0.00    -0.055 OA 
HETATM   40  CA  UNL     1      -6.520  10.662  69.797  1.00  0.00    -0.110 C  
BRANCH  18  41
HETATM   41  N   UNL     1     -11.378  16.367  70.807  1.00  0.00    -0.506 N  
HETATM   42  H   UNL     1     -10.652  17.079  70.887  1.00  0.00     0.000 HD 
BRANCH  41  43
HETATM   43  C   UNL     1     -12.164  16.115  71.893  1.00  0.00    -0.430 C  
HETATM   44  H2  UNL     1     -13.841  16.034  70.633  1.00  0.00     0.000 HD 
HETATM   45  N   UNL     1     -13.477  15.965  71.583  1.00  0.00    -0.420 N  
HETATM   46  H1  UNL     1     -14.065  15.776  72.395  1.00  0.00     0.000 HD 
HETATM   47  O   UNL     1     -11.775  16.010  73.050  1.00  0.00    -0.422 OA 
ENDBRANCH  41  43
ENDBRANCH  18  41
BRANCH  28  48
HETATM   48  C   UNL     1      -8.132  13.285  68.279  1.00  0.00    -0.156 C  
HETATM   49  O   UNL     1      -7.410  13.244  67.039  1.00  0.00    -0.363 OA 
HETATM   50  H   UNL     1      -7.879  12.742  66.383  1.00  0.00     0.000 HD 
ENDBRANCH  28  48
BRANCH  40  51
HETATM   51  CB  UNL     1      -5.349   9.715  70.080  1.00  0.00    -0.032 C  
HETATM   52  O   UNL     1      -5.440   8.481  69.365  1.00  0.00    -0.030 OA 
HETATM   53  H   UNL     1      -4.713   7.895  69.541  1.00  0.00     0.000 HD 
ENDBRANCH  40  51
BRANCH  31  54
HETATM   54  N   UNL     1      -8.608   7.662  66.685  1.00  0.00    -0.127 N  
HETATM   55  H   UNL     1      -9.250   6.934  66.999  1.00  0.00     0.000 HD 
HETATM   56  O   UNL     1      -6.751   8.166  65.463  1.00  0.00    -0.051 OA 
HETATM   57  C   UNL     1      -7.534   7.320  65.889  1.00  0.00    -0.080 C  
BRANCH  57  58
HETATM   58  C   UNL     1      -7.432   5.828  65.585  1.00  0.00    -0.077 C  
BRANCH  58  59
HETATM   59  C   UNL     1      -8.781   5.079  65.641  1.00  0.00    -0.139 C  
HETATM   60  H1  UNL     1      -9.696   3.500  64.685  1.00  0.00     0.000 HD 
HETATM   61  N   UNL     1      -8.805   3.994  64.648  1.00  0.00    -0.125 NA 
HETATM   62  H2  UNL     1      -8.013   3.361  64.757  1.00  0.00     0.000 HD 
BRANCH  59  63
HETATM   63  C   UNL     1      -9.064   4.440  67.021  1.00  0.00    -0.140 C  
BRANCH  63  64
HETATM   64  C   UNL     1      -9.303   2.927  66.959  1.00  0.00    -0.132 C  
BRANCH  64  65
HETATM   65  C   UNL     1      -9.188   2.274  68.337  1.00  0.00    -0.188 C  
HETATM   66  N   UNL     1      -7.824   1.797  68.538  1.00  0.00    -0.049 NA 
HETATM   67  H2  UNL     1      -7.134   2.536  68.404  1.00  0.00     0.000 HD 
HETATM   68  H1  UNL     1      -7.747   1.362  69.457  1.00  0.00     0.000 HD 
ENDBRANCH  64  65
ENDBRANCH  63  64
ENDBRANCH  59  63
ENDBRANCH  58  59
ENDBRANCH  57  58
ENDBRANCH  31  54
ENDBRANCH   1  14
TORSDOF 11
ENDMDL
MODEL       43
REMARK 921   NORMALIZED FREE ENERGY PREDICTED BY IDOCK:   -0.91 KCAL/MOL
REMARK 922        TOTAL FREE ENERGY PREDICTED BY IDOCK:   -3.45 KCAL/MOL
REMARK 923 INTER-LIGAND FREE ENERGY PREDICTED BY IDOCK:   -6.64 KCAL/MOL
REMARK 924 INTRA-LIGAND FREE ENERGY PREDICTED BY IDOCK:    3.19 KCAL/MOL
REMARK 927      BINDING AFFINITY PREDICTED BY RF-SCORE:    0.00 PKD
ROOT
HETATM    1  C   UNL     1     -10.426  13.266  64.465  1.00  0.00    -0.415 C  
HETATM    2  C   UNL     1      -9.684  11.928  64.757  1.00  0.00    -0.143 C  
HETATM    3  H1  UNL     1     -13.760  12.845  62.970  1.00  0.00     0.000 HD 
HETATM    4  H   UNL     1     -11.095  13.714  62.436  1.00  0.00     0.000 HD 
HETATM    5  C   UNL     1     -10.634  10.742  64.607  1.00  0.00    -0.199 C  
HETATM    6  H2  UNL     1     -13.741  11.110  63.223  1.00  0.00     0.000 HD 
HETATM    7  N   UNL     1     -11.248  10.815  63.310  1.00  0.00    -0.154 NA 
HETATM    8  O   UNL     1      -9.938   9.522  64.714  1.00  0.00    -0.367 OA 
HETATM    9  N   UNL     1     -11.167  13.056  63.213  1.00  0.00    -0.100 NA 
HETATM   10  N   UNL     1     -13.230  11.985  63.104  1.00  0.00    -0.395 NA 
HETATM   11  H   UNL     1     -11.162  10.086  62.601  1.00  0.00     0.000 HD 
HETATM   12  C   UNL     1     -11.951  11.954  63.132  1.00  0.00    -0.181 C  
HETATM   13  H   UNL     1     -10.529   8.784  64.621  1.00  0.00     0.000 HD 
ENDROOT
BRANCH   1  14
HETATM   14  C   UNL     1     -11.350  13.774  65.624  1.00  0.00    -0.305 C  
HETATM   15  N   UNL     1      -8.119  16.649  67.771  1.00  0.00    -0.174 N  
HETATM   16  O   UNL     1      -9.453  16.182  65.299  1.00  0.00    -0.320 OA 
HETATM   17  C   UNL     1      -9.992  15.876  66.354  1.00  0.00    -0.287 C  
HETATM   18  C   UNL     1     -10.407  17.355  68.250  1.00  0.00    -0.374 C  
HETATM   19  N   UNL     1      -7.721  10.913  69.030  1.00  0.00    -0.130 N  
HETATM   20  H   UNL     1     -11.115  14.693  67.544  1.00  0.00     0.000 HD 
HETATM   21  N   UNL     1     -10.815  14.808  66.576  1.00  0.00    -0.313 N  
HETATM   22  H   UNL     1      -7.506  17.086  67.082  1.00  0.00     0.000 HD 
HETATM   23  C   UNL     1      -9.514  16.623  67.574  1.00  0.00    -0.229 C  
HETATM   24  C   UNL     1      -7.582  16.065  68.929  1.00  0.00    -0.192 C  
HETATM   25  O   UNL     1     -12.705  12.792  67.395  1.00  0.00     0.316 OA 
HETATM   26  O   UNL     1      -7.779  16.497  70.063  1.00  0.00     0.624 OA 
HETATM   27  N   UNL     1     -10.930  11.538  66.706  1.00  0.00    -0.283 N  
HETATM   28  CA  UNL     1      -6.836  14.715  68.661  1.00  0.00    -0.094 C  
HETATM   29  N   UNL     1      -6.457  13.921  69.852  1.00  0.00    -0.274 N  
HETATM   30  C   UNL     1     -11.025  10.522  67.758  1.00  0.00    -0.313 C  
HETATM   31  CA  UNL     1      -9.661   9.795  67.928  1.00  0.00    -0.138 C  
HETATM   32  H   UNL     1     -10.195  11.435  66.005  1.00  0.00     0.000 HD 
HETATM   33  H   UNL     1      -6.514  14.297  70.798  1.00  0.00     0.000 HD 
HETATM   34  O   UNL     1      -9.331   9.976  70.332  1.00  0.00    -0.108 OA 
HETATM   35  C   UNL     1      -6.012  12.615  69.593  1.00  0.00    -0.122 C  
HETATM   36  C   UNL     1      -8.926  10.260  69.205  1.00  0.00    -0.180 C  
HETATM   37  H   UNL     1      -7.368  11.021  68.078  1.00  0.00     0.000 HD 
HETATM   38  C   UNL     1     -11.774  12.625  66.605  1.00  0.00    -0.398 C  
HETATM   39  O   UNL     1      -5.165  12.406  68.721  1.00  0.00    -0.054 OA 
HETATM   40  CA  UNL     1      -6.905  11.469  70.148  1.00  0.00     0.388 C  
BRANCH  18  41
HETATM   41  N   UNL     1     -10.055  18.278  69.204  1.00  0.00    -0.379 N  
HETATM   42  H   UNL     1      -9.890  17.954  70.157  1.00  0.00     0.000 HD 
BRANCH  41  43
HETATM   43  C   UNL     1      -9.916  19.607  68.936  1.00  0.00    -0.438 C  
HETATM   44  H2  UNL     1      -9.018  19.120  67.102  1.00  0.00     0.000 HD 
HETATM   45  N   UNL     1      -9.327  19.855  67.738  1.00  0.00    -0.338 N  
HETATM   46  H1  UNL     1      -9.222  20.849  67.537  1.00  0.00     0.000 HD 
HETATM   47  O   UNL     1     -10.280  20.527  69.659  1.00  0.00     0.081 OA 
ENDBRANCH  41  43
ENDBRANCH  18  41
BRANCH  28  48
HETATM   48  C   UNL     1      -7.821  13.849  67.851  1.00  0.00    -0.161 C  
HETATM   49  O   UNL     1      -7.131  13.044  66.883  1.00  0.00    -0.355 OA 
HETATM   50  H   UNL     1      -7.738  12.511  66.383  1.00  0.00     0.000 HD 
ENDBRANCH  28  48
BRANCH  40  51
HETATM   51  CB  UNL     1      -6.014  10.377  70.751  1.00  0.00    -0.080 C  
HETATM   52  O   UNL     1      -5.303  10.812  71.911  1.00  0.00    -0.305 OA 
HETATM   53  H   UNL     1      -4.751  10.135  72.285  1.00  0.00     0.000 HD 
ENDBRANCH  40  51
BRANCH  31  54
HETATM   54  N   UNL     1      -9.812   8.335  67.963  1.00  0.00    -0.162 N  
HETATM   55  H   UNL     1      -9.323   7.800  68.681  1.00  0.00     0.000 HD 
HETATM   56  O   UNL     1     -11.232   8.280  66.182  1.00  0.00     1.807 OA 
HETATM   57  C   UNL     1     -10.602   7.674  67.046  1.00  0.00    -0.336 C  
BRANCH  57  58
HETATM   58  C   UNL     1     -10.628   6.159  67.220  1.00  0.00    -0.362 C  
BRANCH  58  59
HETATM   59  C   UNL     1      -9.338   5.572  67.832  1.00  0.00    -0.110 C  
HETATM   60  H1  UNL     1      -8.807   4.343  69.398  1.00  0.00     0.000 HD 
HETATM   61  N   UNL     1      -9.660   4.731  68.994  1.00  0.00    -0.152 NA 
HETATM   62  H2  UNL     1     -10.335   4.002  68.761  1.00  0.00     0.000 HD 
BRANCH  59  63
HETATM   63  C   UNL     1      -8.540   4.693  66.840  1.00  0.00    -0.104 C  
BRANCH  63  64
HETATM   64  C   UNL     1      -7.262   5.360  66.318  1.00  0.00    -0.077 C  
BRANCH  64  65
HETATM   65  C   UNL     1      -7.111   5.199  64.805  1.00  0.00    -0.058 C  
HETATM   66  N   UNL     1      -8.421   5.297  64.171  1.00  0.00    -0.195 NA 
HETATM   67  H2  UNL     1      -8.907   6.158  64.421  1.00  0.00     0.000 HD 
HETATM   68  H1  UNL     1      -8.320   5.190  63.162  1.00  0.00     0.000 HD 
ENDBRANCH  64  65
ENDBRANCH  63  64
ENDBRANCH  59  63
ENDBRANCH  58  59
ENDBRANCH  57  58
ENDBRANCH  31  54
ENDBRANCH   1  14
TORSDOF 11
ENDMDL
MODEL       44
REMARK 921   NORMALIZED FREE ENERGY PREDICTED BY IDOCK:   -0.62 KCAL/MOL
REMARK 922        TOTAL FREE ENERGY PREDICTED BY IDOCK:   -2.98 KCAL/MOL
REMARK 923 INTER-LIGAND FREE ENERGY PREDICTED BY IDOCK:   -5.25 KCAL/MOL
REMARK 924 INTRA-LIGAND FREE ENERGY PREDICTED BY IDOCK:    2.27 KCAL/MOL
REMARK 927      BINDING AFFINITY PREDICTED BY RF-SCORE:    0.00 PKD
ROOT
HETATM    1  C   UNL     1     -11.211  11.106  65.235  1.00  0.00     0.089 C  
HETATM    2  C   UNL     1     -12.338  11.932  65.925  1.00  0.00     0.792 C  
HETATM    3  H1  UNL     1      -9.728  12.743  62.294  1.00  0.00     0.000 HD 
HETATM    4  H   UNL     1     -11.393  10.578  63.125  1.00  0.00     0.000 HD 
HETATM    5  C   UNL     1     -12.372  13.357  65.379  1.00  0.00    -0.477 C  
HETATM    6  H2  UNL     1     -10.573  14.248  62.609  1.00  0.00     0.000 HD 
HETATM    7  N   UNL     1     -12.471  13.290  63.947  1.00  0.00    -0.687 NA 
HETATM    8  O   UNL     1     -13.484  14.063  65.880  1.00  0.00    -0.562 OA 
HETATM    9  N   UNL     1     -11.354  11.350  63.792  1.00  0.00    -0.326 NA 
HETATM   10  N   UNL     1     -10.514  13.235  62.719  1.00  0.00     2.320 NA 
HETATM   11  H   UNL     1     -13.243  13.691  63.414  1.00  0.00     0.000 HD 
HETATM   12  C   UNL     1     -11.430  12.639  63.385  1.00  0.00    -0.435 C  
HETATM   13  H   UNL     1     -13.504  14.950  65.540  1.00  0.00     0.000 HD 
ENDROOT
BRANCH   1  14
HETATM   14  C   UNL     1      -9.763  11.409  65.749  1.00  0.00    -0.233 C  
HETATM   15  N   UNL     1      -8.158   6.854  65.785  1.00  0.00    -0.116 N  
HETATM   16  O   UNL     1      -9.267   8.858  64.091  1.00  0.00     0.172 OA 
HETATM   17  C   UNL     1      -8.599   9.179  65.065  1.00  0.00    -0.180 C  
HETATM   18  C   UNL     1      -6.324   8.451  65.564  1.00  0.00    -0.048 C  
HETATM   19  N   UNL     1     -11.401   8.494  70.415  1.00  0.00    -0.391 N  
HETATM   20  H   UNL     1      -8.153  10.331  66.662  1.00  0.00     0.000 HD 
HETATM   21  N   UNL     1      -8.783  10.274  65.861  1.00  0.00    -0.151 N  
HETATM   22  H   UNL     1      -8.562   6.321  65.014  1.00  0.00     0.000 HD 
HETATM   23  C   UNL     1      -7.625   8.140  65.562  1.00  0.00    -0.087 C  
HETATM   24  C   UNL     1      -8.127   6.318  67.082  1.00  0.00    -0.109 C  
HETATM   25  O   UNL     1      -8.736  12.532  67.652  1.00  0.00    -0.158 OA 
HETATM   26  O   UNL     1      -7.089   6.020  67.669  1.00  0.00    -0.070 OA 
HETATM   27  N   UNL     1     -10.810  11.662  68.027  1.00  0.00    -0.203 N  
HETATM   28  CA  UNL     1      -9.529   6.279  67.778  1.00  0.00    -0.118 C  
HETATM   29  N   UNL     1      -9.541   5.957  69.222  1.00  0.00    -0.137 N  
HETATM   30  C   UNL     1     -10.824  11.880  69.476  1.00  0.00     0.050 C  
HETATM   31  CA  UNL     1     -11.855  10.934  70.153  1.00  0.00    -0.353 C  
HETATM   32  H   UNL     1     -11.635  11.242  67.598  1.00  0.00     0.000 HD 
HETATM   33  H   UNL     1      -8.716   5.608  69.709  1.00  0.00     0.000 HD 
HETATM   34  O   UNL     1     -10.496   9.945  71.913  1.00  0.00     0.591 OA 
HETATM   35  C   UNL     1     -10.765   6.161  69.878  1.00  0.00    -0.301 C  
HETATM   36  C   UNL     1     -11.156   9.769  70.889  1.00  0.00    -0.357 C  
HETATM   37  H   UNL     1     -12.051   8.389  69.635  1.00  0.00     0.000 HD 
HETATM   38  C   UNL     1      -9.749  11.989  67.207  1.00  0.00    -0.185 C  
HETATM   39  O   UNL     1     -11.813   5.730  69.391  1.00  0.00     0.680 OA 
HETATM   40  CA  UNL     1     -10.774   7.262  70.976  1.00  0.00    -0.231 C  
BRANCH  18  41
HETATM   41  N   UNL     1      -5.328   7.521  65.737  1.00  0.00    -0.028 N  
HETATM   42  H   UNL     1      -4.634   7.681  66.467  1.00  0.00     0.000 HD 
BRANCH  41  43
HETATM   43  C   UNL     1      -5.225   6.394  64.977  1.00  0.00    -0.021 C  
HETATM   44  H2  UNL     1      -5.183   5.243  66.732  1.00  0.00     0.000 HD 
HETATM   45  N   UNL     1      -5.159   5.254  65.712  1.00  0.00    -0.005 N  
HETATM   46  H1  UNL     1      -5.082   4.411  65.144  1.00  0.00     0.000 HD 
HETATM   47  O   UNL     1      -5.205   6.354  63.752  1.00  0.00    -0.017 OA 
ENDBRANCH  41  43
ENDBRANCH  18  41
BRANCH  28  48
HETATM   48  C   UNL     1     -10.101   7.703  67.639  1.00  0.00    -0.192 C  
HETATM   49  O   UNL     1     -11.327   7.701  66.891  1.00  0.00    -0.207 OA 
HETATM   50  H   UNL     1     -11.680   8.579  66.806  1.00  0.00     0.000 HD 
ENDBRANCH  28  48
BRANCH  40  51
HETATM   51  CB  UNL     1     -11.568   6.765  72.189  1.00  0.00    -0.288 C  
HETATM   52  O   UNL     1     -11.962   7.818  73.071  1.00  0.00    -0.610 OA 
HETATM   53  H   UNL     1     -12.454   7.509  73.823  1.00  0.00     0.000 HD 
ENDBRANCH  40  51
BRANCH  31  54
HETATM   54  N   UNL     1     -12.725  11.647  71.096  1.00  0.00    -0.370 N  
HETATM   55  H   UNL     1     -13.534  11.166  71.490  1.00  0.00     0.000 HD 
HETATM   56  O   UNL     1     -11.490  13.561  71.033  1.00  0.00     0.396 OA 
HETATM   57  C   UNL     1     -12.469  12.953  71.460  1.00  0.00    -0.056 C  
BRANCH  57  58
HETATM   58  C   UNL     1     -13.487  13.541  72.433  1.00  0.00    -0.685 C  
BRANCH  58  59
HETATM   59  C   UNL     1     -13.816  15.027  72.180  1.00  0.00    -0.479 C  
HETATM   60  H1  UNL     1     -14.247  16.710  73.289  1.00  0.00     0.000 HD 
HETATM   61  N   UNL     1     -14.029  15.728  73.456  1.00  0.00    -0.527 NA 
HETATM   62  H2  UNL     1     -13.237  15.615  74.089  1.00  0.00     0.000 HD 
BRANCH  59  63
HETATM   63  C   UNL     1     -12.691  15.780  71.430  1.00  0.00    -0.509 C  
BRANCH  63  64
HETATM   64  C   UNL     1     -12.784  15.662  69.905  1.00  0.00     0.006 C  
BRANCH  64  65
HETATM   65  C   UNL     1     -11.546  16.232  69.211  1.00  0.00    -0.196 C  
HETATM   66  N   UNL     1     -10.558  15.174  69.033  1.00  0.00    -0.236 NA 
HETATM   67  H2  UNL     1     -10.941  14.368  68.538  1.00  0.00     0.000 HD 
HETATM   68  H1  UNL     1      -9.732  15.553  68.570  1.00  0.00     0.000 HD 
ENDBRANCH  64  65
ENDBRANCH  63  64
ENDBRANCH  59  63
ENDBRANCH  58  59
ENDBRANCH  57  58
ENDBRANCH  31  54
ENDBRANCH   1  14
TORSDOF 11
ENDMDL
MODEL       45
REMARK 921   NORMALIZED FREE ENERGY PREDICTED BY IDOCK:   -0.58 KCAL/MOL
REMARK 922        TOTAL FREE ENERGY PREDICTED BY IDOCK:   -2.91 KCAL/MOL
REMARK 923 INTER-LIGAND FREE ENERGY PREDICTED BY IDOCK:   -5.94 KCAL/MOL
REMARK 924 INTRA-LIGAND FREE ENERGY PREDICTED BY IDOCK:    3.02 KCAL/MOL
REMARK 927      BINDING AFFINITY PREDICTED BY RF-SCORE:    0.00 PKD
ROOT
HETATM    1  C   UNL     1      -7.914   6.774  70.857  1.00  0.00    -0.106 C  
HETATM    2  C   UNL     1      -7.601   8.179  70.260  1.00  0.00    -0.080 C  
HETATM    3  H1  UNL     1     -10.996   6.640  72.859  1.00  0.00     0.000 HD 
HETATM    4  H   UNL     1      -8.148   6.543  73.015  1.00  0.00     0.000 HD 
HETATM    5  C   UNL     1      -8.801   9.110  70.417  1.00  0.00    -0.220 C  
HETATM    6  H2  UNL     1     -11.473   8.257  72.376  1.00  0.00     0.000 HD 
HETATM    7  N   UNL     1      -9.185   9.120  71.802  1.00  0.00    -0.326 NA 
HETATM    8  O   UNL     1      -8.475  10.423  70.025  1.00  0.00    -0.362 OA 
HETATM    9  N   UNL     1      -8.501   7.017  72.183  1.00  0.00    -0.112 NA 
HETATM   10  N   UNL     1     -10.737   7.565  72.517  1.00  0.00    -0.259 NA 
HETATM   11  H   UNL     1      -9.197   9.962  72.379  1.00  0.00     0.000 HD 
HETATM   12  C   UNL     1      -9.529   7.896  72.255  1.00  0.00    -0.189 C  
HETATM   13  H   UNL     1      -9.222  11.002  70.123  1.00  0.00     0.000 HD 
ENDROOT
BRANCH   1  14
HETATM   14  C   UNL     1      -8.822   5.864  69.962  1.00  0.00    -0.137 C  
HETATM   15  N   UNL     1      -5.737   5.339  66.285  1.00  0.00    -0.017 N  
HETATM   16  O   UNL     1      -6.020   4.921  69.088  1.00  0.00    -0.019 OA 
HETATM   17  C   UNL     1      -7.005   4.899  68.361  1.00  0.00    -0.057 C  
HETATM   18  C   UNL     1      -7.324   3.486  66.398  1.00  0.00    -0.076 C  
HETATM   19  N   UNL     1      -8.832  10.345  66.374  1.00  0.00    -0.144 N  
HETATM   20  H   UNL     1      -8.935   5.280  67.905  1.00  0.00     0.000 HD 
HETATM   21  N   UNL     1      -8.264   5.329  68.673  1.00  0.00    -0.093 N  
HETATM   22  H   UNL     1      -4.774   5.302  66.621  1.00  0.00     0.000 HD 
HETATM   23  C   UNL     1      -6.742   4.576  66.912  1.00  0.00    -0.051 C  
HETATM   24  C   UNL     1      -6.078   6.151  65.191  1.00  0.00    -0.030 C  
HETATM   25  O   UNL     1     -11.057   5.962  68.997  1.00  0.00    -0.336 OA 
HETATM   26  O   UNL     1      -6.458   5.709  64.109  1.00  0.00    -0.031 OA 
HETATM   27  N   UNL     1     -10.059   7.978  69.370  1.00  0.00    -0.192 N  
HETATM   28  CA  UNL     1      -6.084   7.680  65.525  1.00  0.00    -0.038 C  
HETATM   29  N   UNL     1      -6.665   8.579  64.502  1.00  0.00    -0.066 N  
HETATM   30  C   UNL     1     -11.061   8.792  68.676  1.00  0.00     0.280 C  
HETATM   31  CA  UNL     1     -10.450  10.161  68.264  1.00  0.00    -0.211 C  
HETATM   32  H   UNL     1      -9.271   8.457  69.807  1.00  0.00     0.000 HD 
HETATM   33  H   UNL     1      -6.892   8.257  63.561  1.00  0.00     0.000 HD 
HETATM   34  O   UNL     1     -11.055  10.253  65.909  1.00  0.00     0.244 OA 
HETATM   35  C   UNL     1      -6.882   9.903  64.911  1.00  0.00    -0.127 C  
HETATM   36  C   UNL     1     -10.156  10.216  66.749  1.00  0.00    -0.219 C  
HETATM   37  H   UNL     1      -8.131  10.430  67.110  1.00  0.00     0.000 HD 
HETATM   38  C   UNL     1     -10.117   6.602  69.469  1.00  0.00    -0.177 C  
HETATM   39  O   UNL     1      -5.994  10.529  65.495  1.00  0.00    -0.115 OA 
HETATM   40  CA  UNL     1      -8.366  10.367  64.957  1.00  0.00    -0.166 C  
BRANCH  18  41
HETATM   41  N   UNL     1      -6.964   2.941  65.190  1.00  0.00    -0.051 N  
HETATM   42  H   UNL     1      -5.976   2.754  65.015  1.00  0.00     0.000 HD 
BRANCH  41  43
HETATM   43  C   UNL     1      -7.866   2.637  64.214  1.00  0.00    -0.077 C  
HETATM   44  H2  UNL     1      -7.962   4.670  63.700  1.00  0.00     0.000 HD 
HETATM   45  N   UNL     1      -8.287   3.721  63.514  1.00  0.00    -0.089 N  
HETATM   46  H1  UNL     1      -8.962   3.494  62.784  1.00  0.00     0.000 HD 
HETATM   47  O   UNL     1      -8.278   1.514  63.942  1.00  0.00    -0.064 OA 
ENDBRANCH  41  43
ENDBRANCH  18  41
BRANCH  28  48
HETATM   48  C   UNL     1      -6.957   7.828  66.787  1.00  0.00    -0.072 C  
HETATM   49  O   UNL     1      -6.385   8.768  67.709  1.00  0.00    -0.055 OA 
HETATM   50  H   UNL     1      -6.923   8.859  68.486  1.00  0.00     0.000 HD 
ENDBRANCH  28  48
BRANCH  40  51
HETATM   51  CB  UNL     1      -8.474  11.784  64.382  1.00  0.00     1.236 C  
HETATM   52  O   UNL     1      -9.422  11.887  63.319  1.00  0.00    -0.557 OA 
HETATM   53  H   UNL     1      -9.489  12.766  62.963  1.00  0.00     0.000 HD 
ENDBRANCH  40  51
BRANCH  31  54
HETATM   54  N   UNL     1     -11.319  11.287  68.628  1.00  0.00    -0.245 N  
HETATM   55  H   UNL     1     -12.283  11.105  68.905  1.00  0.00     0.000 HD 
HETATM   56  O   UNL     1      -9.693  12.851  68.303  1.00  0.00    -0.219 OA 
HETATM   57  C   UNL     1     -10.856  12.587  68.602  1.00  0.00    -0.248 C  
BRANCH  57  58
HETATM   58  C   UNL     1     -11.899  13.629  68.991  1.00  0.00    -0.393 C  
BRANCH  58  59
HETATM   59  C   UNL     1     -12.291  14.587  67.846  1.00  0.00     0.066 C  
HETATM   60  H1  UNL     1     -11.496  16.223  66.878  1.00  0.00     0.000 HD 
HETATM   61  N   UNL     1     -11.237  15.590  67.634  1.00  0.00    -0.316 NA 
HETATM   62  H2  UNL     1     -10.327  15.158  67.474  1.00  0.00     0.000 HD 
BRANCH  59  63
HETATM   63  C   UNL     1     -12.508  13.863  66.495  1.00  0.00    -0.364 C  
BRANCH  63  64
HETATM   64  C   UNL     1     -12.157  14.722  65.275  1.00  0.00    -0.198 C  
BRANCH  64  65
HETATM   65  C   UNL     1     -12.201  13.915  63.977  1.00  0.00    -0.369 C  
HETATM   66  N   UNL     1     -12.329  12.495  64.290  1.00  0.00    -0.488 NA 
HETATM   67  H2  UNL     1     -13.131  12.303  64.890  1.00  0.00     0.000 HD 
HETATM   68  H1  UNL     1     -12.358  11.957  63.424  1.00  0.00     0.000 HD 
ENDBRANCH  64  65
ENDBRANCH  63  64
ENDBRANCH  59  63
ENDBRANCH  58  59
ENDBRANCH  57  58
ENDBRANCH  31  54
ENDBRANCH   1  14
TORSDOF 11
ENDMDL
MODEL       46
REMARK 921   NORMALIZED FREE ENERGY PREDICTED BY IDOCK:   -0.57 KCAL/MOL
REMARK 922        TOTAL FREE ENERGY PREDICTED BY IDOCK:   -2.89 KCAL/MOL
REMARK 923 INTER-LIGAND FREE ENERGY PREDICTED BY IDOCK:   -3.84 KCAL/MOL
REMARK 924 INTRA-LIGAND FREE ENERGY PREDICTED BY IDOCK:    0.95 KCAL/MOL
REMARK 927      BINDING AFFINITY PREDICTED BY RF-SCORE:    0.00 PKD
ROOT
HETATM    1  C   UNL     1     -11.340  11.091  66.358  1.00  0.00     0.175 C  
HETATM    2  C   UNL     1     -10.905  12.220  67.340  1.00  0.00    -0.277 C  
HETATM    3  H1  UNL     1     -12.420  12.300  63.056  1.00  0.00     0.000 HD 
HETATM    4  H   UNL     1     -13.342  11.125  65.488  1.00  0.00     0.000 HD 
HETATM    5  C   UNL     1     -10.766  13.550  66.603  1.00  0.00    -0.282 C  
HETATM    6  H2  UNL     1     -11.888  13.936  63.394  1.00  0.00     0.000 HD 
HETATM    7  N   UNL     1     -11.993  13.808  65.901  1.00  0.00    -0.383 NA 
HETATM    8  O   UNL     1     -10.528  14.605  67.507  1.00  0.00    -0.244 OA 
HETATM    9  N   UNL     1     -12.465  11.637  65.583  1.00  0.00     0.639 NA 
HETATM   10  N   UNL     1     -12.197  13.026  63.736  1.00  0.00    -0.605 NA 
HETATM   11  H   UNL     1     -12.577  14.629  66.065  1.00  0.00     0.000 HD 
HETATM   12  C   UNL     1     -12.288  12.847  65.000  1.00  0.00    -0.485 C  
HETATM   13  H   UNL     1     -10.441  15.432  67.048  1.00  0.00     0.000 HD 
ENDROOT
BRANCH   1  14
HETATM   14  C   UNL     1     -10.198  10.539  65.440  1.00  0.00    -0.270 C  
HETATM   15  N   UNL     1      -9.376   6.449  67.872  1.00  0.00    -0.116 N  
HETATM   16  O   UNL     1     -11.404   7.910  66.506  1.00  0.00     1.077 OA 
HETATM   17  C   UNL     1     -10.230   8.041  66.183  1.00  0.00     0.379 C  
HETATM   18  C   UNL     1      -8.700   6.255  65.533  1.00  0.00    -0.082 C  
HETATM   19  N   UNL     1      -6.869  11.308  70.053  1.00  0.00    -0.340 N  
HETATM   20  H   UNL     1      -8.620   9.097  65.575  1.00  0.00     0.000 HD 
HETATM   21  N   UNL     1      -9.625   9.181  65.735  1.00  0.00    -0.268 N  
HETATM   22  H   UNL     1     -10.243   6.077  68.260  1.00  0.00     0.000 HD 
HETATM   23  C   UNL     1      -9.323   6.888  66.533  1.00  0.00    -0.158 C  
HETATM   24  C   UNL     1      -8.219   6.531  68.663  1.00  0.00    -0.118 C  
HETATM   25  O   UNL     1      -8.041  11.308  64.606  1.00  0.00     0.393 OA 
HETATM   26  O   UNL     1      -7.205   5.868  68.455  1.00  0.00    -0.078 OA 
HETATM   27  N   UNL     1      -8.700  12.201  66.598  1.00  0.00    -0.292 N  
HETATM   28  CA  UNL     1      -8.278   7.662  69.744  1.00  0.00    -0.131 C  
HETATM   29  N   UNL     1      -7.014   7.970  70.450  1.00  0.00    -0.041 N  
HETATM   30  C   UNL     1      -7.435  12.875  66.906  1.00  0.00     0.267 C  
HETATM   31  CA  UNL     1      -7.329  13.149  68.433  1.00  0.00    -0.116 C  
HETATM   32  H   UNL     1      -9.469  12.301  67.261  1.00  0.00     0.000 HD 
HETATM   33  H   UNL     1      -6.190   7.375  70.374  1.00  0.00     0.000 HD 
HETATM   34  O   UNL     1      -5.129  12.231  68.920  1.00  0.00    -0.055 OA 
HETATM   35  C   UNL     1      -7.026   9.135  71.232  1.00  0.00    -0.052 C  
HETATM   36  C   UNL     1      -6.343  12.175  69.115  1.00  0.00    -0.094 C  
HETATM   37  H   UNL     1      -7.865  11.380  70.268  1.00  0.00     0.000 HD 
HETATM   38  C   UNL     1      -8.914  11.441  65.466  1.00  0.00    -0.088 C  
HETATM   39  O   UNL     1      -7.952   9.350  72.017  1.00  0.00    -0.044 OA 
HETATM   40  CA  UNL     1      -6.071  10.273  70.772  1.00  0.00    -0.071 C  
BRANCH  18  41
HETATM   41  N   UNL     1      -8.067   5.046  65.686  1.00  0.00    -0.111 N  
HETATM   42  H   UNL     1      -7.063   5.041  65.861  1.00  0.00     0.000 HD 
BRANCH  41  43
HETATM   43  C   UNL     1      -8.721   3.851  65.616  1.00  0.00    -0.117 C  
HETATM   44  H2  UNL     1     -10.183   4.600  66.923  1.00  0.00     0.000 HD 
HETATM   45  N   UNL     1      -9.854   3.813  66.364  1.00  0.00    -0.401 N  
HETATM   46  H1  UNL     1     -10.343   2.920  66.311  1.00  0.00     0.000 HD 
HETATM   47  O   UNL     1      -8.374   2.882  64.951  1.00  0.00    -0.086 OA 
ENDBRANCH  41  43
ENDBRANCH  18  41
BRANCH  28  48
HETATM   48  C   UNL     1      -8.681   8.942  68.985  1.00  0.00    -0.136 C  
HETATM   49  O   UNL     1     -10.081   9.219  69.139  1.00  0.00    -0.186 OA 
HETATM   50  H   UNL     1     -10.330  10.008  68.671  1.00  0.00     0.000 HD 
ENDBRANCH  28  48
BRANCH  40  51
HETATM   51  CB  UNL     1      -5.383  10.886  71.997  1.00  0.00     0.290 C  
HETATM   52  O   UNL     1      -5.642  12.284  72.144  1.00  0.00    -0.148 OA 
HETATM   53  H   UNL     1      -5.215  12.664  72.904  1.00  0.00     0.000 HD 
ENDBRANCH  40  51
BRANCH  31  54
HETATM   54  N   UNL     1      -6.921  14.529  68.721  1.00  0.00    -0.098 N  
HETATM   55  H   UNL     1      -6.081  14.904  68.281  1.00  0.00     0.000 HD 
HETATM   56  O   UNL     1      -8.687  14.929  70.105  1.00  0.00     0.327 OA 
HETATM   57  C   UNL     1      -7.652  15.329  69.575  1.00  0.00    -0.219 C  
BRANCH  57  58
HETATM   58  C   UNL     1      -7.072  16.725  69.774  1.00  0.00     0.293 C  
BRANCH  58  59
HETATM   59  C   UNL     1      -6.708  17.450  68.461  1.00  0.00    -0.195 C  
HETATM   60  H1  UNL     1      -7.184  17.325  66.460  1.00  0.00     0.000 HD 
HETATM   61  N   UNL     1      -7.425  16.846  67.328  1.00  0.00    -0.156 NA 
HETATM   62  H2  UNL     1      -8.433  16.825  67.483  1.00  0.00     0.000 HD 
BRANCH  59  63
HETATM   63  C   UNL     1      -7.066  18.955  68.477  1.00  0.00    -0.306 C  
BRANCH  63  64
HETATM   64  C   UNL     1      -7.147  19.582  67.081  1.00  0.00    -0.225 C  
BRANCH  64  65
HETATM   65  C   UNL     1      -8.433  20.388  66.890  1.00  0.00    -0.239 C  
HETATM   66  N   UNL     1      -9.421  19.571  66.195  1.00  0.00    -0.367 NA 
HETATM   67  H2  UNL     1      -9.589  18.683  66.668  1.00  0.00     0.000 HD 
HETATM   68  H1  UNL     1     -10.278  20.108  66.067  1.00  0.00     0.000 HD 
ENDBRANCH  64  65
ENDBRANCH  63  64
ENDBRANCH  59  63
ENDBRANCH  58  59
ENDBRANCH  57  58
ENDBRANCH  31  54
ENDBRANCH   1  14
TORSDOF 11
ENDMDL
MODEL       47
REMARK 921   NORMALIZED FREE ENERGY PREDICTED BY IDOCK:   -0.26 KCAL/MOL
REMARK 922        TOTAL FREE ENERGY PREDICTED BY IDOCK:   -2.39 KCAL/MOL
REMARK 923 INTER-LIGAND FREE ENERGY PREDICTED BY IDOCK:   -3.58 KCAL/MOL
REMARK 924 INTRA-LIGAND FREE ENERGY PREDICTED BY IDOCK:    1.19 KCAL/MOL
REMARK 927      BINDING AFFINITY PREDICTED BY RF-SCORE:    0.00 PKD
ROOT
HETATM    1  C   UNL     1     -10.142  12.927  65.237  1.00  0.00    -0.238 C  
HETATM    2  C   UNL     1     -10.752  11.682  64.527  1.00  0.00    -0.378 C  
HETATM    3  H1  UNL     1     -12.052  16.031  64.740  1.00  0.00     0.000 HD 
HETATM    4  H   UNL     1      -9.622  14.695  64.066  1.00  0.00     0.000 HD 
HETATM    5  C   UNL     1     -12.158  11.988  64.017  1.00  0.00    -0.406 C  
HETATM    6  H2  UNL     1     -13.384  15.181  63.979  1.00  0.00     0.000 HD 
HETATM    7  N   UNL     1     -12.095  13.170  63.202  1.00  0.00    -0.878 NA 
HETATM    8  O   UNL     1     -12.654  10.924  63.238  1.00  0.00     0.405 OA 
HETATM    9  N   UNL     1     -10.378  14.066  64.336  1.00  0.00    -0.244 NA 
HETATM   10  N   UNL     1     -12.396  15.219  64.227  1.00  0.00    -0.538 NA 
HETATM   11  H   UNL     1     -12.366  13.195  62.218  1.00  0.00     0.000 HD 
HETATM   12  C   UNL     1     -11.641  14.245  63.881  1.00  0.00     0.080 C  
HETATM   13  H   UNL     1     -13.529  11.114  62.921  1.00  0.00     0.000 HD 
ENDROOT
BRANCH   1  14
HETATM   14  C   UNL     1     -10.681  13.192  66.683  1.00  0.00    -0.279 C  
HETATM   15  N   UNL     1      -6.404  13.846  68.826  1.00  0.00    -0.085 N  
HETATM   16  O   UNL     1      -8.068  14.827  66.733  1.00  0.00    -0.132 OA 
HETATM   17  C   UNL     1      -8.568  14.309  67.723  1.00  0.00    -0.177 C  
HETATM   18  C   UNL     1      -8.199  14.968  70.044  1.00  0.00     0.383 C  
HETATM   19  N   UNL     1      -8.046   8.258  67.975  1.00  0.00    -0.126 N  
HETATM   20  H   UNL     1      -9.919  13.157  68.685  1.00  0.00     0.000 HD 
HETATM   21  N   UNL     1      -9.702  13.548  67.767  1.00  0.00    -0.219 N  
HETATM   22  H   UNL     1      -5.749  14.310  68.196  1.00  0.00     0.000 HD 
HETATM   23  C   UNL     1      -7.720  14.328  68.970  1.00  0.00    -0.065 C  
HETATM   24  C   UNL     1      -6.005  12.718  69.561  1.00  0.00    -0.112 C  
HETATM   25  O   UNL     1     -12.110  12.056  68.297  1.00  0.00    -0.447 OA 
HETATM   26  O   UNL     1      -5.906  12.705  70.786  1.00  0.00    -0.239 OA 
HETATM   27  N   UNL     1     -11.015  10.699  66.828  1.00  0.00    -0.173 N  
HETATM   28  CA  UNL     1      -5.850  11.426  68.690  1.00  0.00    -0.042 C  
HETATM   29  N   UNL     1      -5.671  10.152  69.422  1.00  0.00    -0.037 N  
HETATM   30  C   UNL     1     -11.371   9.432  67.473  1.00  0.00     0.730 C  
HETATM   31  CA  UNL     1     -10.368   8.318  67.061  1.00  0.00    -0.323 C  
HETATM   32  H   UNL     1     -10.450  10.662  65.979  1.00  0.00     0.000 HD 
HETATM   33  H   UNL     1      -5.484  10.122  70.424  1.00  0.00     0.000 HD 
HETATM   34  O   UNL     1      -9.743   7.424  69.237  1.00  0.00    -0.163 OA 
HETATM   35  C   UNL     1      -5.776   8.988  68.646  1.00  0.00    -0.041 C  
HETATM   36  C   UNL     1      -9.382   7.992  68.206  1.00  0.00    -0.140 C  
HETATM   37  H   UNL     1      -7.781   8.620  67.058  1.00  0.00     0.000 HD 
HETATM   38  C   UNL     1     -11.398  11.939  67.299  1.00  0.00    -0.329 C  
HETATM   39  O   UNL     1      -5.165   8.892  67.579  1.00  0.00    -0.033 OA 
HETATM   40  CA  UNL     1      -6.969   8.048  68.985  1.00  0.00    -0.058 C  
BRANCH  18  41
HETATM   41  N   UNL     1      -7.430  15.283  71.137  1.00  0.00     1.384 N  
HETATM   42  H   UNL     1      -7.803  15.089  72.066  1.00  0.00     0.000 HD 
BRANCH  41  43
HETATM   43  C   UNL     1      -6.190  15.841  71.036  1.00  0.00     0.720 C  
HETATM   44  H2  UNL     1      -6.826  16.892  69.334  1.00  0.00     0.000 HD 
HETATM   45  N   UNL     1      -6.067  16.691  69.985  1.00  0.00    -0.200 N  
HETATM   46  H1  UNL     1      -5.139  17.109  69.910  1.00  0.00     0.000 HD 
HETATM   47  O   UNL     1      -5.250  15.643  71.798  1.00  0.00    -0.085 OA 
ENDBRANCH  41  43
ENDBRANCH  18  41
BRANCH  28  48
HETATM   48  C   UNL     1      -7.166  11.299  67.898  1.00  0.00    -0.086 C  
HETATM   49  O   UNL     1      -8.290  11.141  68.777  1.00  0.00    -0.150 OA 
HETATM   50  H   UNL     1      -9.101  11.062  68.289  1.00  0.00     0.000 HD 
ENDBRANCH  28  48
BRANCH  40  51
HETATM   51  CB  UNL     1      -6.492   6.592  68.961  1.00  0.00    -0.043 C  
HETATM   52  O   UNL     1      -5.222   6.408  69.588  1.00  0.00    -0.012 OA 
HETATM   53  H   UNL     1      -4.926   5.504  69.573  1.00  0.00     0.000 HD 
ENDBRANCH  40  51
BRANCH  31  54
HETATM   54  N   UNL     1     -11.048   7.086  66.645  1.00  0.00    -0.454 N  
HETATM   55  H   UNL     1     -12.037   6.962  66.865  1.00  0.00     0.000 HD 
HETATM   56  O   UNL     1      -9.193   6.210  65.651  1.00  0.00    -0.067 OA 
HETATM   57  C   UNL     1     -10.377   6.092  65.963  1.00  0.00     0.284 C  
BRANCH  57  58
HETATM   58  C   UNL     1     -11.234   4.875  65.628  1.00  0.00     0.309 C  
BRANCH  58  59
HETATM   59  C   UNL     1     -10.544   3.852  64.701  1.00  0.00    -0.154 C  
HETATM   60  H1  UNL     1     -10.210   3.594  62.684  1.00  0.00     0.000 HD 
HETATM   61  N   UNL     1     -10.666   4.271  63.297  1.00  0.00    -0.423 NA 
HETATM   62  H2  UNL     1     -10.314   5.216  63.149  1.00  0.00     0.000 HD 
BRANCH  59  63
HETATM   63  C   UNL     1      -9.034   3.687  64.997  1.00  0.00    -0.131 C  
BRANCH  63  64
HETATM   64  C   UNL     1      -8.531   2.249  64.832  1.00  0.00    -0.093 C  
BRANCH  64  65
HETATM   65  C   UNL     1      -7.048   2.118  65.183  1.00  0.00    -0.056 C  
HETATM   66  N   UNL     1      -6.243   2.325  63.984  1.00  0.00    -0.014 NA 
HETATM   67  H2  UNL     1      -6.455   3.212  63.526  1.00  0.00     0.000 HD 
HETATM   68  H1  UNL     1      -5.255   2.239  64.218  1.00  0.00     0.000 HD 
ENDBRANCH  64  65
ENDBRANCH  63  64
ENDBRANCH  59  63
ENDBRANCH  58  59
ENDBRANCH  57  58
ENDBRANCH  31  54
ENDBRANCH   1  14
TORSDOF 11
ENDMDL
MODEL       48
REMARK 921   NORMALIZED FREE ENERGY PREDICTED BY IDOCK:   -0.05 KCAL/MOL
REMARK 922        TOTAL FREE ENERGY PREDICTED BY IDOCK:   -2.04 KCAL/MOL
REMARK 923 INTER-LIGAND FREE ENERGY PREDICTED BY IDOCK:   -4.74 KCAL/MOL
REMARK 924 INTRA-LIGAND FREE ENERGY PREDICTED BY IDOCK:    2.70 KCAL/MOL
REMARK 927      BINDING AFFINITY PREDICTED BY RF-SCORE:    0.00 PKD
ROOT
HETATM    1  C   UNL     1      -6.011  11.992  68.147  1.00  0.00    -0.053 C  
HETATM    2  C   UNL     1      -7.093  13.106  68.026  1.00  0.00    -0.115 C  
HETATM    3  H1  UNL     1      -4.968  11.275  71.601  1.00  0.00     0.000 HD 
HETATM    4  H   UNL     1      -4.113  12.429  69.134  1.00  0.00     0.000 HD 
HETATM    5  C   UNL     1      -7.671  13.447  69.397  1.00  0.00     0.534 C  
HETATM    6  H2  UNL     1      -6.237  12.280  72.276  1.00  0.00     0.000 HD 
HETATM    7  N   UNL     1      -6.582  13.765  70.280  1.00  0.00    -0.393 NA 
HETATM    8  O   UNL     1      -8.533  14.559  69.319  1.00  0.00    -0.351 OA 
HETATM    9  N   UNL     1      -5.127  12.402  69.249  1.00  0.00    -0.067 NA 
HETATM   10  N   UNL     1      -5.624  12.048  71.494  1.00  0.00    -0.361 NA 
HETATM   11  H   UNL     1      -6.477  14.665  70.748  1.00  0.00     0.000 HD 
HETATM   12  C   UNL     1      -5.713  12.741  70.422  1.00  0.00    -0.173 C  
HETATM   13  H   UNL     1      -8.892  14.771  70.172  1.00  0.00     0.000 HD 
ENDROOT
BRANCH   1  14
HETATM   14  C   UNL     1      -6.575  10.544  68.345  1.00  0.00    -0.055 C  
HETATM   15  N   UNL     1      -7.035   9.420  63.671  1.00  0.00    -0.093 N  
HETATM   16  O   UNL     1      -5.140  10.242  65.633  1.00  0.00    -0.043 OA 
HETATM   17  C   UNL     1      -6.121   9.587  65.962  1.00  0.00    -0.063 C  
HETATM   18  C   UNL     1      -6.789   7.423  65.055  1.00  0.00    -0.050 C  
HETATM   19  N   UNL     1     -11.356  12.676  65.989  1.00  0.00    -0.310 N  
HETATM   20  H   UNL     1      -7.648   9.095  67.188  1.00  0.00     0.000 HD 
HETATM   21  N   UNL     1      -6.822   9.692  67.130  1.00  0.00    -0.082 N  
HETATM   22  H   UNL     1      -6.287   9.843  63.120  1.00  0.00     0.000 HD 
HETATM   23  C   UNL     1      -6.743   8.748  64.875  1.00  0.00    -0.069 C  
HETATM   24  C   UNL     1      -8.368   9.501  63.239  1.00  0.00    -0.181 C  
HETATM   25  O   UNL     1      -8.438   9.491  69.508  1.00  0.00    -0.129 OA 
HETATM   26  O   UNL     1      -9.029   8.526  62.888  1.00  0.00     0.109 OA 
HETATM   27  N   UNL     1      -8.770  11.658  68.881  1.00  0.00    -0.370 N  
HETATM   28  CA  UNL     1      -8.992  10.928  63.395  1.00  0.00    -0.171 C  
HETATM   29  N   UNL     1     -10.454  11.037  63.192  1.00  0.00    -0.755 N  
HETATM   30  C   UNL     1     -10.196  11.712  69.215  1.00  0.00     0.129 C  
HETATM   31  CA  UNL     1     -10.888  12.864  68.433  1.00  0.00    -0.254 C  
HETATM   32  H   UNL     1      -8.331  12.502  68.512  1.00  0.00     0.000 HD 
HETATM   33  H   UNL     1     -11.007  10.274  62.804  1.00  0.00     0.000 HD 
HETATM   34  O   UNL     1     -12.785  11.692  67.457  1.00  0.00     1.055 OA 
HETATM   35  C   UNL     1     -11.028  12.261  63.569  1.00  0.00    -0.459 C  
HETATM   36  C   UNL     1     -11.744  12.321  67.267  1.00  0.00    -0.324 C  
HETATM   37  H   UNL     1     -10.553  13.298  65.887  1.00  0.00     0.000 HD 
HETATM   38  C   UNL     1      -7.984  10.533  69.035  1.00  0.00    -0.136 C  
HETATM   39  O   UNL     1     -10.522  13.326  63.206  1.00  0.00     0.388 OA 
HETATM   40  CA  UNL     1     -12.039  12.204  64.750  1.00  0.00    -0.294 C  
BRANCH  18  41
HETATM   41  N   UNL     1      -7.082   6.537  64.047  1.00  0.00    -0.050 N  
HETATM   42  H   UNL     1      -6.368   6.345  63.345  1.00  0.00     0.000 HD 
BRANCH  41  43
HETATM   43  C   UNL     1      -8.285   5.902  63.943  1.00  0.00    -0.056 C  
HETATM   44  H2  UNL     1      -8.130   6.002  61.852  1.00  0.00     0.000 HD 
HETATM   45  N   UNL     1      -8.679   5.705  62.659  1.00  0.00    -0.317 N  
HETATM   46  H1  UNL     1      -9.578   5.230  62.581  1.00  0.00     0.000 HD 
HETATM   47  O   UNL     1      -8.974   5.515  64.879  1.00  0.00    -0.083 OA 
ENDBRANCH  41  43
ENDBRANCH  18  41
BRANCH  28  48
HETATM   48  C   UNL     1      -8.717  11.344  64.854  1.00  0.00     0.286 C  
HETATM   49  O   UNL     1      -9.501  10.569  65.773  1.00  0.00    -0.181 OA 
HETATM   50  H   UNL     1      -9.332  10.825  66.672  1.00  0.00     0.000 HD 
ENDBRANCH  28  48
BRANCH  40  51
HETATM   51  CB  UNL     1     -13.243  13.097  64.432  1.00  0.00     0.593 C  
HETATM   52  O   UNL     1     -12.952  14.491  64.543  1.00  0.00    -0.536 OA 
HETATM   53  H   UNL     1     -13.699  15.045  64.346  1.00  0.00     0.000 HD 
ENDBRANCH  40  51
BRANCH  31  54
HETATM   54  N   UNL     1     -11.729  13.696  69.302  1.00  0.00    -0.304 N  
HETATM   55  H   UNL     1     -11.946  13.374  70.245  1.00  0.00     0.000 HD 
HETATM   56  O   UNL     1     -11.970  15.349  67.750  1.00  0.00    -0.156 OA 
HETATM   57  C   UNL     1     -12.230  14.907  68.868  1.00  0.00    -0.108 C  
BRANCH  57  58
HETATM   58  C   UNL     1     -13.099  15.627  69.894  1.00  0.00     0.478 C  
BRANCH  58  59
HETATM   59  C   UNL     1     -13.204  14.902  71.252  1.00  0.00    -0.408 C  
HETATM   60  H1  UNL     1     -13.766  13.049  71.959  1.00  0.00     0.000 HD 
HETATM   61  N   UNL     1     -13.696  13.529  71.061  1.00  0.00     0.179 NA 
HETATM   62  H2  UNL     1     -13.124  13.009  70.395  1.00  0.00     0.000 HD 
BRANCH  59  63
HETATM   63  C   UNL     1     -11.851  14.802  71.995  1.00  0.00    -0.327 C  
BRANCH  63  64
HETATM   64  C   UNL     1     -11.990  14.443  73.478  1.00  0.00     0.181 C  
BRANCH  64  65
HETATM   65  C   UNL     1     -12.411  15.649  74.320  1.00  0.00    -0.654 C  
HETATM   66  N   UNL     1     -11.796  16.857  73.783  1.00  0.00    -0.142 NA 
HETATM   67  H2  UNL     1     -12.003  16.988  72.793  1.00  0.00     0.000 HD 
HETATM   68  H1  UNL     1     -12.078  17.661  74.344  1.00  0.00     0.000 HD 
ENDBRANCH  64  65
ENDBRANCH  63  64
ENDBRANCH  59  63
ENDBRANCH  58  59
ENDBRANCH  57  58
ENDBRANCH  31  54
ENDBRANCH   1  14
TORSDOF 11
ENDMDL
MODEL       49
REMARK 921   NORMALIZED FREE ENERGY PREDICTED BY IDOCK:   -0.00 KCAL/MOL
REMARK 922        TOTAL FREE ENERGY PREDICTED BY IDOCK:   -1.96 KCAL/MOL
REMARK 923 INTER-LIGAND FREE ENERGY PREDICTED BY IDOCK:   -6.46 KCAL/MOL
REMARK 924 INTRA-LIGAND FREE ENERGY PREDICTED BY IDOCK:    4.50 KCAL/MOL
REMARK 927      BINDING AFFINITY PREDICTED BY RF-SCORE:    0.00 PKD
ROOT
HETATM    1  C   UNL     1     -10.966   6.228  71.438  1.00  0.00    -0.275 C  
HETATM    2  C   UNL     1     -10.424   7.683  71.571  1.00  0.00    -0.231 C  
HETATM    3  H1  UNL     1     -14.584   6.021  70.808  1.00  0.00     0.000 HD 
HETATM    4  H   UNL     1     -12.560   5.542  72.763  1.00  0.00     0.000 HD 
HETATM    5  C   UNL     1     -11.480   8.693  71.131  1.00  0.00    -0.280 C  
HETATM    6  H2  UNL     1     -14.719   7.752  70.559  1.00  0.00     0.000 HD 
HETATM    7  N   UNL     1     -12.687   8.435  71.867  1.00  0.00    -0.339 NA 
HETATM    8  O   UNL     1     -11.058  10.011  71.395  1.00  0.00    -0.259 OA 
HETATM    9  N   UNL     1     -12.299   6.233  72.058  1.00  0.00    -0.264 NA 
HETATM   10  N   UNL     1     -14.221   6.961  70.967  1.00  0.00     0.169 NA 
HETATM   11  H   UNL     1     -13.131   9.118  72.482  1.00  0.00     0.000 HD 
HETATM   12  C   UNL     1     -13.168   7.192  71.657  1.00  0.00    -0.346 C  
HETATM   13  H   UNL     1     -11.715  10.640  71.121  1.00  0.00     0.000 HD 
ENDROOT
BRANCH   1  14
HETATM   14  C   UNL     1     -10.992   5.665  69.977  1.00  0.00    -0.241 C  
HETATM   15  N   UNL     1      -6.228   5.069  69.462  1.00  0.00    -0.028 N  
HETATM   16  O   UNL     1      -8.450   4.309  71.074  1.00  0.00    -0.081 OA 
HETATM   17  C   UNL     1      -8.616   4.596  69.895  1.00  0.00    -0.073 C  
HETATM   18  C   UNL     1      -7.484   3.583  67.986  1.00  0.00    -0.061 C  
HETATM   19  N   UNL     1      -8.259  10.532  68.639  1.00  0.00    -0.122 N  
HETATM   20  H   UNL     1      -9.618   5.425  68.351  1.00  0.00     0.000 HD 
HETATM   21  N   UNL     1      -9.700   5.224  69.348  1.00  0.00    -0.158 N  
HETATM   22  H   UNL     1      -5.800   4.788  70.344  1.00  0.00     0.000 HD 
HETATM   23  C   UNL     1      -7.406   4.443  69.008  1.00  0.00    -0.055 C  
HETATM   24  C   UNL     1      -5.652   6.086  68.683  1.00  0.00    -0.011 C  
HETATM   25  O   UNL     1     -11.854   6.358  67.806  1.00  0.00     0.671 OA 
HETATM   26  O   UNL     1      -5.157   5.895  67.574  1.00  0.00    -0.004 OA 
HETATM   27  N   UNL     1     -11.350   8.050  69.249  1.00  0.00    -0.290 N  
HETATM   28  CA  UNL     1      -5.837   7.518  69.288  1.00  0.00    -0.027 C  
HETATM   29  N   UNL     1      -5.474   8.657  68.414  1.00  0.00    -0.037 N  
HETATM   30  C   UNL     1     -11.520   9.145  68.289  1.00  0.00     0.830 C  
HETATM   31  CA  UNL     1     -10.747  10.406  68.769  1.00  0.00    -0.225 C  
HETATM   32  H   UNL     1     -11.096   8.289  70.208  1.00  0.00     0.000 HD 
HETATM   33  H   UNL     1      -4.971   8.530  67.537  1.00  0.00     0.000 HD 
HETATM   34  O   UNL     1      -9.477  10.965  66.770  1.00  0.00    -0.173 OA 
HETATM   35  C   UNL     1      -5.869   9.922  68.873  1.00  0.00    -0.034 C  
HETATM   36  C   UNL     1      -9.454  10.622  67.952  1.00  0.00    -0.159 C  
HETATM   37  H   UNL     1      -8.295  10.363  69.645  1.00  0.00     0.000 HD 
HETATM   38  C   UNL     1     -11.513   6.716  68.934  1.00  0.00    -0.016 C  
HETATM   39  O   UNL     1      -5.645  10.261  70.038  1.00  0.00    -0.041 OA 
HETATM   40  CA  UNL     1      -6.918  10.668  67.999  1.00  0.00    -0.073 C  
BRANCH  18  41
HETATM   41  N   UNL     1      -6.388   3.160  67.274  1.00  0.00    -0.035 N  
HETATM   42  H   UNL     1      -5.487   3.116  67.749  1.00  0.00     0.000 HD 
BRANCH  41  43
HETATM   43  C   UNL     1      -6.451   2.793  65.962  1.00  0.00    -0.028 C  
HETATM   44  H2  UNL     1      -8.435   3.476  65.889  1.00  0.00     0.000 HD 
HETATM   45  N   UNL     1      -7.654   3.051  65.389  1.00  0.00    -0.079 N  
HETATM   46  H1  UNL     1      -7.701   2.777  64.407  1.00  0.00     0.000 HD 
HETATM   47  O   UNL     1      -5.539   2.293  65.314  1.00  0.00    -0.012 OA 
ENDBRANCH  41  43
ENDBRANCH  18  41
BRANCH  28  48
HETATM   48  C   UNL     1      -7.343   7.652  69.584  1.00  0.00    -0.089 C  
HETATM   49  O   UNL     1      -7.571   8.353  70.816  1.00  0.00    -0.060 OA 
HETATM   50  H   UNL     1      -8.500   8.437  70.998  1.00  0.00     0.000 HD 
ENDBRANCH  28  48
BRANCH  40  51
HETATM   51  CB  UNL     1      -6.528  12.146  67.886  1.00  0.00    -0.078 C  
HETATM   52  O   UNL     1      -7.048  12.774  66.713  1.00  0.00    -0.330 OA 
HETATM   53  H   UNL     1      -6.806  13.690  66.643  1.00  0.00     0.000 HD 
ENDBRANCH  40  51
BRANCH  31  54
HETATM   54  N   UNL     1     -11.570  11.619  68.699  1.00  0.00    -0.285 N  
HETATM   55  H   UNL     1     -12.575  11.533  68.542  1.00  0.00     0.000 HD 
HETATM   56  O   UNL     1      -9.812  13.023  69.062  1.00  0.00     0.073 OA 
HETATM   57  C   UNL     1     -11.012  12.873  68.843  1.00  0.00    -0.228 C  
BRANCH  57  58
HETATM   58  C   UNL     1     -12.012  14.019  68.723  1.00  0.00    -0.382 C  
BRANCH  58  59
HETATM   59  C   UNL     1     -11.548  15.333  69.388  1.00  0.00    -0.330 C  
HETATM   60  H1  UNL     1     -12.283  17.232  69.703  1.00  0.00     0.000 HD 
HETATM   61  N   UNL     1     -12.589  16.364  69.264  1.00  0.00    -0.092 NA 
HETATM   62  H2  UNL     1     -13.486  16.046  69.633  1.00  0.00     0.000 HD 
BRANCH  59  63
HETATM   63  C   UNL     1     -11.241  15.175  70.896  1.00  0.00    -0.324 C  
BRANCH  63  64
HETATM   64  C   UNL     1     -12.140  16.028  71.798  1.00  0.00    -0.570 C  
BRANCH  64  65
HETATM   65  C   UNL     1     -12.179  15.496  73.232  1.00  0.00    -0.493 C  
HETATM   66  N   UNL     1     -13.328  16.063  73.930  1.00  0.00    -0.885 NA 
HETATM   67  H2  UNL     1     -14.203  15.896  73.432  1.00  0.00     0.000 HD 
HETATM   68  H1  UNL     1     -13.355  15.709  74.885  1.00  0.00     0.000 HD 
ENDBRANCH  64  65
ENDBRANCH  63  64
ENDBRANCH  59  63
ENDBRANCH  58  59
ENDBRANCH  57  58
ENDBRANCH  31  54
ENDBRANCH   1  14
TORSDOF 11
ENDMDL
MODEL       50
REMARK 921   NORMALIZED FREE ENERGY PREDICTED BY IDOCK:    0.33 KCAL/MOL
REMARK 922        TOTAL FREE ENERGY PREDICTED BY IDOCK:   -1.42 KCAL/MOL
REMARK 923 INTER-LIGAND FREE ENERGY PREDICTED BY IDOCK:   -5.57 KCAL/MOL
REMARK 924 INTRA-LIGAND FREE ENERGY PREDICTED BY IDOCK:    4.15 KCAL/MOL
REMARK 927      BINDING AFFINITY PREDICTED BY RF-SCORE:    0.00 PKD
ROOT
HETATM    1  C   UNL     1     -10.753   6.548  72.001  1.00  0.00    -0.223 C  
HETATM    2  C   UNL     1     -10.072   7.943  71.873  1.00  0.00    -0.250 C  
HETATM    3  H1  UNL     1     -14.382   6.583  71.402  1.00  0.00     0.000 HD 
HETATM    4  H   UNL     1     -12.388   6.268  73.420  1.00  0.00     0.000 HD 
HETATM    5  C   UNL     1     -11.032   8.956  71.253  1.00  0.00    -0.293 C  
HETATM    6  H2  UNL     1     -14.353   8.245  70.845  1.00  0.00     0.000 HD 
HETATM    7  N   UNL     1     -12.248   8.953  72.019  1.00  0.00    -0.361 NA 
HETATM    8  O   UNL     1     -10.481  10.253  71.278  1.00  0.00     0.067 OA 
HETATM    9  N   UNL     1     -12.071   6.793  72.604  1.00  0.00     0.032 NA 
HETATM   10  N   UNL     1     -13.928   7.496  71.391  1.00  0.00    -0.392 NA 
HETATM   11  H   UNL     1     -12.617   9.774  72.498  1.00  0.00     0.000 HD 
HETATM   12  C   UNL     1     -12.849   7.744  72.033  1.00  0.00    -0.240 C  
HETATM   13  H   UNL     1     -11.079  10.883  70.892  1.00  0.00     0.000 HD 
ENDROOT
BRANCH   1  14
HETATM   14  C   UNL     1     -10.852   5.737  70.664  1.00  0.00    -0.267 C  
HETATM   15  N   UNL     1      -6.123   4.970  70.058  1.00  0.00    -0.021 N  
HETATM   16  O   UNL     1      -8.278   4.548  71.873  1.00  0.00    -0.099 OA 
HETATM   17  C   UNL     1      -8.494   4.626  70.671  1.00  0.00    -0.095 C  
HETATM   18  C   UNL     1      -7.462   3.272  68.923  1.00  0.00    -0.049 C  
HETATM   19  N   UNL     1      -8.129  10.241  68.372  1.00  0.00    -0.106 N  
HETATM   20  H   UNL     1      -9.556   5.190  69.049  1.00  0.00     0.000 HD 
HETATM   21  N   UNL     1      -9.594   5.168  70.069  1.00  0.00    -0.165 N  
HETATM   22  H   UNL     1      -5.658   4.840  70.957  1.00  0.00     0.000 HD 
HETATM   23  C   UNL     1      -7.328   4.296  69.773  1.00  0.00    -0.050 C  
HETATM   24  C   UNL     1      -5.572   5.822  69.089  1.00  0.00    -0.008 C  
HETATM   25  O   UNL     1     -11.804   6.054  68.444  1.00  0.00     0.808 OA 
HETATM   26  O   UNL     1      -5.130   5.430  68.011  1.00  0.00    -0.003 OA 
HETATM   27  N   UNL     1     -11.216   7.964  69.543  1.00  0.00    -0.443 N  
HETATM   28  CA  UNL     1      -5.713   7.342  69.438  1.00  0.00    -0.023 C  
HETATM   29  N   UNL     1      -5.378   8.302  68.362  1.00  0.00    -0.032 N  
HETATM   30  C   UNL     1     -11.417   8.875  68.413  1.00  0.00     0.958 C  
HETATM   31  CA  UNL     1     -10.610  10.186  68.629  1.00  0.00    -0.210 C  
HETATM   32  H   UNL     1     -10.916   8.362  70.433  1.00  0.00     0.000 HD 
HETATM   33  H   UNL     1      -4.917   8.014  67.500  1.00  0.00     0.000 HD 
HETATM   34  O   UNL     1      -9.426  10.361  66.510  1.00  0.00    -0.160 OA 
HETATM   35  C   UNL     1      -5.738   9.636  68.608  1.00  0.00    -0.039 C  
HETATM   36  C   UNL     1      -9.353  10.231  67.732  1.00  0.00    -0.144 C  
HETATM   37  H   UNL     1      -8.121  10.252  69.392  1.00  0.00     0.000 HD 
HETATM   38  C   UNL     1     -11.408   6.598  69.476  1.00  0.00    -0.299 C  
HETATM   39  O   UNL     1      -5.457  10.170  69.683  1.00  0.00    -0.037 OA 
HETATM   40  CA  UNL     1      -6.817  10.236  67.661  1.00  0.00    -0.075 C  
BRANCH  18  41
HETATM   41  N   UNL     1      -6.404   2.709  68.251  1.00  0.00    -0.029 N  
HETATM   42  H   UNL     1      -5.615   2.357  68.793  1.00  0.00     0.000 HD 
BRANCH  41  43
HETATM   43  C   UNL     1      -6.362   2.598  66.893  1.00  0.00    -0.028 C  
HETATM   44  H2  UNL     1      -8.012   3.888  66.758  1.00  0.00     0.000 HD 
HETATM   45  N   UNL     1      -7.325   3.319  66.264  1.00  0.00    -0.071 N  
HETATM   46  H1  UNL     1      -7.293   3.236  65.248  1.00  0.00     0.000 HD 
HETATM   47  O   UNL     1      -5.550   1.939  66.253  1.00  0.00    -0.012 OA 
ENDBRANCH  41  43
ENDBRANCH  18  41
BRANCH  28  48
HETATM   48  C   UNL     1      -7.203   7.555  69.770  1.00  0.00    -0.080 C  
HETATM   49  O   UNL     1      -7.376   7.997  71.125  1.00  0.00    -0.059 OA 
HETATM   50  H   UNL     1      -8.294   8.128  71.330  1.00  0.00     0.000 HD 
ENDBRANCH  28  48
BRANCH  40  51
HETATM   51  CB  UNL     1      -6.416  11.663  67.272  1.00  0.00    -0.120 C  
HETATM   52  O   UNL     1      -6.209  11.824  65.868  1.00  0.00    -0.371 OA 
HETATM   53  H   UNL     1      -5.960  12.709  65.627  1.00  0.00     0.000 HD 
ENDBRANCH  40  51
BRANCH  31  54
HETATM   54  N   UNL     1     -11.422  11.384  68.382  1.00  0.00    -0.272 N  
HETATM   55  H   UNL     1     -12.356  11.281  67.985  1.00  0.00     0.000 HD 
HETATM   56  O   UNL     1      -9.838  12.815  69.181  1.00  0.00     0.210 OA 
HETATM   57  C   UNL     1     -10.946  12.645  68.676  1.00  0.00    -0.256 C  
BRANCH  57  58
HETATM   58  C   UNL     1     -11.915  13.773  68.336  1.00  0.00    -0.395 C  
BRANCH  58  59
HETATM   59  C   UNL     1     -12.091  14.020  66.823  1.00  0.00    -0.447 C  
HETATM   60  H1  UNL     1     -12.402  15.617  65.557  1.00  0.00     0.000 HD 
HETATM   61  N   UNL     1     -12.286  15.454  66.558  1.00  0.00     0.422 NA 
HETATM   62  H2  UNL     1     -11.533  16.019  66.951  1.00  0.00     0.000 HD 
BRANCH  59  63
HETATM   63  C   UNL     1     -10.871  13.565  65.987  1.00  0.00    -0.282 C  
BRANCH  63  64
HETATM   64  C   UNL     1     -11.218  12.541  64.901  1.00  0.00    -0.344 C  
BRANCH  64  65
HETATM   65  C   UNL     1     -12.635  12.739  64.361  1.00  0.00    -0.352 C  
HETATM   66  N   UNL     1     -12.811  11.943  63.151  1.00  0.00    -0.867 NA 
HETATM   67  H2  UNL     1     -12.590  10.958  63.302  1.00  0.00     0.000 HD 
HETATM   68  H1  UNL     1     -13.756  12.075  62.791  1.00  0.00     0.000 HD 
ENDBRANCH  64  65
ENDBRANCH  63  64
ENDBRANCH  59  63
ENDBRANCH  58  59
ENDBRANCH  57  58
ENDBRANCH  31  54
ENDBRANCH   1  14
TORSDOF 11
ENDMDL
MODEL       51
REMARK 921   NORMALIZED FREE ENERGY PREDICTED BY IDOCK:    0.55 KCAL/MOL
REMARK 922        TOTAL FREE ENERGY PREDICTED BY IDOCK:   -1.06 KCAL/MOL
REMARK 923 INTER-LIGAND FREE ENERGY PREDICTED BY IDOCK:   -6.05 KCAL/MOL
REMARK 924 INTRA-LIGAND FREE ENERGY PREDICTED BY IDOCK:    5.00 KCAL/MOL
REMARK 927      BINDING AFFINITY PREDICTED BY RF-SCORE:    0.00 PKD
ROOT
HETATM    1  C   UNL     1     -10.139   9.051  71.106  1.00  0.00    -0.295 C  
HETATM    2  C   UNL     1      -9.320  10.124  70.329  1.00  0.00     0.144 C  
HETATM    3  H1  UNL     1     -13.782   9.355  70.705  1.00  0.00     0.000 HD 
HETATM    4  H   UNL     1     -11.639   9.678  72.562  1.00  0.00     0.000 HD 
HETATM    5  C   UNL     1     -10.216  10.886  69.356  1.00  0.00    -0.122 C  
HETATM    6  H2  UNL     1     -13.622  10.571  69.452  1.00  0.00     0.000 HD 
HETATM    7  N   UNL     1     -11.339  11.404  70.088  1.00  0.00    -0.499 NA 
HETATM    8  O   UNL     1      -9.522  11.960  68.766  1.00  0.00    -0.366 OA 
HETATM    9  N   UNL     1     -11.351   9.732  71.584  1.00  0.00    -0.290 NA 
HETATM   10  N   UNL     1     -13.231  10.089  70.261  1.00  0.00     0.079 NA 
HETATM   11  H   UNL     1     -11.560  12.398  70.156  1.00  0.00     0.000 HD 
HETATM   12  C   UNL     1     -12.070  10.433  70.675  1.00  0.00    -0.348 C  
HETATM   13  H   UNL     1     -10.080  12.434  68.160  1.00  0.00     0.000 HD 
ENDROOT
BRANCH   1  14
HETATM   14  C   UNL     1     -10.468   7.755  70.290  1.00  0.00    -0.225 C  
HETATM   15  N   UNL     1      -5.916   6.343  69.514  1.00  0.00    -0.021 N  
HETATM   16  O   UNL     1      -7.781   6.962  71.576  1.00  0.00    -0.093 OA 
HETATM   17  C   UNL     1      -8.175   6.532  70.500  1.00  0.00    -0.118 C  
HETATM   18  C   UNL     1      -7.468   4.460  69.422  1.00  0.00    -0.055 C  
HETATM   19  N   UNL     1      -7.977  10.530  65.927  1.00  0.00    -0.151 N  
HETATM   20  H   UNL     1      -9.453   6.438  68.940  1.00  0.00     0.000 HD 
HETATM   21  N   UNL     1      -9.336   6.864  69.860  1.00  0.00    -0.151 N  
HETATM   22  H   UNL     1      -5.323   6.571  70.313  1.00  0.00     0.000 HD 
HETATM   23  C   UNL     1      -7.172   5.734  69.707  1.00  0.00    -0.069 C  
HETATM   24  C   UNL     1      -5.490   6.633  68.208  1.00  0.00    -0.012 C  
HETATM   25  O   UNL     1     -11.737   7.169  68.294  1.00  0.00     0.626 OA 
HETATM   26  O   UNL     1      -5.232   5.772  67.370  1.00  0.00    -0.004 OA 
HETATM   27  N   UNL     1     -10.924   9.299  68.352  1.00  0.00    -0.464 N  
HETATM   28  CA  UNL     1      -5.526   8.160  67.862  1.00  0.00    -0.034 C  
HETATM   29  N   UNL     1      -5.327   8.521  66.441  1.00  0.00    -0.031 N  
HETATM   30  C   UNL     1     -11.265   9.645  66.969  1.00  0.00     0.494 C  
HETATM   31  CA  UNL     1     -10.390  10.835  66.482  1.00  0.00    -0.244 C  
HETATM   32  H   UNL     1     -10.478  10.012  68.929  1.00  0.00     0.000 HD 
HETATM   33  H   UNL     1      -5.012   7.844  65.746  1.00  0.00     0.000 HD 
HETATM   34  O   UNL     1      -9.538   9.958  64.378  1.00  0.00    -0.294 OA 
HETATM   35  C   UNL     1      -5.600   9.858  66.111  1.00  0.00    -0.057 C  
HETATM   36  C   UNL     1      -9.284  10.364  65.512  1.00  0.00    -0.184 C  
HETATM   37  H   UNL     1      -7.813  10.982  66.827  1.00  0.00     0.000 HD 
HETATM   38  C   UNL     1     -11.170   8.065  68.921  1.00  0.00     0.453 C  
HETATM   39  O   UNL     1      -5.140  10.775  66.796  1.00  0.00    -0.042 OA 
HETATM   40  CA  UNL     1      -6.790  10.090  65.137  1.00  0.00    -0.130 C  
BRANCH  18  41
HETATM   41  N   UNL     1      -6.545   3.562  68.945  1.00  0.00    -0.039 N  
HETATM   42  H   UNL     1      -5.555   3.754  69.097  1.00  0.00     0.000 HD 
BRANCH  41  43
HETATM   43  C   UNL     1      -6.892   2.424  68.279  1.00  0.00    -0.043 C  
HETATM   44  H2  UNL     1      -4.863   1.895  68.171  1.00  0.00     0.000 HD 
HETATM   45  N   UNL     1      -5.827   1.650  67.946  1.00  0.00    -0.019 N  
HETATM   46  H1  UNL     1      -6.087   0.799  67.448  1.00  0.00     0.000 HD 
HETATM   47  O   UNL     1      -8.033   2.078  67.996  1.00  0.00    -0.058 OA 
ENDBRANCH  41  43
ENDBRANCH  18  41
BRANCH  28  48
HETATM   48  C   UNL     1      -6.939   8.640  68.245  1.00  0.00    -0.073 C  
HETATM   49  O   UNL     1      -6.941   9.284  69.528  1.00  0.00    -0.049 OA 
HETATM   50  H   UNL     1      -7.812   9.580  69.764  1.00  0.00     0.000 HD 
ENDBRANCH  28  48
BRANCH  40  51
HETATM   51  CB  UNL     1      -6.406  11.161  64.111  1.00  0.00     1.101 C  
HETATM   52  O   UNL     1      -6.680  10.771  62.764  1.00  0.00    -0.323 OA 
HETATM   53  H   UNL     1      -6.442  11.436  62.128  1.00  0.00     0.000 HD 
ENDBRANCH  40  51
BRANCH  31  54
HETATM   54  N   UNL     1     -11.190  11.880  65.831  1.00  0.00    -0.331 N  
HETATM   55  H   UNL     1     -11.057  12.063  64.837  1.00  0.00     0.000 HD 
HETATM   56  O   UNL     1     -12.330  12.412  67.732  1.00  0.00    -0.281 OA 
HETATM   57  C   UNL     1     -12.117  12.618  66.539  1.00  0.00    -0.225 C  
BRANCH  57  58
HETATM   58  C   UNL     1     -12.841  13.672  65.708  1.00  0.00    -0.390 C  
BRANCH  58  59
HETATM   59  C   UNL     1     -12.012  14.225  64.528  1.00  0.00    -0.462 C  
HETATM   60  H1  UNL     1     -12.235  15.605  63.014  1.00  0.00     0.000 HD 
HETATM   61  N   UNL     1     -12.782  15.240  63.794  1.00  0.00    -0.679 NA 
HETATM   62  H2  UNL     1     -13.114  15.984  64.408  1.00  0.00     0.000 HD 
BRANCH  59  63
HETATM   63  C   UNL     1     -10.689  14.891  64.974  1.00  0.00    -0.451 C  
BRANCH  63  64
HETATM   64  C   UNL     1     -10.687  15.329  66.443  1.00  0.00    -0.318 C  
BRANCH  64  65
HETATM   65  C   UNL     1     -10.100  16.730  66.620  1.00  0.00    -0.300 C  
HETATM   66  N   UNL     1     -10.290  17.497  65.394  1.00  0.00    -0.611 NA 
HETATM   67  H2  UNL     1     -11.268  17.523  65.103  1.00  0.00     0.000 HD 
HETATM   68  H1  UNL     1      -9.899  18.431  65.512  1.00  0.00     0.000 HD 
ENDBRANCH  64  65
ENDBRANCH  63  64
ENDBRANCH  59  63
ENDBRANCH  58  59
ENDBRANCH  57  58
ENDBRANCH  31  54
ENDBRANCH   1  14
TORSDOF 11
ENDMDL
MODEL       52
REMARK 921   NORMALIZED FREE ENERGY PREDICTED BY IDOCK:    0.66 KCAL/MOL
REMARK 922        TOTAL FREE ENERGY PREDICTED BY IDOCK:   -0.87 KCAL/MOL
REMARK 923 INTER-LIGAND FREE ENERGY PREDICTED BY IDOCK:   -4.17 KCAL/MOL
REMARK 924 INTRA-LIGAND FREE ENERGY PREDICTED BY IDOCK:    3.30 KCAL/MOL
REMARK 927      BINDING AFFINITY PREDICTED BY RF-SCORE:    0.00 PKD
ROOT
HETATM    1  C   UNL     1     -11.960   8.313  71.097  1.00  0.00    -0.265 C  
HETATM    2  C   UNL     1     -11.777   7.638  69.705  1.00  0.00     0.473 C  
HETATM    3  H1  UNL     1     -10.395   6.481  73.876  1.00  0.00     0.000 HD 
HETATM    4  H   UNL     1     -12.904   7.202  72.722  1.00  0.00     0.000 HD 
HETATM    5  C   UNL     1     -10.748   6.512  69.783  1.00  0.00    -0.269 C  
HETATM    6  H2  UNL     1      -9.581   5.372  72.790  1.00  0.00     0.000 HD 
HETATM    7  N   UNL     1     -11.140   5.616  70.836  1.00  0.00    -0.195 NA 
HETATM    8  O   UNL     1     -10.691   5.796  68.571  1.00  0.00    -0.236 OA 
HETATM    9  N   UNL     1     -12.126   7.215  72.062  1.00  0.00    -0.303 NA 
HETATM   10  N   UNL     1     -10.347   6.021  72.967  1.00  0.00    -0.194 NA 
HETATM   11  H   UNL     1     -11.346   4.627  70.689  1.00  0.00     0.000 HD 
HETATM   12  C   UNL     1     -11.204   6.224  72.039  1.00  0.00    -0.281 C  
HETATM   13  H   UNL     1     -10.051   5.096  68.621  1.00  0.00     0.000 HD 
ENDROOT
BRANCH   1  14
HETATM   14  C   UNL     1     -10.815   9.298  71.508  1.00  0.00    -0.372 C  
HETATM   15  N   UNL     1     -11.163  12.265  67.715  1.00  0.00    -0.257 N  
HETATM   16  O   UNL     1     -12.644  11.181  69.892  1.00  0.00    -0.224 OA 
HETATM   17  C   UNL     1     -11.432  11.321  69.984  1.00  0.00    -0.275 C  
HETATM   18  C   UNL     1     -10.184  13.391  69.648  1.00  0.00     0.869 C  
HETATM   19  N   UNL     1      -8.153   7.283  66.838  1.00  0.00    -0.118 N  
HETATM   20  H   UNL     1      -9.577  10.767  70.560  1.00  0.00     0.000 HD 
HETATM   21  N   UNL     1     -10.560  10.509  70.654  1.00  0.00     0.171 N  
HETATM   22  H   UNL     1     -12.134  12.360  67.415  1.00  0.00     0.000 HD 
HETATM   23  C   UNL     1     -10.823  12.362  69.079  1.00  0.00    -0.148 C  
HETATM   24  C   UNL     1     -10.148  12.036  66.772  1.00  0.00    -0.203 C  
HETATM   25  O   UNL     1      -8.450   9.157  72.077  1.00  0.00    -0.319 OA 
HETATM   26  O   UNL     1      -9.257  12.846  66.522  1.00  0.00    -0.235 OA 
HETATM   27  N   UNL     1      -9.228   7.518  70.696  1.00  0.00    -0.159 N  
HETATM   28  CA  UNL     1     -10.159  10.587  66.180  1.00  0.00    -0.246 C  
HETATM   29  N   UNL     1      -8.984  10.194  65.370  1.00  0.00    -0.166 N  
HETATM   30  C   UNL     1      -7.921   6.936  70.375  1.00  0.00    -0.114 C  
HETATM   31  CA  UNL     1      -8.002   6.132  69.047  1.00  0.00    -0.108 C  
HETATM   32  H   UNL     1     -10.057   7.089  70.285  1.00  0.00     0.000 HD 
HETATM   33  H   UNL     1      -8.285  10.870  65.062  1.00  0.00     0.000 HD 
HETATM   34  O   UNL     1      -6.116   7.061  67.822  1.00  0.00    -0.030 OA 
HETATM   35  C   UNL     1      -8.896   8.830  65.052  1.00  0.00    -0.107 C  
HETATM   36  C   UNL     1      -7.334   6.895  67.881  1.00  0.00    -0.097 C  
HETATM   37  H   UNL     1      -9.138   7.018  66.877  1.00  0.00     0.000 HD 
HETATM   38  C   UNL     1      -9.403   8.612  71.519  1.00  0.00    -0.249 C  
HETATM   39  O   UNL     1      -9.875   8.230  64.602  1.00  0.00     1.714 OA 
HETATM   40  CA  UNL     1      -7.684   8.067  65.659  1.00  0.00    -0.094 C  
BRANCH  18  41
HETATM   41  N   UNL     1      -9.821  14.524  68.962  1.00  0.00    -0.348 N  
HETATM   42  H   UNL     1      -9.108  14.447  68.237  1.00  0.00     0.000 HD 
BRANCH  41  43
HETATM   43  C   UNL     1     -10.372  15.747  69.206  1.00  0.00    -0.245 C  
HETATM   44  H2  UNL     1      -8.746  16.648  68.229  1.00  0.00     0.000 HD 
HETATM   45  N   UNL     1      -9.629  16.776  68.724  1.00  0.00    -0.253 N  
HETATM   46  H1  UNL     1     -10.041  17.692  68.906  1.00  0.00     0.000 HD 
HETATM   47  O   UNL     1     -11.433  15.954  69.783  1.00  0.00    -0.308 OA 
ENDBRANCH  41  43
ENDBRANCH  18  41
BRANCH  28  48
HETATM   48  C   UNL     1     -10.192   9.641  67.396  1.00  0.00    -0.227 C  
HETATM   49  O   UNL     1      -9.060   9.855  68.253  1.00  0.00    -0.122 OA 
HETATM   50  H   UNL     1      -9.080   9.272  69.003  1.00  0.00     0.000 HD 
ENDBRANCH  28  48
BRANCH  40  51
HETATM   51  CB  UNL     1      -7.090   7.131  64.600  1.00  0.00    -0.061 C  
HETATM   52  O   UNL     1      -5.898   6.476  65.036  1.00  0.00    -0.028 OA 
HETATM   53  H   UNL     1      -5.530   5.895  64.379  1.00  0.00     0.000 HD 
ENDBRANCH  40  51
BRANCH  31  54
HETATM   54  N   UNL     1      -7.391   4.803  69.166  1.00  0.00    -0.053 N  
HETATM   55  H   UNL     1      -6.385   4.701  69.027  1.00  0.00     0.000 HD 
HETATM   56  O   UNL     1      -9.359   3.768  69.666  1.00  0.00    -0.143 OA 
HETATM   57  C   UNL     1      -8.150   3.689  69.463  1.00  0.00    -0.053 C  
BRANCH  57  58
HETATM   58  C   UNL     1      -7.353   2.389  69.528  1.00  0.00    -0.043 C  
BRANCH  58  59
HETATM   59  C   UNL     1      -6.230   2.390  70.586  1.00  0.00    -0.023 C  
HETATM   60  H1  UNL     1      -4.387   3.269  70.864  1.00  0.00     0.000 HD 
HETATM   61  N   UNL     1      -5.129   3.269  70.164  1.00  0.00    -0.004 NA 
HETATM   62  H2  UNL     1      -5.455   4.213  69.954  1.00  0.00     0.000 HD 
BRANCH  59  63
HETATM   63  C   UNL     1      -6.703   2.887  71.973  1.00  0.00    -0.015 C  
BRANCH  63  64
HETATM   64  C   UNL     1      -7.451   1.823  72.784  1.00  0.00    -0.032 C  
BRANCH  64  65
HETATM   65  C   UNL     1      -8.734   2.377  73.407  1.00  0.00    -0.070 C  
HETATM   66  N   UNL     1      -9.879   1.989  72.590  1.00  0.00    -0.103 NA 
HETATM   67  H2  UNL     1      -9.925   0.980  72.446  1.00  0.00     0.000 HD 
HETATM   68  H1  UNL     1     -10.734   2.358  73.006  1.00  0.00     0.000 HD 
ENDBRANCH  64  65
ENDBRANCH  63  64
ENDBRANCH  59  63
ENDBRANCH  58  59
ENDBRANCH  57  58
ENDBRANCH  31  54
ENDBRANCH   1  14
TORSDOF 11
ENDMDL
MODEL       53
REMARK 921   NORMALIZED FREE ENERGY PREDICTED BY IDOCK:    0.90 KCAL/MOL
REMARK 922        TOTAL FREE ENERGY PREDICTED BY IDOCK:   -0.48 KCAL/MOL
REMARK 923 INTER-LIGAND FREE ENERGY PREDICTED BY IDOCK:   -4.12 KCAL/MOL
REMARK 924 INTRA-LIGAND FREE ENERGY PREDICTED BY IDOCK:    3.65 KCAL/MOL
REMARK 927      BINDING AFFINITY PREDICTED BY RF-SCORE:    0.00 PKD
ROOT
HETATM    1  C   UNL     1     -11.217  15.504  65.242  1.00  0.00    -0.275 C  
HETATM    2  C   UNL     1     -10.063  14.475  65.047  1.00  0.00    -0.325 C  
HETATM    3  H1  UNL     1     -14.396  14.012  66.335  1.00  0.00     0.000 HD 
HETATM    4  H   UNL     1     -13.081  15.263  64.132  1.00  0.00     0.000 HD 
HETATM    5  C   UNL     1     -10.450  13.116  65.625  1.00  0.00    -0.282 C  
HETATM    6  H2  UNL     1     -13.657  12.445  66.608  1.00  0.00     0.000 HD 
HETATM    7  N   UNL     1     -11.706  12.722  65.051  1.00  0.00    -0.335 NA 
HETATM    8  O   UNL     1      -9.480  12.142  65.315  1.00  0.00    -0.419 OA 
HETATM    9  N   UNL     1     -12.445  14.826  64.800  1.00  0.00    -0.422 NA 
HETATM   10  N   UNL     1     -13.648  13.349  66.135  1.00  0.00     1.062 NA 
HETATM   11  H   UNL     1     -11.835  11.871  64.502  1.00  0.00     0.000 HD 
HETATM   12  C   UNL     1     -12.697  13.599  65.316  1.00  0.00    -0.430 C  
HETATM   13  H   UNL     1      -9.721  11.297  65.675  1.00  0.00     0.000 HD 
ENDROOT
BRANCH   1  14
HETATM   14  C   UNL     1     -11.346  16.083  66.691  1.00  0.00     0.263 C  
HETATM   15  N   UNL     1      -6.819  17.711  67.110  1.00  0.00    -0.160 N  
HETATM   16  O   UNL     1      -9.174  17.931  65.522  1.00  0.00    -0.134 OA 
HETATM   17  C   UNL     1      -9.258  17.644  66.709  1.00  0.00    -0.271 C  
HETATM   18  C   UNL     1      -8.349  18.924  68.577  1.00  0.00    -0.349 C  
HETATM   19  N   UNL     1      -7.603  11.959  68.081  1.00  0.00    -0.113 N  
HETATM   20  H   UNL     1     -10.037  16.654  68.287  1.00  0.00     0.000 HD 
HETATM   21  N   UNL     1     -10.173  16.809  67.288  1.00  0.00    -0.286 N  
HETATM   22  H   UNL     1      -6.474  18.057  66.214  1.00  0.00     0.000 HD 
HETATM   23  C   UNL     1      -8.100  18.077  67.571  1.00  0.00    -0.230 C  
HETATM   24  C   UNL     1      -6.026  16.863  67.899  1.00  0.00    -0.131 C  
HETATM   25  O   UNL     1     -12.009  15.272  68.891  1.00  0.00    -0.322 OA 
HETATM   26  O   UNL     1      -5.570  17.183  68.994  1.00  0.00    -0.145 OA 
HETATM   27  N   UNL     1     -11.167  13.695  67.475  1.00  0.00    -0.284 N  
HETATM   28  CA  UNL     1      -5.903  15.410  67.327  1.00  0.00     0.255 C  
HETATM   29  N   UNL     1      -5.290  14.399  68.218  1.00  0.00    -0.107 N  
HETATM   30  C   UNL     1     -11.083  12.613  68.460  1.00  0.00    -0.266 C  
HETATM   31  CA  UNL     1     -10.061  11.539  67.993  1.00  0.00    -0.186 C  
HETATM   32  H   UNL     1     -10.880  13.494  66.517  1.00  0.00     0.000 HD 
HETATM   33  H   UNL     1      -4.815  14.653  69.083  1.00  0.00     0.000 HD 
HETATM   34  O   UNL     1      -8.674  11.317  69.980  1.00  0.00     1.138 OA 
HETATM   35  C   UNL     1      -5.407  13.067  67.792  1.00  0.00    -0.111 C  
HETATM   36  C   UNL     1      -8.741  11.628  68.791  1.00  0.00    -0.010 C  
HETATM   37  H   UNL     1      -7.688  12.092  67.073  1.00  0.00     0.000 HD 
HETATM   38  C   UNL     1     -11.612  14.969  67.765  1.00  0.00    -0.319 C  
HETATM   39  O   UNL     1      -5.129  12.757  66.631  1.00  0.00    -0.088 OA 
HETATM   40  CA  UNL     1      -6.257  12.133  68.700  1.00  0.00    -0.059 C  
BRANCH  18  41
HETATM   41  N   UNL     1      -7.363  19.592  69.260  1.00  0.00    -0.326 N  
HETATM   42  H   UNL     1      -6.563  19.947  68.736  1.00  0.00     0.000 HD 
BRANCH  41  43
HETATM   43  C   UNL     1      -7.404  19.803  70.606  1.00  0.00     0.864 C  
HETATM   44  H2  UNL     1      -5.344  19.413  70.708  1.00  0.00     0.000 HD 
HETATM   45  N   UNL     1      -6.197  19.657  71.210  1.00  0.00     0.009 N  
HETATM   46  H1  UNL     1      -6.228  19.815  72.218  1.00  0.00     0.000 HD 
HETATM   47  O   UNL     1      -8.399  20.110  71.254  1.00  0.00     1.384 OA 
ENDBRANCH  41  43
ENDBRANCH  18  41
BRANCH  28  48
HETATM   48  C   UNL     1      -7.348  14.945  67.061  1.00  0.00     0.150 C  
HETATM   49  O   UNL     1      -8.105  14.873  68.278  1.00  0.00    -0.123 OA 
HETATM   50  H   UNL     1      -8.996  14.586  68.114  1.00  0.00     0.000 HD 
ENDBRANCH  28  48
BRANCH  40  51
HETATM   51  CB  UNL     1      -5.554  10.778  68.837  1.00  0.00    -0.040 C  
HETATM   52  O   UNL     1      -6.455   9.705  69.114  1.00  0.00    -0.044 OA 
HETATM   53  H   UNL     1      -6.018   8.865  69.199  1.00  0.00     0.000 HD 
ENDBRANCH  40  51
BRANCH  31  54
HETATM   54  N   UNL     1     -10.600  10.178  68.102  1.00  0.00    -0.207 N  
HETATM   55  H   UNL     1     -11.520  10.036  68.520  1.00  0.00     0.000 HD 
HETATM   56  O   UNL     1      -8.787   9.211  67.114  1.00  0.00    -0.119 OA 
HETATM   57  C   UNL     1      -9.886   9.086  67.650  1.00  0.00    -0.173 C  
BRANCH  57  58
HETATM   58  C   UNL     1     -10.590   7.749  67.862  1.00  0.00    -0.221 C  
BRANCH  58  59
HETATM   59  C   UNL     1     -10.890   7.421  69.339  1.00  0.00    -0.171 C  
HETATM   60  H1  UNL     1     -11.572   5.821  70.445  1.00  0.00     0.000 HD 
HETATM   61  N   UNL     1     -11.373   6.038  69.468  1.00  0.00    -0.360 NA 
HETATM   62  H2  UNL     1     -10.724   5.368  69.054  1.00  0.00     0.000 HD 
BRANCH  59  63
HETATM   63  C   UNL     1      -9.652   7.558  70.257  1.00  0.00    -0.165 C  
BRANCH  63  64
HETATM   64  C   UNL     1      -9.882   8.471  71.466  1.00  0.00    -0.309 C  
BRANCH  64  65
HETATM   65  C   UNL     1     -11.371   8.702  71.733  1.00  0.00    -0.323 C  
HETATM   66  N   UNL     1     -11.775   7.953  72.918  1.00  0.00    -0.606 NA 
HETATM   67  H2  UNL     1     -11.199   8.176  73.730  1.00  0.00     0.000 HD 
HETATM   68  H1  UNL     1     -12.767   8.108  73.096  1.00  0.00     0.000 HD 
ENDBRANCH  64  65
ENDBRANCH  63  64
ENDBRANCH  59  63
ENDBRANCH  58  59
ENDBRANCH  57  58
ENDBRANCH  31  54
ENDBRANCH   1  14
TORSDOF 11
ENDMDL
MODEL       54
REMARK 921   NORMALIZED FREE ENERGY PREDICTED BY IDOCK:    0.92 KCAL/MOL
REMARK 922        TOTAL FREE ENERGY PREDICTED BY IDOCK:   -0.44 KCAL/MOL
REMARK 923 INTER-LIGAND FREE ENERGY PREDICTED BY IDOCK:   -9.94 KCAL/MOL
REMARK 924 INTRA-LIGAND FREE ENERGY PREDICTED BY IDOCK:    9.50 KCAL/MOL
REMARK 927      BINDING AFFINITY PREDICTED BY RF-SCORE:    0.00 PKD
ROOT
HETATM    1  C   UNL     1      -5.749   9.546  68.060  1.00  0.00    -0.041 C  
HETATM    2  C   UNL     1      -5.578  11.058  68.395  1.00  0.00    -0.043 C  
HETATM    3  H1  UNL     1      -8.796   8.029  69.453  1.00  0.00     0.000 HD 
HETATM    4  H   UNL     1      -5.952   8.094  69.677  1.00  0.00     0.000 HD 
HETATM    5  C   UNL     1      -6.862  11.625  68.994  1.00  0.00    -0.105 C  
HETATM    6  H2  UNL     1      -9.431   9.583  69.962  1.00  0.00     0.000 HD 
HETATM    7  N   UNL     1      -7.241  10.804  70.111  1.00  0.00    -0.451 NA 
HETATM    8  O   UNL     1      -6.668  12.946  69.445  1.00  0.00    -0.218 OA 
HETATM    9  N   UNL     1      -6.352   8.931  69.251  1.00  0.00    -0.041 NA 
HETATM   10  N   UNL     1      -8.630   9.000  69.719  1.00  0.00    -0.130 NA 
HETATM   11  H   UNL     1      -7.333  11.154  71.065  1.00  0.00     0.000 HD 
HETATM   12  C   UNL     1      -7.461   9.519  69.760  1.00  0.00    -0.098 C  
HETATM   13  H   UNL     1      -7.468  13.299  69.817  1.00  0.00     0.000 HD 
ENDROOT
BRANCH   1  14
HETATM   14  C   UNL     1      -6.567   9.248  66.758  1.00  0.00    -0.068 C  
HETATM   15  N   UNL     1     -10.040  12.530  67.448  1.00  0.00    -0.209 N  
HETATM   16  O   UNL     1      -7.221  12.230  67.181  1.00  0.00    -0.144 OA 
HETATM   17  C   UNL     1      -7.977  11.437  66.636  1.00  0.00    -0.148 C  
HETATM   18  C   UNL     1      -9.777  11.986  65.082  1.00  0.00    -0.144 C  
HETATM   19  N   UNL     1     -10.642   7.466  70.387  1.00  0.00    -0.223 N  
HETATM   20  H   UNL     1      -8.547   9.600  66.020  1.00  0.00     0.000 HD 
HETATM   21  N   UNL     1      -7.765  10.101  66.445  1.00  0.00    -0.107 N  
HETATM   22  H   UNL     1      -9.666  13.366  67.899  1.00  0.00     0.000 HD 
HETATM   23  C   UNL     1      -9.368  11.946  66.356  1.00  0.00    -0.226 C  
HETATM   24  C   UNL     1     -11.232  11.947  67.908  1.00  0.00    -0.263 C  
HETATM   25  O   UNL     1      -7.621   7.318  65.708  1.00  0.00    -0.084 OA 
HETATM   26  O   UNL     1     -12.270  11.913  67.252  1.00  0.00    -0.495 OA 
HETATM   27  N   UNL     1      -7.443   7.226  67.979  1.00  0.00    -0.099 N  
HETATM   28  CA  UNL     1     -11.076  11.201  69.276  1.00  0.00    -0.259 C  
HETATM   29  N   UNL     1     -12.216  10.360  69.705  1.00  0.00    -0.529 N  
HETATM   30  C   UNL     1      -8.264   6.025  68.162  1.00  0.00    -0.113 C  
HETATM   31  CA  UNL     1      -8.806   5.961  69.618  1.00  0.00    -0.131 C  
HETATM   32  H   UNL     1      -7.035   7.658  68.808  1.00  0.00     0.000 HD 
HETATM   33  H   UNL     1     -13.122  10.393  69.237  1.00  0.00     0.000 HD 
HETATM   34  O   UNL     1     -11.178   5.592  69.217  1.00  0.00    -0.206 OA 
HETATM   35  C   UNL     1     -11.970   9.517  70.798  1.00  0.00    -0.252 C  
HETATM   36  C   UNL     1     -10.306   6.328  69.680  1.00  0.00    -0.215 C  
HETATM   37  H   UNL     1      -9.894   7.979  70.854  1.00  0.00     0.000 HD 
HETATM   38  C   UNL     1      -7.190   7.807  66.753  1.00  0.00    -0.088 C  
HETATM   39  O   UNL     1     -11.429   9.956  71.816  1.00  0.00    -0.265 OA 
HETATM   40  CA  UNL     1     -12.034   7.990  70.509  1.00  0.00     0.062 C  
BRANCH  18  41
HETATM   41  N   UNL     1     -10.899  12.663  64.673  1.00  0.00    -0.302 N  
HETATM   42  H   UNL     1     -11.059  13.603  65.034  1.00  0.00     0.000 HD 
BRANCH  41  43
HETATM   43  C   UNL     1     -11.810  12.135  63.806  1.00  0.00    -0.500 C  
HETATM   44  H2  UNL     1     -10.366  10.752  63.166  1.00  0.00     0.000 HD 
HETATM   45  N   UNL     1     -11.321  11.101  63.076  1.00  0.00    -0.754 N  
HETATM   46  H1  UNL     1     -12.002  10.706  62.427  1.00  0.00     0.000 HD 
HETATM   47  O   UNL     1     -12.969  12.509  63.669  1.00  0.00    -0.730 OA 
ENDBRANCH  41  43
ENDBRANCH  18  41
BRANCH  28  48
HETATM   48  C   UNL     1      -9.873  10.254  69.098  1.00  0.00    -0.216 C  
HETATM   49  O   UNL     1     -10.129   9.272  68.082  1.00  0.00    -0.171 OA 
HETATM   50  H   UNL     1      -9.388   8.688  67.972  1.00  0.00     0.000 HD 
ENDBRANCH  28  48
BRANCH  40  51
HETATM   51  CB  UNL     1     -12.770   7.285  71.653  1.00  0.00    -0.375 C  
HETATM   52  O   UNL     1     -12.190   7.540  72.934  1.00  0.00    -0.542 OA 
HETATM   53  H   UNL     1     -12.648   7.103  73.643  1.00  0.00     0.000 HD 
ENDBRANCH  40  51
BRANCH  31  54
HETATM   54  N   UNL     1      -8.607   4.640  70.226  1.00  0.00    -0.081 N  
HETATM   55  H   UNL     1      -9.334   3.931  70.131  1.00  0.00     0.000 HD 
HETATM   56  O   UNL     1      -6.540   5.151  71.039  1.00  0.00    -0.036 OA 
HETATM   57  C   UNL     1      -7.455   4.339  70.923  1.00  0.00    -0.051 C  
BRANCH  57  58
HETATM   58  C   UNL     1      -7.427   2.928  71.503  1.00  0.00    -0.040 C  
BRANCH  58  59
HETATM   59  C   UNL     1      -7.750   2.859  73.011  1.00  0.00    -0.051 C  
HETATM   60  H1  UNL     1      -7.715   4.115  74.644  1.00  0.00     0.000 HD 
HETATM   61  N   UNL     1      -7.502   4.161  73.647  1.00  0.00    -0.074 NA 
HETATM   62  H2  UNL     1      -8.010   4.914  73.183  1.00  0.00     0.000 HD 
BRANCH  59  63
HETATM   63  C   UNL     1      -9.223   2.484  73.300  1.00  0.00    -0.098 C  
BRANCH  63  64
HETATM   64  C   UNL     1      -9.850   3.295  74.439  1.00  0.00    -0.164 C  
BRANCH  64  65
HETATM   65  C   UNL     1     -10.913   4.269  73.929  1.00  0.00    -0.229 C  
HETATM   66  N   UNL     1     -10.461   4.873  72.680  1.00  0.00    -0.200 NA 
HETATM   67  H2  UNL     1     -10.213   4.172  71.981  1.00  0.00     0.000 HD 
HETATM   68  H1  UNL     1     -11.170   5.522  72.339  1.00  0.00     0.000 HD 
ENDBRANCH  64  65
ENDBRANCH  63  64
ENDBRANCH  59  63
ENDBRANCH  58  59
ENDBRANCH  57  58
ENDBRANCH  31  54
ENDBRANCH   1  14
TORSDOF 11
ENDMDL
MODEL       55
REMARK 921   NORMALIZED FREE ENERGY PREDICTED BY IDOCK:    1.03 KCAL/MOL
REMARK 922        TOTAL FREE ENERGY PREDICTED BY IDOCK:   -0.27 KCAL/MOL
REMARK 923 INTER-LIGAND FREE ENERGY PREDICTED BY IDOCK:   -4.85 KCAL/MOL
REMARK 924 INTRA-LIGAND FREE ENERGY PREDICTED BY IDOCK:    4.59 KCAL/MOL
REMARK 927      BINDING AFFINITY PREDICTED BY RF-SCORE:    0.00 PKD
ROOT
HETATM    1  C   UNL     1      -5.945   9.386  72.345  1.00  0.00     0.154 C  
HETATM    2  C   UNL     1      -7.407   9.411  72.881  1.00  0.00     1.270 C  
HETATM    3  H1  UNL     1      -4.221   6.171  72.816  1.00  0.00     0.000 HD 
HETATM    4  H   UNL     1      -4.304   8.886  73.695  1.00  0.00     0.000 HD 
HETATM    5  C   UNL     1      -7.876   8.001  73.229  1.00  0.00    -0.167 C  
HETATM    6  H2  UNL     1      -5.691   5.371  73.340  1.00  0.00     0.000 HD 
HETATM    7  N   UNL     1      -6.920   7.415  74.128  1.00  0.00    -0.087 NA 
HETATM    8  O   UNL     1      -9.136   8.030  73.861  1.00  0.00    -0.316 OA 
HETATM    9  N   UNL     1      -5.180   8.556  73.287  1.00  0.00    -0.050 NA 
HETATM   10  N   UNL     1      -5.155   6.231  73.222  1.00  0.00    -0.031 NA 
HETATM   11  H   UNL     1      -7.150   7.094  75.068  1.00  0.00     0.000 HD 
HETATM   12  C   UNL     1      -5.684   7.336  73.591  1.00  0.00    -0.049 C  
HETATM   13  H   UNL     1      -9.428   7.152  74.077  1.00  0.00     0.000 HD 
ENDROOT
BRANCH   1  14
HETATM   14  C   UNL     1      -5.793   8.898  70.864  1.00  0.00    -0.039 C  
HETATM   15  N   UNL     1      -9.010  11.910  68.891  1.00  0.00    -0.383 N  
HETATM   16  O   UNL     1      -6.610  11.838  70.423  1.00  0.00    -0.108 OA 
HETATM   17  C   UNL     1      -6.865  10.934  69.638  1.00  0.00    -0.137 C  
HETATM   18  C   UNL     1      -7.349  11.176  67.259  1.00  0.00    -0.118 C  
HETATM   19  N   UNL     1     -11.211   7.105  71.481  1.00  0.00    -0.240 N  
HETATM   20  H   UNL     1      -6.915   9.005  69.043  1.00  0.00     0.000 HD 
HETATM   21  N   UNL     1      -6.562   9.609  69.785  1.00  0.00    -0.050 N  
HETATM   22  H   UNL     1      -9.001  12.814  69.365  1.00  0.00     0.000 HD 
HETATM   23  C   UNL     1      -7.803  11.290  68.512  1.00  0.00    -0.138 C  
HETATM   24  C   UNL     1     -10.226  11.269  68.607  1.00  0.00    -0.203 C  
HETATM   25  O   UNL     1      -5.960   6.794  69.646  1.00  0.00    -0.018 OA 
HETATM   26  O   UNL     1     -10.647  11.083  67.467  1.00  0.00    -0.200 OA 
HETATM   27  N   UNL     1      -7.205   6.928  71.552  1.00  0.00    -0.078 N  
HETATM   28  CA  UNL     1     -10.928  10.669  69.871  1.00  0.00    -0.274 C  
HETATM   29  N   UNL     1     -12.081   9.774  69.626  1.00  0.00    -0.323 N  
HETATM   30  C   UNL     1      -7.950   5.681  71.353  1.00  0.00    -0.113 C  
HETATM   31  CA  UNL     1      -9.267   5.704  72.178  1.00  0.00    -0.146 C  
HETATM   32  H   UNL     1      -7.394   7.469  72.396  1.00  0.00     0.000 HD 
HETATM   33  H   UNL     1     -12.513   9.683  68.707  1.00  0.00     0.000 HD 
HETATM   34  O   UNL     1     -10.895   5.092  70.476  1.00  0.00    -0.082 OA 
HETATM   35  C   UNL     1     -12.542   9.060  70.742  1.00  0.00     0.085 C  
HETATM   36  C   UNL     1     -10.497   5.941  71.273  1.00  0.00    -0.233 C  
HETATM   37  H   UNL     1     -10.911   7.723  72.235  1.00  0.00     0.000 HD 
HETATM   38  C   UNL     1      -6.264   7.414  70.667  1.00  0.00    -0.035 C  
HETATM   39  O   UNL     1     -12.741   9.637  71.814  1.00  0.00    -0.361 OA 
HETATM   40  CA  UNL     1     -12.395   7.513  70.669  1.00  0.00     0.013 C  
BRANCH  18  41
HETATM   41  N   UNL     1      -7.997  11.710  66.172  1.00  0.00    -0.377 N  
HETATM   42  H   UNL     1      -8.369  12.657  66.244  1.00  0.00     0.000 HD 
BRANCH  41  43
HETATM   43  C   UNL     1      -8.167  11.032  65.001  1.00  0.00     0.184 C  
HETATM   44  H2  UNL     1      -6.173  10.385  65.113  1.00  0.00     0.000 HD 
HETATM   45  N   UNL     1      -7.052  10.374  64.595  1.00  0.00    -0.315 N  
HETATM   46  H1  UNL     1      -7.178   9.867  63.719  1.00  0.00     0.000 HD 
HETATM   47  O   UNL     1      -9.203  10.977  64.348  1.00  0.00    -0.204 OA 
ENDBRANCH  41  43
ENDBRANCH  18  41
BRANCH  28  48
HETATM   48  C   UNL     1      -9.854   9.819  70.578  1.00  0.00    -0.163 C  
HETATM   49  O   UNL     1      -9.453   8.705  69.766  1.00  0.00    -0.163 OA 
HETATM   50  H   UNL     1      -8.791   8.182  70.202  1.00  0.00     0.000 HD 
ENDBRANCH  28  48
BRANCH  40  51
HETATM   51  CB  UNL     1     -13.667   6.854  71.214  1.00  0.00    -0.021 C  
HETATM   52  O   UNL     1     -13.477   6.235  72.487  1.00  0.00    -0.348 OA 
HETATM   53  H   UNL     1     -14.266   5.827  72.825  1.00  0.00     0.000 HD 
ENDBRANCH  40  51
BRANCH  31  54
HETATM   54  N   UNL     1      -9.463   4.468  72.944  1.00  0.00    -0.129 N  
HETATM   55  H   UNL     1      -8.820   3.688  72.806  1.00  0.00     0.000 HD 
HETATM   56  O   UNL     1     -11.279   5.264  74.068  1.00  0.00    -0.139 OA 
HETATM   57  C   UNL     1     -10.498   4.341  73.847  1.00  0.00    -0.224 C  
BRANCH  57  58
HETATM   58  C   UNL     1     -10.561   2.982  74.538  1.00  0.00    -0.169 C  
BRANCH  58  59
HETATM   59  C   UNL     1      -9.910   1.836  73.736  1.00  0.00    -0.082 C  
HETATM   60  H1  UNL     1      -9.568   1.348  71.763  1.00  0.00     0.000 HD 
HETATM   61  N   UNL     1      -9.999   2.106  72.293  1.00  0.00    -0.146 NA 
HETATM   62  H2  UNL     1      -9.601   3.014  72.051  1.00  0.00     0.000 HD 
BRANCH  59  63
HETATM   63  C   UNL     1      -8.413   1.634  74.070  1.00  0.00    -0.054 C  
BRANCH  63  64
HETATM   64  C   UNL     1      -7.465   2.169  72.992  1.00  0.00    -0.037 C  
BRANCH  64  65
HETATM   65  C   UNL     1      -6.000   2.074  73.420  1.00  0.00    -0.007 C  
HETATM   66  N   UNL     1      -5.162   2.767  72.446  1.00  0.00     0.000 NA 
HETATM   67  H2  UNL     1      -5.459   3.732  72.300  1.00  0.00     0.000 HD 
HETATM   68  H1  UNL     1      -4.185   2.704  72.732  1.00  0.00     0.000 HD 
ENDBRANCH  64  65
ENDBRANCH  63  64
ENDBRANCH  59  63
ENDBRANCH  58  59
ENDBRANCH  57  58
ENDBRANCH  31  54
ENDBRANCH   1  14
TORSDOF 11
ENDMDL
MODEL       56
REMARK 921   NORMALIZED FREE ENERGY PREDICTED BY IDOCK:    1.12 KCAL/MOL
REMARK 922        TOTAL FREE ENERGY PREDICTED BY IDOCK:   -0.13 KCAL/MOL
REMARK 923 INTER-LIGAND FREE ENERGY PREDICTED BY IDOCK:  -10.62 KCAL/MOL
REMARK 924 INTRA-LIGAND FREE ENERGY PREDICTED BY IDOCK:   10.50 KCAL/MOL
REMARK 927      BINDING AFFINITY PREDICTED BY RF-SCORE:    0.00 PKD
ROOT
HETATM    1  C   UNL     1      -8.057   9.208  71.009  1.00  0.00    -0.134 C  
HETATM    2  C   UNL     1      -6.746   8.375  70.893  1.00  0.00    -0.042 C  
HETATM    3  H1  UNL     1      -9.216  10.641  67.826  1.00  0.00     0.000 HD 
HETATM    4  H   UNL     1      -8.076  11.293  70.360  1.00  0.00     0.000 HD 
HETATM    5  C   UNL     1      -6.399   8.117  69.429  1.00  0.00    -0.034 C  
HETATM    6  H2  UNL     1      -8.033   9.738  66.898  1.00  0.00     0.000 HD 
HETATM    7  N   UNL     1      -6.367   9.380  68.743  1.00  0.00    -0.047 NA 
HETATM    8  O   UNL     1      -5.137   7.503  69.311  1.00  0.00    -0.015 OA 
HETATM    9  N   UNL     1      -7.911  10.329  70.067  1.00  0.00    -0.119 NA 
HETATM   10  N   UNL     1      -8.323  10.151  67.785  1.00  0.00    -0.114 NA 
HETATM   11  H   UNL     1      -5.542   9.745  68.268  1.00  0.00     0.000 HD 
HETATM   12  C   UNL     1      -7.549  10.030  68.797  1.00  0.00    -0.083 C  
HETATM   13  H   UNL     1      -4.921   7.342  68.400  1.00  0.00     0.000 HD 
ENDROOT
BRANCH   1  14
HETATM   14  C   UNL     1      -9.376   8.399  70.769  1.00  0.00    -0.163 C  
HETATM   15  N   UNL     1      -7.869   5.889  66.929  1.00  0.00    -0.101 N  
HETATM   16  O   UNL     1      -7.279   6.428  69.663  1.00  0.00    -0.073 OA 
HETATM   17  C   UNL     1      -8.433   6.495  69.259  1.00  0.00    -0.127 C  
HETATM   18  C   UNL     1      -9.668   4.733  68.108  1.00  0.00    -0.143 C  
HETATM   19  N   UNL     1      -9.674  11.392  65.880  1.00  0.00    -0.218 N  
HETATM   20  H   UNL     1     -10.285   7.295  69.174  1.00  0.00     0.000 HD 
HETATM   21  N   UNL     1      -9.401   7.362  69.680  1.00  0.00    -0.150 N  
HETATM   22  H   UNL     1      -6.878   5.660  67.010  1.00  0.00     0.000 HD 
HETATM   23  C   UNL     1      -8.739   5.692  68.019  1.00  0.00    -0.099 C  
HETATM   24  C   UNL     1      -8.383   6.404  65.728  1.00  0.00    -0.146 C  
HETATM   25  O   UNL     1     -11.736   8.886  70.409  1.00  0.00    -0.180 OA 
HETATM   26  O   UNL     1      -9.183   5.800  65.017  1.00  0.00     0.096 OA 
HETATM   27  N   UNL     1     -10.284  10.515  69.746  1.00  0.00    -0.409 N  
HETATM   28  CA  UNL     1      -7.967   7.888  65.455  1.00  0.00    -0.123 C  
HETATM   29  N   UNL     1      -8.661   8.576  64.343  1.00  0.00    -0.405 N  
HETATM   30  C   UNL     1     -11.273  11.353  69.062  1.00  0.00    -0.256 C  
HETATM   31  CA  UNL     1     -10.571  12.282  68.032  1.00  0.00    -0.216 C  
HETATM   32  H   UNL     1      -9.316  10.836  69.766  1.00  0.00     0.000 HD 
HETATM   33  H   UNL     1      -9.249   8.076  63.676  1.00  0.00     0.000 HD 
HETATM   34  O   UNL     1     -11.895  11.852  66.036  1.00  0.00    -0.497 OA 
HETATM   35  C   UNL     1      -8.456   9.962  64.265  1.00  0.00    -0.173 C  
HETATM   36  C   UNL     1     -10.794  11.792  66.584  1.00  0.00    -0.276 C  
HETATM   37  H   UNL     1      -8.766  11.473  66.338  1.00  0.00     0.000 HD 
HETATM   38  C   UNL     1     -10.583   9.317  70.364  1.00  0.00    -0.248 C  
HETATM   39  O   UNL     1      -7.317  10.429  64.338  1.00  0.00    -0.107 OA 
HETATM   40  CA  UNL     1      -9.713  10.850  64.491  1.00  0.00    -0.282 C  
BRANCH  18  41
HETATM   41  N   UNL     1      -9.850   3.771  67.145  1.00  0.00    -0.298 N  
HETATM   42  H   UNL     1     -10.551   3.933  66.422  1.00  0.00     0.000 HD 
BRANCH  41  43
HETATM   43  C   UNL     1      -9.135   2.610  67.110  1.00  0.00    -0.154 C  
HETATM   44  H2  UNL     1     -10.760   1.610  67.985  1.00  0.00     0.000 HD 
HETATM   45  N   UNL     1      -9.811   1.547  67.615  1.00  0.00    -0.364 N  
HETATM   46  H1  UNL     1      -9.277   0.679  67.589  1.00  0.00     0.000 HD 
HETATM   47  O   UNL     1      -8.000   2.480  66.666  1.00  0.00    -0.078 OA 
ENDBRANCH  41  43
ENDBRANCH  18  41
BRANCH  28  48
HETATM   48  C   UNL     1      -8.320   8.663  66.740  1.00  0.00    -0.108 C  
HETATM   49  O   UNL     1      -9.717   8.547  67.051  1.00  0.00    -0.170 OA 
HETATM   50  H   UNL     1      -9.934   9.024  67.843  1.00  0.00     0.000 HD 
ENDBRANCH  28  48
BRANCH  40  51
HETATM   51  CB  UNL     1      -9.717  11.995  63.472  1.00  0.00    -0.200 C  
HETATM   52  O   UNL     1     -11.032  12.389  63.077  1.00  0.00    -0.656 OA 
HETATM   53  H   UNL     1     -11.034  13.099  62.445  1.00  0.00     0.000 HD 
ENDBRANCH  40  51
BRANCH  31  54
HETATM   54  N   UNL     1     -11.021  13.674  68.145  1.00  0.00    -0.246 N  
HETATM   55  H   UNL     1     -11.792  13.901  68.774  1.00  0.00     0.000 HD 
HETATM   56  O   UNL     1      -9.472  14.461  66.670  1.00  0.00    -0.260 OA 
HETATM   57  C   UNL     1     -10.422  14.683  67.418  1.00  0.00    -0.255 C  
BRANCH  57  58
HETATM   58  C   UNL     1     -11.031  16.063  67.645  1.00  0.00    -0.284 C  
BRANCH  58  59
HETATM   59  C   UNL     1     -10.243  17.216  66.987  1.00  0.00    -0.313 C  
HETATM   60  H1  UNL     1      -9.969  18.002  65.102  1.00  0.00     0.000 HD 
HETATM   61  N   UNL     1     -10.490  17.241  65.537  1.00  0.00    -0.629 NA 
HETATM   62  H2  UNL     1     -11.486  17.288  65.321  1.00  0.00     0.000 HD 
BRANCH  59  63
HETATM   63  C   UNL     1     -10.630  18.609  67.539  1.00  0.00    -0.472 C  
BRANCH  63  64
HETATM   64  C   UNL     1      -9.843  19.014  68.790  1.00  0.00    -0.485 C  
BRANCH  64  65
HETATM   65  C   UNL     1      -8.520  19.696  68.437  1.00  0.00    -0.313 C  
HETATM   66  N   UNL     1      -8.719  20.581  67.294  1.00  0.00    -0.455 NA 
HETATM   67  H2  UNL     1      -9.469  21.254  67.453  1.00  0.00     0.000 HD 
HETATM   68  H1  UNL     1      -7.837  21.037  67.059  1.00  0.00     0.000 HD 
ENDBRANCH  64  65
ENDBRANCH  63  64
ENDBRANCH  59  63
ENDBRANCH  58  59
ENDBRANCH  57  58
ENDBRANCH  31  54
ENDBRANCH   1  14
TORSDOF 11
ENDMDL
MODEL       57
REMARK 921   NORMALIZED FREE ENERGY PREDICTED BY IDOCK:    1.18 KCAL/MOL
REMARK 922        TOTAL FREE ENERGY PREDICTED BY IDOCK:   -0.01 KCAL/MOL
REMARK 923 INTER-LIGAND FREE ENERGY PREDICTED BY IDOCK:  -10.67 KCAL/MOL
REMARK 924 INTRA-LIGAND FREE ENERGY PREDICTED BY IDOCK:   10.66 KCAL/MOL
REMARK 927      BINDING AFFINITY PREDICTED BY RF-SCORE:    0.00 PKD
ROOT
HETATM    1  C   UNL     1      -7.150   8.922  67.576  1.00  0.00    -0.076 C  
HETATM    2  C   UNL     1      -6.190  10.008  67.004  1.00  0.00    -0.063 C  
HETATM    3  H1  UNL     1      -9.966  10.273  69.518  1.00  0.00     0.000 HD 
HETATM    4  H   UNL     1      -7.516   8.824  69.726  1.00  0.00     0.000 HD 
HETATM    5  C   UNL     1      -6.801  11.399  67.152  1.00  0.00    -0.124 C  
HETATM    6  H2  UNL     1      -9.600  11.923  69.049  1.00  0.00     0.000 HD 
HETATM    7  N   UNL     1      -7.165  11.588  68.530  1.00  0.00    -0.089 NA 
HETATM    8  O   UNL     1      -5.878  12.398  66.784  1.00  0.00    -0.481 OA 
HETATM    9  N   UNL     1      -7.580   9.412  68.894  1.00  0.00    -0.074 NA 
HETATM   10  N   UNL     1      -9.288  10.962  69.193  1.00  0.00    -0.133 NA 
HETATM   11  H   UNL     1      -6.787  12.330  69.118  1.00  0.00     0.000 HD 
HETATM   12  C   UNL     1      -8.063  10.676  68.959  1.00  0.00    -0.148 C  
HETATM   13  H   UNL     1      -6.259  13.263  66.876  1.00  0.00     0.000 HD 
ENDROOT
BRANCH   1  14
HETATM   14  C   UNL     1      -8.362   8.561  66.652  1.00  0.00    -0.112 C  
HETATM   15  N   UNL     1      -9.529  13.070  65.378  1.00  0.00    -0.459 N  
HETATM   16  O   UNL     1      -7.398  11.181  65.344  1.00  0.00     0.186 OA 
HETATM   17  C   UNL     1      -8.560  10.796  65.324  1.00  0.00    -0.148 C  
HETATM   18  C   UNL     1     -10.273  11.446  63.713  1.00  0.00    -0.382 C  
HETATM   19  N   UNL     1     -11.492  11.272  70.627  1.00  0.00    -0.378 N  
HETATM   20  H   UNL     1     -10.071   9.555  65.827  1.00  0.00     0.000 HD 
HETATM   21  N   UNL     1      -9.059   9.666  65.908  1.00  0.00    -0.165 N  
HETATM   22  H   UNL     1      -8.694  13.651  65.292  1.00  0.00     0.000 HD 
HETATM   23  C   UNL     1      -9.568  11.786  64.798  1.00  0.00    -0.089 C  
HETATM   24  C   UNL     1     -10.653  13.540  66.075  1.00  0.00    -0.285 C  
HETATM   25  O   UNL     1     -10.450   7.320  66.840  1.00  0.00    -0.291 OA 
HETATM   26  O   UNL     1     -11.732  13.784  65.539  1.00  0.00    -0.326 OA 
HETATM   27  N   UNL     1      -9.661   8.217  68.783  1.00  0.00    -0.154 N  
HETATM   28  CA  UNL     1     -10.458  13.575  67.628  1.00  0.00    -0.238 C  
HETATM   29  N   UNL     1     -11.669  13.824  68.442  1.00  0.00    -0.338 N  
HETATM   30  C   UNL     1     -10.846   7.926  69.595  1.00  0.00    -0.176 C  
HETATM   31  CA  UNL     1     -10.890   8.860  70.837  1.00  0.00    -0.248 C  
HETATM   32  H   UNL     1      -8.871   8.677  69.236  1.00  0.00     0.000 HD 
HETATM   33  H   UNL     1     -12.549  14.128  68.028  1.00  0.00     0.000 HD 
HETATM   34  O   UNL     1     -13.158   9.728  70.690  1.00  0.00    -0.191 OA 
HETATM   35  C   UNL     1     -11.525  13.614  69.822  1.00  0.00    -0.187 C  
HETATM   36  C   UNL     1     -11.951   9.970  70.673  1.00  0.00    -0.313 C  
HETATM   37  H   UNL     1     -10.490  11.431  70.737  1.00  0.00     0.000 HD 
HETATM   38  C   UNL     1      -9.550   7.907  67.442  1.00  0.00    -0.152 C  
HETATM   39  O   UNL     1     -10.564  14.094  70.429  1.00  0.00     0.484 OA 
HETATM   40  CA  UNL     1     -12.373  12.459  70.427  1.00  0.00    -0.227 C  
BRANCH  18  41
HETATM   41  N   UNL     1     -11.019  12.343  62.989  1.00  0.00    -0.628 N  
HETATM   42  H   UNL     1     -10.564  12.857  62.235  1.00  0.00     0.000 HD 
BRANCH  41  43
HETATM   43  C   UNL     1     -12.340  12.577  63.231  1.00  0.00    -0.371 C  
HETATM   44  H2  UNL     1     -12.033  14.611  62.814  1.00  0.00     0.000 HD 
HETATM   45  N   UNL     1     -12.692  13.880  63.081  1.00  0.00    -0.741 N  
HETATM   46  H1  UNL     1     -13.680  14.055  63.262  1.00  0.00     0.000 HD 
HETATM   47  O   UNL     1     -13.173  11.733  63.540  1.00  0.00    -0.585 OA 
ENDBRANCH  41  43
ENDBRANCH  18  41
BRANCH  28  48
HETATM   48  C   UNL     1      -9.948  12.173  68.014  1.00  0.00    -0.203 C  
HETATM   49  O   UNL     1     -10.889  11.155  67.642  1.00  0.00    -0.212 OA 
HETATM   50  H   UNL     1     -10.575  10.291  67.880  1.00  0.00     0.000 HD 
ENDBRANCH  28  48
BRANCH  40  51
HETATM   51  CB  UNL     1     -12.968  12.913  71.765  1.00  0.00    -0.315 C  
HETATM   52  O   UNL     1     -13.826  14.048  71.640  1.00  0.00    -0.361 OA 
HETATM   53  H   UNL     1     -14.195  14.329  72.470  1.00  0.00     0.000 HD 
ENDBRANCH  40  51
BRANCH  31  54
HETATM   54  N   UNL     1     -11.152   8.120  72.077  1.00  0.00    -0.284 N  
HETATM   55  H   UNL     1     -12.117   7.957  72.367  1.00  0.00     0.000 HD 
HETATM   56  O   UNL     1      -8.944   7.788  72.534  1.00  0.00    -0.134 OA 
HETATM   57  C   UNL     1     -10.121   7.641  72.858  1.00  0.00    -0.286 C  
BRANCH  57  58
HETATM   58  C   UNL     1     -10.577   6.914  74.119  1.00  0.00     0.014 C  
BRANCH  58  59
HETATM   59  C   UNL     1     -10.988   5.445  73.887  1.00  0.00    -0.064 C  
HETATM   60  H1  UNL     1     -12.374   4.399  72.777  1.00  0.00     0.000 HD 
HETATM   61  N   UNL     1     -12.102   5.370  72.930  1.00  0.00    -0.479 NA 
HETATM   62  H2  UNL     1     -11.885   5.847  72.055  1.00  0.00     0.000 HD 
BRANCH  59  63
HETATM   63  C   UNL     1      -9.841   4.575  73.320  1.00  0.00    -0.167 C  
BRANCH  63  64
HETATM   64  C   UNL     1     -10.005   4.237  71.834  1.00  0.00    -0.255 C  
BRANCH  64  65
HETATM   65  C   UNL     1      -8.673   4.299  71.084  1.00  0.00    -0.101 C  
HETATM   66  N   UNL     1      -8.508   5.623  70.493  1.00  0.00    -0.120 NA 
HETATM   67  H2  UNL     1      -8.596   6.367  71.186  1.00  0.00     0.000 HD 
HETATM   68  H1  UNL     1      -7.621   5.664  69.993  1.00  0.00     0.000 HD 
ENDBRANCH  64  65
ENDBRANCH  63  64
ENDBRANCH  59  63
ENDBRANCH  58  59
ENDBRANCH  57  58
ENDBRANCH  31  54
ENDBRANCH   1  14
TORSDOF 11
ENDMDL
MODEL       58
REMARK 921   NORMALIZED FREE ENERGY PREDICTED BY IDOCK:    1.19 KCAL/MOL
REMARK 922        TOTAL FREE ENERGY PREDICTED BY IDOCK:    0.00 KCAL/MOL
REMARK 923 INTER-LIGAND FREE ENERGY PREDICTED BY IDOCK:   -4.63 KCAL/MOL
REMARK 924 INTRA-LIGAND FREE ENERGY PREDICTED BY IDOCK:    4.63 KCAL/MOL
REMARK 927      BINDING AFFINITY PREDICTED BY RF-SCORE:    0.00 PKD
ROOT
HETATM    1  C   UNL     1     -11.190  10.864  69.753  1.00  0.00    -0.281 C  
HETATM    2  C   UNL     1     -11.189   9.985  68.466  1.00  0.00    -0.180 C  
HETATM    3  H1  UNL     1      -9.215   9.474  72.527  1.00  0.00     0.000 HD 
HETATM    4  H   UNL     1     -11.875  10.015  71.644  1.00  0.00     0.000 HD 
HETATM    5  C   UNL     1     -10.138   8.883  68.568  1.00  0.00    -0.188 C  
HETATM    6  H2  UNL     1      -8.538   8.211  71.516  1.00  0.00     0.000 HD 
HETATM    7  N   UNL     1     -10.360   8.157  69.788  1.00  0.00    -0.212 NA 
HETATM    8  O   UNL     1     -10.236   7.990  67.482  1.00  0.00    -0.204 OA 
HETATM    9  N   UNL     1     -11.197   9.926  70.886  1.00  0.00    -0.340 NA 
HETATM   10  N   UNL     1      -9.285   8.881  71.700  1.00  0.00    -0.293 NA 
HETATM   11  H   UNL     1     -10.565   7.158  69.822  1.00  0.00     0.000 HD 
HETATM   12  C   UNL     1     -10.267   8.941  70.883  1.00  0.00    -0.240 C  
HETATM   13  H   UNL     1      -9.582   7.305  67.545  1.00  0.00     0.000 HD 
ENDROOT
BRANCH   1  14
HETATM   14  C   UNL     1     -10.017  11.898  69.845  1.00  0.00     1.708 C  
HETATM   15  N   UNL     1     -11.357  14.680  66.132  1.00  0.00    -0.349 N  
HETATM   16  O   UNL     1     -12.245  13.654  68.637  1.00  0.00    -0.339 OA 
HETATM   17  C   UNL     1     -11.051  13.832  68.435  1.00  0.00    -0.263 C  
HETATM   18  C   UNL     1      -9.995  15.918  67.736  1.00  0.00    -0.229 C  
HETATM   19  N   UNL     1      -8.451   9.749  64.758  1.00  0.00    -0.152 N  
HETATM   20  H   UNL     1      -9.093  13.356  68.577  1.00  0.00     0.000 HD 
HETATM   21  N   UNL     1     -10.016  13.076  68.910  1.00  0.00     0.011 N  
HETATM   22  H   UNL     1     -12.374  14.734  66.067  1.00  0.00     0.000 HD 
HETATM   23  C   UNL     1     -10.711  14.848  67.373  1.00  0.00    -0.292 C  
HETATM   24  C   UNL     1     -10.584  14.436  64.986  1.00  0.00    -0.432 C  
HETATM   25  O   UNL     1      -7.581  11.850  69.844  1.00  0.00     0.663 OA 
HETATM   26  O   UNL     1      -9.808  15.258  64.503  1.00  0.00     0.092 OA 
HETATM   27  N   UNL     1      -8.599  10.129  68.748  1.00  0.00    -0.126 N  
HETATM   28  CA  UNL     1     -10.679  12.962  64.467  1.00  0.00    -0.371 C  
HETATM   29  N   UNL     1      -9.713  12.566  63.418  1.00  0.00    -0.269 N  
HETATM   30  C   UNL     1      -7.383   9.569  68.150  1.00  0.00    -0.078 C  
HETATM   31  CA  UNL     1      -7.743   8.703  66.910  1.00  0.00    -0.091 C  
HETATM   32  H   UNL     1      -9.485   9.658  68.561  1.00  0.00     0.000 HD 
HETATM   33  H   UNL     1      -9.131  13.246  62.930  1.00  0.00     0.000 HD 
HETATM   34  O   UNL     1      -6.234   9.628  65.240  1.00  0.00    -0.071 OA 
HETATM   35  C   UNL     1      -9.650  11.192  63.140  1.00  0.00    -0.369 C  
HETATM   36  C   UNL     1      -7.397   9.431  65.592  1.00  0.00    -0.092 C  
HETATM   37  H   UNL     1      -9.389   9.459  65.038  1.00  0.00     0.000 HD 
HETATM   38  C   UNL     1      -8.618  11.253  69.548  1.00  0.00     0.600 C  
HETATM   39  O   UNL     1     -10.684  10.545  62.957  1.00  0.00     0.384 OA 
HETATM   40  CA  UNL     1      -8.302  10.491  63.472  1.00  0.00    -0.113 C  
BRANCH  18  41
HETATM   41  N   UNL     1      -9.847  17.029  66.942  1.00  0.00    -0.261 N  
HETATM   42  H   UNL     1     -10.126  16.968  65.963  1.00  0.00     0.000 HD 
BRANCH  41  43
HETATM   43  C   UNL     1      -9.344  18.210  67.403  1.00  0.00    -0.254 C  
HETATM   44  H2  UNL     1      -8.235  18.402  65.631  1.00  0.00     0.000 HD 
HETATM   45  N   UNL     1      -8.482  18.801  66.537  1.00  0.00    -0.294 N  
HETATM   46  H1  UNL     1      -8.106  19.685  66.881  1.00  0.00     0.000 HD 
HETATM   47  O   UNL     1      -9.619  18.737  68.475  1.00  0.00    -0.332 OA 
ENDBRANCH  41  43
ENDBRANCH  18  41
BRANCH  28  48
HETATM   48  C   UNL     1     -10.390  12.072  65.692  1.00  0.00    -0.253 C  
HETATM   49  O   UNL     1      -9.085  12.334  66.230  1.00  0.00    -0.321 OA 
HETATM   50  H   UNL     1      -8.907  11.786  66.985  1.00  0.00     0.000 HD 
ENDBRANCH  28  48
BRANCH  40  51
HETATM   51  CB  UNL     1      -7.938   9.525  62.339  1.00  0.00    -0.116 C  
HETATM   52  O   UNL     1      -8.556   8.244  62.474  1.00  0.00    -0.379 OA 
HETATM   53  H   UNL     1      -8.331   7.646  61.771  1.00  0.00     0.000 HD 
ENDBRANCH  40  51
BRANCH  31  54
HETATM   54  N   UNL     1      -7.071   7.399  66.931  1.00  0.00    -0.081 N  
HETATM   55  H   UNL     1      -7.481   6.617  66.419  1.00  0.00     0.000 HD 
HETATM   56  O   UNL     1      -5.351   8.128  68.236  1.00  0.00    -0.031 OA 
HETATM   57  C   UNL     1      -5.896   7.209  67.629  1.00  0.00    -0.029 C  
BRANCH  57  58
HETATM   58  C   UNL     1      -5.349   5.786  67.557  1.00  0.00    -0.005 C  
BRANCH  58  59
HETATM   59  C   UNL     1      -6.162   4.756  68.370  1.00  0.00    -0.032 C  
HETATM   60  H1  UNL     1      -5.987   2.789  68.959  1.00  0.00     0.000 HD 
HETATM   61  N   UNL     1      -5.450   3.470  68.422  1.00  0.00    -0.013 NA 
HETATM   62  H2  UNL     1      -4.501   3.574  68.781  1.00  0.00     0.000 HD 
BRANCH  59  63
HETATM   63  C   UNL     1      -6.412   5.197  69.832  1.00  0.00    -0.035 C  
BRANCH  63  64
HETATM   64  C   UNL     1      -6.607   4.026  70.801  1.00  0.00    -0.031 C  
BRANCH  64  65
HETATM   65  C   UNL     1      -6.418   4.453  72.258  1.00  0.00    -0.022 C  
HETATM   66  N   UNL     1      -5.696   5.720  72.305  1.00  0.00    -0.026 NA 
HETATM   67  H2  UNL     1      -6.150   6.443  71.747  1.00  0.00     0.000 HD 
HETATM   68  H1  UNL     1      -5.570   6.004  73.276  1.00  0.00     0.000 HD 
ENDBRANCH  64  65
ENDBRANCH  63  64
ENDBRANCH  59  63
ENDBRANCH  58  59
ENDBRANCH  57  58
ENDBRANCH  31  54
ENDBRANCH   1  14
TORSDOF 11
ENDMDL
MODEL       59
REMARK 921   NORMALIZED FREE ENERGY PREDICTED BY IDOCK:    1.29 KCAL/MOL
REMARK 922        TOTAL FREE ENERGY PREDICTED BY IDOCK:    0.16 KCAL/MOL
REMARK 923 INTER-LIGAND FREE ENERGY PREDICTED BY IDOCK:   -4.00 KCAL/MOL
REMARK 924 INTRA-LIGAND FREE ENERGY PREDICTED BY IDOCK:    4.16 KCAL/MOL
REMARK 927      BINDING AFFINITY PREDICTED BY RF-SCORE:    0.00 PKD
ROOT
HETATM    1  C   UNL     1     -11.172  10.107  66.326  1.00  0.00     0.684 C  
HETATM    2  C   UNL     1     -10.833  10.700  67.726  1.00  0.00    -0.338 C  
HETATM    3  H1  UNL     1     -10.484  12.381  63.519  1.00  0.00     0.000 HD 
HETATM    4  H   UNL     1     -12.576  11.149  65.019  1.00  0.00     0.000 HD 
HETATM    5  C   UNL     1     -10.031  11.992  67.583  1.00  0.00    -0.191 C  
HETATM    6  H2  UNL     1      -9.662  13.534  64.552  1.00  0.00     0.000 HD 
HETATM    7  N   UNL     1     -10.756  12.880  66.717  1.00  0.00    -0.260 NA 
HETATM    8  O   UNL     1      -9.856  12.617  68.834  1.00  0.00    -0.414 OA 
HETATM    9  N   UNL     1     -11.693  11.225  65.526  1.00  0.00     0.104 NA 
HETATM   10  N   UNL     1     -10.335  12.775  64.447  1.00  0.00    -0.368 NA 
HETATM   11  H   UNL     1     -11.084  13.803  67.000  1.00  0.00     0.000 HD 
HETATM   12  C   UNL     1     -10.954  12.359  65.487  1.00  0.00    -0.293 C  
HETATM   13  H   UNL     1      -9.357  13.421  68.745  1.00  0.00     0.000 HD 
ENDROOT
BRANCH   1  14
HETATM   14  C   UNL     1      -9.985   9.370  65.617  1.00  0.00    -0.139 C  
HETATM   15  N   UNL     1      -9.540   5.742  68.772  1.00  0.00    -0.123 N  
HETATM   16  O   UNL     1     -11.387   7.003  67.008  1.00  0.00    -0.238 OA 
HETATM   17  C   UNL     1     -10.187   7.041  66.770  1.00  0.00    -0.211 C  
HETATM   18  C   UNL     1      -8.689   5.125  66.567  1.00  0.00    -0.111 C  
HETATM   19  N   UNL     1      -7.004  10.829  70.301  1.00  0.00    -0.259 N  
HETATM   20  H   UNL     1      -8.489   7.927  66.131  1.00  0.00     0.000 HD 
HETATM   21  N   UNL     1      -9.498   8.067  66.188  1.00  0.00    -0.165 N  
HETATM   22  H   UNL     1     -10.450   5.468  69.142  1.00  0.00     0.000 HD 
HETATM   23  C   UNL     1      -9.362   5.940  67.388  1.00  0.00    -0.111 C  
HETATM   24  C   UNL     1      -8.447   5.925  69.634  1.00  0.00    -0.117 C  
HETATM   25  O   UNL     1      -7.738   9.919  64.853  1.00  0.00    -0.122 OA 
HETATM   26  O   UNL     1      -7.450   5.207  69.631  1.00  0.00    -0.059 OA 
HETATM   27  N   UNL     1      -8.513  11.163  66.599  1.00  0.00    -0.159 N  
HETATM   28  CA  UNL     1      -8.543   7.228  70.497  1.00  0.00    -0.143 C  
HETATM   29  N   UNL     1      -7.327   7.616  71.247  1.00  0.00    -0.072 N  
HETATM   30  C   UNL     1      -7.248  11.842  66.895  1.00  0.00    -0.074 C  
HETATM   31  CA  UNL     1      -7.252  12.373  68.356  1.00  0.00    -0.110 C  
HETATM   32  H   UNL     1      -9.328  11.398  67.167  1.00  0.00     0.000 HD 
HETATM   33  H   UNL     1      -6.526   6.993  71.344  1.00  0.00     0.000 HD 
HETATM   34  O   UNL     1      -5.140  11.490  69.181  1.00  0.00    -0.045 OA 
HETATM   35  C   UNL     1      -7.349   8.899  71.815  1.00  0.00     0.019 C  
HETATM   36  C   UNL     1      -6.367  11.504  69.277  1.00  0.00    -0.091 C  
HETATM   37  H   UNL     1      -8.009  10.966  70.413  1.00  0.00     0.000 HD 
HETATM   38  C   UNL     1      -8.669  10.225  65.599  1.00  0.00    -0.162 C  
HETATM   39  O   UNL     1      -8.324   9.275  72.469  1.00  0.00     0.078 OA 
HETATM   40  CA  UNL     1      -6.311   9.911  71.251  1.00  0.00     0.126 C  
BRANCH  18  41
HETATM   41  N   UNL     1      -8.125   3.942  66.978  1.00  0.00    -0.095 N  
HETATM   42  H   UNL     1      -8.523   3.468  67.789  1.00  0.00     0.000 HD 
BRANCH  41  43
HETATM   43  C   UNL     1      -7.055   3.373  66.352  1.00  0.00    -0.062 C  
HETATM   44  H2  UNL     1      -8.329   1.902  65.564  1.00  0.00     0.000 HD 
HETATM   45  N   UNL     1      -7.380   2.269  65.631  1.00  0.00    -0.065 N  
HETATM   46  H1  UNL     1      -6.580   1.843  65.163  1.00  0.00     0.000 HD 
HETATM   47  O   UNL     1      -5.901   3.782  66.391  1.00  0.00    -0.021 OA 
ENDBRANCH  41  43
ENDBRANCH  18  41
BRANCH  28  48
HETATM   48  C   UNL     1      -8.827   8.368  69.499  1.00  0.00    -0.145 C  
HETATM   49  O   UNL     1      -7.719   8.571  68.610  1.00  0.00    -0.099 OA 
HETATM   50  H   UNL     1      -7.894   9.273  67.995  1.00  0.00     0.000 HD 
ENDBRANCH  28  48
BRANCH  40  51
HETATM   51  CB  UNL     1      -5.697  10.707  72.408  1.00  0.00     0.869 C  
HETATM   52  O   UNL     1      -6.128  10.254  73.692  1.00  0.00     0.396 OA 
HETATM   53  H   UNL     1      -5.746  10.747  74.409  1.00  0.00     0.000 HD 
ENDBRANCH  40  51
BRANCH  31  54
HETATM   54  N   UNL     1      -6.808  13.770  68.439  1.00  0.00    -0.090 N  
HETATM   55  H   UNL     1      -6.624  14.288  67.580  1.00  0.00     0.000 HD 
HETATM   56  O   UNL     1      -6.873  13.821  70.717  1.00  0.00     0.436 OA 
HETATM   57  C   UNL     1      -6.636  14.396  69.657  1.00  0.00    -0.147 C  
BRANCH  57  58
HETATM   58  C   UNL     1      -6.152  15.839  69.554  1.00  0.00    -0.147 C  
BRANCH  58  59
HETATM   59  C   UNL     1      -7.280  16.869  69.331  1.00  0.00    -0.087 C  
HETATM   60  H1  UNL     1      -7.581  18.602  68.257  1.00  0.00     0.000 HD 
HETATM   61  N   UNL     1      -6.836  17.921  68.405  1.00  0.00    -0.218 NA 
HETATM   62  H2  UNL     1      -6.495  17.534  67.524  1.00  0.00     0.000 HD 
BRANCH  59  63
HETATM   63  C   UNL     1      -8.562  16.245  68.731  1.00  0.00    -0.240 C  
BRANCH  63  64
HETATM   64  C   UNL     1      -9.852  16.938  69.184  1.00  0.00    -0.206 C  
BRANCH  64  65
HETATM   65  C   UNL     1     -11.005  15.947  69.349  1.00  0.00    -0.309 C  
HETATM   66  N   UNL     1     -11.554  16.060  70.696  1.00  0.00    -0.407 NA 
HETATM   67  H2  UNL     1     -11.832  17.015  70.921  1.00  0.00     0.000 HD 
HETATM   68  H1  UNL     1     -12.324  15.400  70.807  1.00  0.00     0.000 HD 
ENDBRANCH  64  65
ENDBRANCH  63  64
ENDBRANCH  59  63
ENDBRANCH  58  59
ENDBRANCH  57  58
ENDBRANCH  31  54
ENDBRANCH   1  14
TORSDOF 11
ENDMDL
MODEL       60
REMARK 921   NORMALIZED FREE ENERGY PREDICTED BY IDOCK:    1.33 KCAL/MOL
REMARK 922        TOTAL FREE ENERGY PREDICTED BY IDOCK:    0.23 KCAL/MOL
REMARK 923 INTER-LIGAND FREE ENERGY PREDICTED BY IDOCK:  -10.02 KCAL/MOL
REMARK 924 INTRA-LIGAND FREE ENERGY PREDICTED BY IDOCK:   10.25 KCAL/MOL
REMARK 927      BINDING AFFINITY PREDICTED BY RF-SCORE:    0.00 PKD
ROOT
HETATM    1  C   UNL     1     -12.011   7.243  70.838  1.00  0.00    -0.305 C  
HETATM    2  C   UNL     1     -11.750   6.992  72.353  1.00  0.00    -0.252 C  
HETATM    3  H1  UNL     1      -9.393   9.210  69.164  1.00  0.00     0.000 HD 
HETATM    4  H   UNL     1     -12.095   9.288  70.078  1.00  0.00     0.000 HD 
HETATM    5  C   UNL     1     -10.324   7.388  72.726  1.00  0.00    -0.258 C  
HETATM    6  H2  UNL     1      -8.334   9.135  70.560  1.00  0.00     0.000 HD 
HETATM    7  N   UNL     1     -10.104   8.742  72.298  1.00  0.00    -0.291 NA 
HETATM    8  O   UNL     1     -10.128   7.313  74.120  1.00  0.00    -0.426 OA 
HETATM    9  N   UNL     1     -11.516   8.599  70.559  1.00  0.00    -0.233 NA 
HETATM   10  N   UNL     1      -9.276   9.094  70.170  1.00  0.00    -0.189 NA 
HETATM   11  H   UNL     1      -9.858   9.503  72.932  1.00  0.00     0.000 HD 
HETATM   12  C   UNL     1     -10.258   8.897  70.966  1.00  0.00    -0.254 C  
HETATM   13  H   UNL     1      -9.240   7.560  74.352  1.00  0.00     0.000 HD 
ENDROOT
BRANCH   1  14
HETATM   14  C   UNL     1     -11.391   6.174  69.876  1.00  0.00    -0.384 C  
HETATM   15  N   UNL     1      -7.051   5.901  71.975  1.00  0.00    -0.085 N  
HETATM   16  O   UNL     1      -9.838   5.585  72.473  1.00  0.00    -0.161 OA 
HETATM   17  C   UNL     1      -9.389   5.392  71.350  1.00  0.00    -0.147 C  
HETATM   18  C   UNL     1      -7.589   3.855  70.756  1.00  0.00    -0.044 C  
HETATM   19  N   UNL     1      -7.873  10.430  68.306  1.00  0.00    -0.103 N  
HETATM   20  H   UNL     1      -9.439   5.480  69.334  1.00  0.00     0.000 HD 
HETATM   21  N   UNL     1     -10.008   5.659  70.162  1.00  0.00    -0.192 N  
HETATM   22  H   UNL     1      -7.128   6.014  72.986  1.00  0.00     0.000 HD 
HETATM   23  C   UNL     1      -7.924   5.038  71.283  1.00  0.00    -0.109 C  
HETATM   24  C   UNL     1      -6.072   6.604  71.254  1.00  0.00    -0.036 C  
HETATM   25  O   UNL     1     -11.032   5.915  67.480  1.00  0.00    -0.282 OA 
HETATM   26  O   UNL     1      -5.129   6.061  70.682  1.00  0.00    -0.012 OA 
HETATM   27  N   UNL     1     -11.112   8.065  68.235  1.00  0.00    -0.335 N  
HETATM   28  CA  UNL     1      -6.378   8.132  71.109  1.00  0.00    -0.035 C  
HETATM   29  N   UNL     1      -5.528   8.891  70.164  1.00  0.00    -0.027 N  
HETATM   30  C   UNL     1     -10.689   8.699  66.982  1.00  0.00    -0.120 C  
HETATM   31  CA  UNL     1     -10.118  10.117  67.263  1.00  0.00    -0.206 C  
HETATM   32  H   UNL     1     -11.326   8.670  69.029  1.00  0.00     0.000 HD 
HETATM   33  H   UNL     1      -4.681   8.495  69.757  1.00  0.00     0.000 HD 
HETATM   34  O   UNL     1      -7.996  10.009  66.076  1.00  0.00    -0.111 OA 
HETATM   35  C   UNL     1      -5.964  10.191  69.867  1.00  0.00    -0.052 C  
HETATM   36  C   UNL     1      -8.577  10.138  67.154  1.00  0.00    -0.125 C  
HETATM   37  H   UNL     1      -8.404  10.647  69.151  1.00  0.00     0.000 HD 
HETATM   38  C   UNL     1     -11.239   6.702  68.405  1.00  0.00    -0.125 C  
HETATM   39  O   UNL     1      -6.292  10.962  70.772  1.00  0.00    -0.346 OA 
HETATM   40  CA  UNL     1      -6.384  10.448  68.391  1.00  0.00    -0.051 C  
BRANCH  18  41
HETATM   41  N   UNL     1      -6.336   3.306  70.875  1.00  0.00    -0.019 N  
HETATM   42  H   UNL     1      -5.912   3.258  71.801  1.00  0.00     0.000 HD 
BRANCH  41  43
HETATM   43  C   UNL     1      -5.633   2.822  69.812  1.00  0.00    -0.017 C  
HETATM   44  H2  UNL     1      -5.855   4.675  68.850  1.00  0.00     0.000 HD 
HETATM   45  N   UNL     1      -5.481   3.726  68.811  1.00  0.00    -0.012 N  
HETATM   46  H1  UNL     1      -4.955   3.364  68.016  1.00  0.00     0.000 HD 
HETATM   47  O   UNL     1      -5.153   1.698  69.722  1.00  0.00    -0.003 OA 
ENDBRANCH  41  43
ENDBRANCH  18  41
BRANCH  28  48
HETATM   48  C   UNL     1      -7.820   8.219  70.572  1.00  0.00    -0.087 C  
HETATM   49  O   UNL     1      -7.937   7.583  69.291  1.00  0.00    -0.116 OA 
HETATM   50  H   UNL     1      -8.826   7.636  68.959  1.00  0.00     0.000 HD 
ENDBRANCH  28  48
BRANCH  40  51
HETATM   51  CB  UNL     1      -5.840  11.806  67.936  1.00  0.00    -0.050 C  
HETATM   52  O   UNL     1      -5.733  11.920  66.516  1.00  0.00    -0.410 OA 
HETATM   53  H   UNL     1      -5.396  12.763  66.234  1.00  0.00     0.000 HD 
ENDBRANCH  40  51
BRANCH  31  54
HETATM   54  N   UNL     1     -10.679  11.129  66.359  1.00  0.00    -0.262 N  
HETATM   55  H   UNL     1     -10.372  11.156  65.387  1.00  0.00     0.000 HD 
HETATM   56  O   UNL     1     -12.036  12.028  67.954  1.00  0.00    -0.531 OA 
HETATM   57  C   UNL     1     -11.615  12.042  66.800  1.00  0.00    -0.321 C  
BRANCH  57  58
HETATM   58  C   UNL     1     -12.073  13.031  65.732  1.00  0.00    -0.510 C  
BRANCH  58  59
HETATM   59  C   UNL     1     -11.073  13.214  64.570  1.00  0.00    -0.356 C  
HETATM   60  H1  UNL     1     -11.130  13.462  62.525  1.00  0.00     0.000 HD 
HETATM   61  N   UNL     1     -11.791  13.342  63.293  1.00  0.00    -0.761 NA 
HETATM   62  H2  UNL     1     -12.484  14.090  63.320  1.00  0.00     0.000 HD 
BRANCH  59  63
HETATM   63  C   UNL     1     -10.187  14.473  64.723  1.00  0.00    -0.234 C  
BRANCH  63  64
HETATM   64  C   UNL     1     -10.944  15.695  65.254  1.00  0.00    -0.375 C  
BRANCH  64  65
HETATM   65  C   UNL     1     -10.116  16.484  66.269  1.00  0.00    -0.333 C  
HETATM   66  N   UNL     1     -10.738  16.387  67.585  1.00  0.00    -0.326 NA 
HETATM   67  H2  UNL     1     -10.882  15.419  67.874  1.00  0.00     0.000 HD 
HETATM   68  H1  UNL     1     -10.186  16.912  68.263  1.00  0.00     0.000 HD 
ENDBRANCH  64  65
ENDBRANCH  63  64
ENDBRANCH  59  63
ENDBRANCH  58  59
ENDBRANCH  57  58
ENDBRANCH  31  54
ENDBRANCH   1  14
TORSDOF 11
ENDMDL
MODEL       61
REMARK 921   NORMALIZED FREE ENERGY PREDICTED BY IDOCK:    1.35 KCAL/MOL
REMARK 922        TOTAL FREE ENERGY PREDICTED BY IDOCK:    0.27 KCAL/MOL
REMARK 923 INTER-LIGAND FREE ENERGY PREDICTED BY IDOCK:   -9.02 KCAL/MOL
REMARK 924 INTRA-LIGAND FREE ENERGY PREDICTED BY IDOCK:    9.29 KCAL/MOL
REMARK 927      BINDING AFFINITY PREDICTED BY RF-SCORE:    0.00 PKD
ROOT
HETATM    1  C   UNL     1     -12.076   6.914  71.140  1.00  0.00    -0.381 C  
HETATM    2  C   UNL     1     -11.870   6.208  72.514  1.00  0.00    -0.222 C  
HETATM    3  H1  UNL     1      -9.321   9.147  70.165  1.00  0.00     0.000 HD 
HETATM    4  H   UNL     1     -12.042   9.094  71.027  1.00  0.00     0.000 HD 
HETATM    5  C   UNL     1     -10.437   6.397  73.006  1.00  0.00    -0.230 C  
HETATM    6  H2  UNL     1      -8.307   8.602  71.488  1.00  0.00     0.000 HD 
HETATM    7  N   UNL     1     -10.142   7.804  73.006  1.00  0.00    -0.294 NA 
HETATM    8  O   UNL     1     -10.285   5.900  74.316  1.00  0.00    -0.249 OA 
HETATM    9  N   UNL     1     -11.509   8.262  71.287  1.00  0.00    -0.267 NA 
HETATM   10  N   UNL     1      -9.238   8.729  71.092  1.00  0.00    -0.214 NA 
HETATM   11  H   UNL     1      -9.878   8.326  73.842  1.00  0.00     0.000 HD 
HETATM   12  C   UNL     1     -10.251   8.357  71.780  1.00  0.00    -0.253 C  
HETATM   13  H   UNL     1      -9.393   6.017  74.622  1.00  0.00     0.000 HD 
ENDROOT
BRANCH   1  14
HETATM   14  C   UNL     1     -11.481   6.149  69.910  1.00  0.00    -0.301 C  
HETATM   15  N   UNL     1      -7.296   4.867  71.949  1.00  0.00    -0.077 N  
HETATM   16  O   UNL     1     -10.121   4.650  72.236  1.00  0.00    -0.177 OA 
HETATM   17  C   UNL     1      -9.625   4.778  71.124  1.00  0.00    -0.170 C  
HETATM   18  C   UNL     1      -7.909   3.355  70.131  1.00  0.00    -0.046 C  
HETATM   19  N   UNL     1      -7.586  10.366  69.870  1.00  0.00    -0.292 N  
HETATM   20  H   UNL     1      -9.555   5.494  69.237  1.00  0.00     0.000 HD 
HETATM   21  N   UNL     1     -10.156   5.454  70.062  1.00  0.00    -0.231 N  
HETATM   22  H   UNL     1      -7.422   4.665  72.941  1.00  0.00     0.000 HD 
HETATM   23  C   UNL     1      -8.188   4.339  70.994  1.00  0.00    -0.076 C  
HETATM   24  C   UNL     1      -6.231   5.673  71.516  1.00  0.00    -0.038 C  
HETATM   25  O   UNL     1     -11.007   6.620  67.567  1.00  0.00    -0.309 OA 
HETATM   26  O   UNL     1      -5.298   5.257  70.832  1.00  0.00    -0.004 OA 
HETATM   27  N   UNL     1     -10.976   8.426  68.958  1.00  0.00    -0.429 N  
HETATM   28  CA  UNL     1      -6.418   7.190  71.852  1.00  0.00    -0.044 C  
HETATM   29  N   UNL     1      -5.464   8.130  71.220  1.00  0.00    -0.033 N  
HETATM   30  C   UNL     1     -10.440   9.379  67.982  1.00  0.00    -0.228 C  
HETATM   31  CA  UNL     1      -9.785  10.586  68.712  1.00  0.00    -0.184 C  
HETATM   32  H   UNL     1     -11.191   8.769  69.894  1.00  0.00     0.000 HD 
HETATM   33  H   UNL     1      -4.627   7.811  70.735  1.00  0.00     0.000 HD 
HETATM   34  O   UNL     1      -7.613  10.673  67.619  1.00  0.00    -0.091 OA 
HETATM   35  C   UNL     1      -5.790   9.490  71.334  1.00  0.00    -0.067 C  
HETATM   36  C   UNL     1      -8.243  10.509  68.663  1.00  0.00    -0.130 C  
HETATM   37  H   UNL     1      -8.147  10.353  70.723  1.00  0.00     0.000 HD 
HETATM   38  C   UNL     1     -11.209   7.093  68.686  1.00  0.00     0.149 C  
HETATM   39  O   UNL     1      -6.112   9.966  72.425  1.00  0.00    -0.209 OA 
HETATM   40  CA  UNL     1      -6.107  10.229  70.002  1.00  0.00    -0.071 C  
BRANCH  18  41
HETATM   41  N   UNL     1      -6.707   2.692  70.110  1.00  0.00    -0.033 N  
HETATM   42  H   UNL     1      -6.301   2.392  70.996  1.00  0.00     0.000 HD 
BRANCH  41  43
HETATM   43  C   UNL     1      -6.032   2.415  68.958  1.00  0.00    -0.024 C  
HETATM   44  H2  UNL     1      -7.097   3.944  67.992  1.00  0.00     0.000 HD 
HETATM   45  N   UNL     1      -6.391   3.212  67.919  1.00  0.00    -0.032 N  
HETATM   46  H1  UNL     1      -5.886   3.005  67.058  1.00  0.00     0.000 HD 
HETATM   47  O   UNL     1      -5.168   1.557  68.822  1.00  0.00    -0.011 OA 
ENDBRANCH  41  43
ENDBRANCH  18  41
BRANCH  28  48
HETATM   48  C   UNL     1      -7.818   7.563  71.324  1.00  0.00    -0.094 C  
HETATM   49  O   UNL     1      -7.921   7.332  69.911  1.00  0.00    -0.116 OA 
HETATM   50  H   UNL     1      -8.783   7.561  69.586  1.00  0.00     0.000 HD 
ENDBRANCH  28  48
BRANCH  40  51
HETATM   51  CB  UNL     1      -5.442  11.610  70.015  1.00  0.00    -0.098 C  
HETATM   52  O   UNL     1      -5.988  12.485  71.004  1.00  0.00    -0.534 OA 
HETATM   53  H   UNL     1      -5.576  13.341  71.012  1.00  0.00     0.000 HD 
ENDBRANCH  40  51
BRANCH  31  54
HETATM   54  N   UNL     1     -10.222  11.872  68.157  1.00  0.00    -0.193 N  
HETATM   55  H   UNL     1      -9.629  12.350  67.478  1.00  0.00     0.000 HD 
HETATM   56  O   UNL     1     -12.177  11.895  69.328  1.00  0.00    -0.235 OA 
HETATM   57  C   UNL     1     -11.418  12.448  68.535  1.00  0.00    -0.306 C  
BRANCH  57  58
HETATM   58  C   UNL     1     -11.701  13.793  67.873  1.00  0.00    -0.395 C  
BRANCH  58  59
HETATM   59  C   UNL     1     -11.430  15.012  68.780  1.00  0.00    -0.319 C  
HETATM   60  H1  UNL     1     -10.778  15.377  70.701  1.00  0.00     0.000 HD 
HETATM   61  N   UNL     1     -10.956  14.571  70.101  1.00  0.00    -0.470 NA 
HETATM   62  H2  UNL     1     -10.141  13.962  70.029  1.00  0.00     0.000 HD 
BRANCH  59  63
HETATM   63  C   UNL     1     -10.359  15.970  68.208  1.00  0.00    -0.261 C  
BRANCH  63  64
HETATM   64  C   UNL     1      -9.105  16.080  69.081  1.00  0.00    -0.246 C  
BRANCH  64  65
HETATM   65  C   UNL     1      -7.983  15.163  68.590  1.00  0.00    -0.151 C  
HETATM   66  N   UNL     1      -8.125  13.848  69.205  1.00  0.00    -0.333 NA 
HETATM   67  H2  UNL     1      -9.049  13.446  69.046  1.00  0.00     0.000 HD 
HETATM   68  H1  UNL     1      -7.378  13.236  68.877  1.00  0.00     0.000 HD 
ENDBRANCH  64  65
ENDBRANCH  63  64
ENDBRANCH  59  63
ENDBRANCH  58  59
ENDBRANCH  57  58
ENDBRANCH  31  54
ENDBRANCH   1  14
TORSDOF 11
ENDMDL
MODEL       62
REMARK 921   NORMALIZED FREE ENERGY PREDICTED BY IDOCK:    1.52 KCAL/MOL
REMARK 922        TOTAL FREE ENERGY PREDICTED BY IDOCK:    0.54 KCAL/MOL
REMARK 923 INTER-LIGAND FREE ENERGY PREDICTED BY IDOCK:   -9.45 KCAL/MOL
REMARK 924 INTRA-LIGAND FREE ENERGY PREDICTED BY IDOCK:    9.99 KCAL/MOL
REMARK 927      BINDING AFFINITY PREDICTED BY RF-SCORE:    0.00 PKD
ROOT
HETATM    1  C   UNL     1      -5.565  10.511  67.749  1.00  0.00    -0.043 C  
HETATM    2  C   UNL     1      -5.588  11.942  68.362  1.00  0.00    -0.049 C  
HETATM    3  H1  UNL     1      -8.218   8.293  69.002  1.00  0.00     0.000 HD 
HETATM    4  H   UNL     1      -5.405   8.773  69.061  1.00  0.00     0.000 HD 
HETATM    5  C   UNL     1      -6.882  12.175  69.137  1.00  0.00    -0.078 C  
HETATM    6  H2  UNL     1      -9.025   9.603  69.842  1.00  0.00     0.000 HD 
HETATM    7  N   UNL     1      -7.033  11.113  70.093  1.00  0.00    -0.467 NA 
HETATM    8  O   UNL     1      -6.844  13.405  69.824  1.00  0.00    -0.332 OA 
HETATM    9  N   UNL     1      -5.961   9.598  68.832  1.00  0.00    -0.042 NA 
HETATM   10  N   UNL     1      -8.172   9.212  69.441  1.00  0.00    -0.114 NA 
HETATM   11  H   UNL     1      -7.089  11.263  71.101  1.00  0.00     0.000 HD 
HETATM   12  C   UNL     1      -7.094   9.896  69.512  1.00  0.00    -0.082 C  
HETATM   13  H   UNL     1      -7.650  13.550  70.306  1.00  0.00     0.000 HD 
ENDROOT
BRANCH   1  14
HETATM   14  C   UNL     1      -6.445  10.328  66.466  1.00  0.00    -0.080 C  
HETATM   15  N   UNL     1     -10.284  12.827  67.993  1.00  0.00    -0.222 N  
HETATM   16  O   UNL     1      -7.487  13.038  67.501  1.00  0.00    -0.141 OA 
HETATM   17  C   UNL     1      -8.165  12.247  66.859  1.00  0.00    -0.112 C  
HETATM   18  C   UNL     1     -10.159  12.774  65.555  1.00  0.00    -0.264 C  
HETATM   19  N   UNL     1      -9.871   7.280  69.919  1.00  0.00    -0.177 N  
HETATM   20  H   UNL     1      -8.513  10.487  65.933  1.00  0.00     0.000 HD 
HETATM   21  N   UNL     1      -7.778  11.020  66.399  1.00  0.00    -0.153 N  
HETATM   22  H   UNL     1      -9.997  13.615  68.574  1.00  0.00     0.000 HD 
HETATM   23  C   UNL     1      -9.636  12.568  66.769  1.00  0.00    -0.231 C  
HETATM   24  C   UNL     1     -11.331  11.985  68.402  1.00  0.00    -0.279 C  
HETATM   25  O   UNL     1      -7.296   8.479  65.126  1.00  0.00    -0.078 OA 
HETATM   26  O   UNL     1     -12.408  11.906  67.816  1.00  0.00    -0.365 OA 
HETATM   27  N   UNL     1      -6.902   8.003  67.321  1.00  0.00    -0.072 N  
HETATM   28  CA  UNL     1     -10.945  11.036  69.586  1.00  0.00    -0.225 C  
HETATM   29  N   UNL     1     -11.907   9.959  69.911  1.00  0.00    -0.456 N  
HETATM   30  C   UNL     1      -7.518   6.672  67.316  1.00  0.00    -0.092 C  
HETATM   31  CA  UNL     1      -7.911   6.257  68.762  1.00  0.00    -0.102 C  
HETATM   32  H   UNL     1      -6.488   8.336  68.192  1.00  0.00     0.000 HD 
HETATM   33  H   UNL     1     -12.845   9.930  69.515  1.00  0.00     0.000 HD 
HETATM   34  O   UNL     1     -10.230   5.591  68.442  1.00  0.00    -0.167 OA 
HETATM   35  C   UNL     1     -11.441   8.980  70.802  1.00  0.00    -0.282 C  
HETATM   36  C   UNL     1      -9.437   6.360  68.985  1.00  0.00    -0.129 C  
HETATM   37  H   UNL     1      -9.167   7.813  70.431  1.00  0.00     0.000 HD 
HETATM   38  C   UNL     1      -6.848   8.832  66.218  1.00  0.00    -0.074 C  
HETATM   39  O   UNL     1     -10.880   9.307  71.851  1.00  0.00    -0.351 OA 
HETATM   40  CA  UNL     1     -11.307   7.542  70.225  1.00  0.00    -0.199 C  
BRANCH  18  41
HETATM   41  N   UNL     1     -11.401  13.325  65.355  1.00  0.00    -0.293 N  
HETATM   42  H   UNL     1     -12.183  12.976  65.908  1.00  0.00     0.000 HD 
BRANCH  41  43
HETATM   43  C   UNL     1     -11.636  14.318  64.451  1.00  0.00    -0.344 C  
HETATM   44  H2  UNL     1     -12.721  12.960  63.274  1.00  0.00     0.000 HD 
HETATM   45  N   UNL     1     -12.375  13.913  63.387  1.00  0.00    -1.139 N  
HETATM   46  H1  UNL     1     -12.551  14.656  62.710  1.00  0.00     0.000 HD 
HETATM   47  O   UNL     1     -11.254  15.479  64.546  1.00  0.00    -0.393 OA 
ENDBRANCH  41  43
ENDBRANCH  18  41
BRANCH  28  48
HETATM   48  C   UNL     1      -9.637  10.343  69.154  1.00  0.00    -0.213 C  
HETATM   49  O   UNL     1      -9.829   9.566  67.962  1.00  0.00    -0.148 OA 
HETATM   50  H   UNL     1      -9.024   9.139  67.696  1.00  0.00     0.000 HD 
ENDBRANCH  28  48
BRANCH  40  51
HETATM   51  CB  UNL     1     -11.826   6.530  71.253  1.00  0.00    -0.329 C  
HETATM   52  O   UNL     1     -11.210   6.667  72.534  1.00  0.00    -0.253 OA 
HETATM   53  H   UNL     1     -11.532   6.040  73.172  1.00  0.00     0.000 HD 
ENDBRANCH  40  51
BRANCH  31  54
HETATM   54  N   UNL     1      -7.467   4.896  69.087  1.00  0.00    -0.053 N  
HETATM   55  H   UNL     1      -7.176   4.272  68.335  1.00  0.00     0.000 HD 
HETATM   56  O   UNL     1      -7.747   5.172  71.332  1.00  0.00    -0.098 OA 
HETATM   57  C   UNL     1      -7.434   4.446  70.391  1.00  0.00    -0.049 C  
BRANCH  57  58
HETATM   58  C   UNL     1      -6.965   3.002  70.542  1.00  0.00    -0.033 C  
BRANCH  58  59
HETATM   59  C   UNL     1      -8.111   1.971  70.619  1.00  0.00    -0.041 C  
HETATM   60  H1  UNL     1      -9.234   1.036  72.072  1.00  0.00     0.000 HD 
HETATM   61  N   UNL     1      -8.477   1.717  72.021  1.00  0.00    -0.052 NA 
HETATM   62  H2  UNL     1      -8.706   2.579  72.516  1.00  0.00     0.000 HD 
BRANCH  59  63
HETATM   63  C   UNL     1      -9.395   2.434  69.890  1.00  0.00    -0.174 C  
BRANCH  63  64
HETATM   64  C   UNL     1      -9.745   1.583  68.665  1.00  0.00    -0.112 C  
BRANCH  64  65
HETATM   65  C   UNL     1      -8.849   1.907  67.468  1.00  0.00    -0.123 C  
HETATM   66  N   UNL     1      -9.032   3.303  67.087  1.00  0.00    -0.143 NA 
HETATM   67  H2  UNL     1      -8.877   3.940  67.868  1.00  0.00     0.000 HD 
HETATM   68  H1  UNL     1      -8.434   3.519  66.289  1.00  0.00     0.000 HD 
ENDBRANCH  64  65
ENDBRANCH  63  64
ENDBRANCH  59  63
ENDBRANCH  58  59
ENDBRANCH  57  58
ENDBRANCH  31  54
ENDBRANCH   1  14
TORSDOF 11
ENDMDL
MODEL       63
REMARK 921   NORMALIZED FREE ENERGY PREDICTED BY IDOCK:    2.01 KCAL/MOL
REMARK 922        TOTAL FREE ENERGY PREDICTED BY IDOCK:    1.34 KCAL/MOL
REMARK 923 INTER-LIGAND FREE ENERGY PREDICTED BY IDOCK:   -3.30 KCAL/MOL
REMARK 924 INTRA-LIGAND FREE ENERGY PREDICTED BY IDOCK:    4.64 KCAL/MOL
REMARK 927      BINDING AFFINITY PREDICTED BY RF-SCORE:    0.00 PKD
ROOT
HETATM    1  C   UNL     1     -12.338   9.099  70.177  1.00  0.00     0.585 C  
HETATM    2  C   UNL     1     -12.082   8.603  68.723  1.00  0.00     2.742 C  
HETATM    3  H1  UNL     1     -11.120   6.812  72.787  1.00  0.00     0.000 HD 
HETATM    4  H   UNL     1     -13.478   7.854  71.562  1.00  0.00     0.000 HD 
HETATM    5  C   UNL     1     -11.132   7.407  68.722  1.00  0.00     0.151 C  
HETATM    6  H2  UNL     1     -10.287   5.801  71.622  1.00  0.00     0.000 HD 
HETATM    7  N   UNL     1     -11.662   6.409  69.610  1.00  0.00    -0.587 NA 
HETATM    8  O   UNL     1     -11.019   6.854  67.431  1.00  0.00    -0.421 OA 
HETATM    9  N   UNL     1     -12.648   7.899  70.968  1.00  0.00    -0.163 NA 
HETATM   10  N   UNL     1     -11.024   6.474  71.830  1.00  0.00    -0.238 NA 
HETATM   11  H   UNL     1     -11.914   5.466  69.315  1.00  0.00     0.000 HD 
HETATM   12  C   UNL     1     -11.789   6.856  70.878  1.00  0.00    -0.376 C  
HETATM   13  H   UNL     1     -10.428   6.110  67.431  1.00  0.00     0.000 HD 
ENDROOT
BRANCH   1  14
HETATM   14  C   UNL     1     -11.173   9.939  70.803  1.00  0.00    -0.353 C  
HETATM   15  N   UNL     1     -11.181  13.516  67.559  1.00  0.00    -0.274 N  
HETATM   16  O   UNL     1     -12.826  12.162  69.450  1.00  0.00     0.561 OA 
HETATM   17  C   UNL     1     -11.615  12.219  69.620  1.00  0.00    -0.278 C  
HETATM   18  C   UNL     1     -10.258  14.246  69.699  1.00  0.00     0.281 C  
HETATM   19  N   UNL     1      -8.356   8.598  65.984  1.00  0.00    -0.125 N  
HETATM   20  H   UNL     1      -9.821  11.477  70.176  1.00  0.00     0.000 HD 
HETATM   21  N   UNL     1     -10.819  11.261  70.181  1.00  0.00     0.162 N  
HETATM   22  H   UNL     1     -12.129  13.711  67.236  1.00  0.00     0.000 HD 
HETATM   23  C   UNL     1     -10.911  13.364  68.934  1.00  0.00    -0.248 C  
HETATM   24  C   UNL     1     -10.128  13.394  66.639  1.00  0.00    -0.275 C  
HETATM   25  O   UNL     1      -8.851   9.577  71.447  1.00  0.00    -0.209 OA 
HETATM   26  O   UNL     1      -9.189  14.185  66.572  1.00  0.00    -0.268 OA 
HETATM   27  N   UNL     1      -9.626   8.238  69.772  1.00  0.00    -0.170 N  
HETATM   28  CA  UNL     1     -10.172  12.068  65.808  1.00  0.00    -0.242 C  
HETATM   29  N   UNL     1      -8.974  11.754  64.997  1.00  0.00    -0.376 N  
HETATM   30  C   UNL     1      -8.332   7.649  69.417  1.00  0.00    -0.131 C  
HETATM   31  CA  UNL     1      -8.377   7.085  67.969  1.00  0.00    -0.119 C  
HETATM   32  H   UNL     1     -10.451   7.930  69.257  1.00  0.00     0.000 HD 
HETATM   33  H   UNL     1      -8.229  12.433  64.842  1.00  0.00     0.000 HD 
HETATM   34  O   UNL     1      -6.388   8.104  67.008  1.00  0.00    -0.054 OA 
HETATM   35  C   UNL     1      -8.930  10.461  64.456  1.00  0.00    -0.216 C  
HETATM   36  C   UNL     1      -7.614   7.996  66.982  1.00  0.00    -0.096 C  
HETATM   37  H   UNL     1      -9.352   8.383  65.933  1.00  0.00     0.000 HD 
HETATM   38  C   UNL     1      -9.797   9.186  70.761  1.00  0.00    -0.270 C  
HETATM   39  O   UNL     1      -9.910   9.998  63.866  1.00  0.00    -0.201 OA 
HETATM   40  CA  UNL     1      -7.789   9.542  64.978  1.00  0.00    -0.117 C  
BRANCH  18  41
HETATM   41  N   UNL     1      -9.809  15.457  69.234  1.00  0.00    -0.246 N  
HETATM   42  H   UNL     1     -10.495  16.146  68.927  1.00  0.00     0.000 HD 
BRANCH  41  43
HETATM   43  C   UNL     1      -8.486  15.781  69.164  1.00  0.00    -0.251 C  
HETATM   44  H2  UNL     1      -8.960  17.332  67.830  1.00  0.00     0.000 HD 
HETATM   45  N   UNL     1      -8.233  16.833  68.344  1.00  0.00    -0.215 N  
HETATM   46  H1  UNL     1      -7.244  17.076  68.291  1.00  0.00     0.000 HD 
HETATM   47  O   UNL     1      -7.578  15.223  69.769  1.00  0.00    -0.203 OA 
ENDBRANCH  41  43
ENDBRANCH  18  41
BRANCH  28  48
HETATM   48  C   UNL     1     -10.313  10.934  66.842  1.00  0.00    -0.238 C  
HETATM   49  O   UNL     1     -11.020   9.812  66.292  1.00  0.00     0.156 OA 
HETATM   50  H   UNL     1     -11.107   9.113  66.929  1.00  0.00     0.000 HD 
ENDBRANCH  28  48
BRANCH  40  51
HETATM   51  CB  UNL     1      -7.181   8.767  63.804  1.00  0.00    -0.096 C  
HETATM   52  O   UNL     1      -6.552   7.548  64.202  1.00  0.00    -0.047 OA 
HETATM   53  H   UNL     1      -6.176   7.068  63.473  1.00  0.00     0.000 HD 
ENDBRANCH  40  51
BRANCH  31  54
HETATM   54  N   UNL     1      -7.834   5.724  67.887  1.00  0.00    -0.097 N  
HETATM   55  H   UNL     1      -6.823   5.590  67.848  1.00  0.00     0.000 HD 
HETATM   56  O   UNL     1      -9.885   4.732  67.938  1.00  0.00    -0.158 OA 
HETATM   57  C   UNL     1      -8.664   4.621  67.863  1.00  0.00    -0.104 C  
BRANCH  57  58
HETATM   58  C   UNL     1      -7.929   3.288  67.757  1.00  0.00    -0.075 C  
BRANCH  58  59
HETATM   59  C   UNL     1      -7.134   3.109  66.446  1.00  0.00    -0.058 C  
HETATM   60  H1  UNL     1      -5.422   2.154  65.811  1.00  0.00     0.000 HD 
HETATM   61  N   UNL     1      -5.947   2.272  66.677  1.00  0.00    -0.022 NA 
HETATM   62  H2  UNL     1      -6.190   1.376  67.101  1.00  0.00     0.000 HD 
BRANCH  59  63
HETATM   63  C   UNL     1      -7.957   2.432  65.324  1.00  0.00    -0.079 C  
BRANCH  63  64
HETATM   64  C   UNL     1      -8.747   3.420  64.460  1.00  0.00    -0.101 C  
BRANCH  64  65
HETATM   65  C   UNL     1      -8.873   2.941  63.013  1.00  0.00    -0.088 C  
HETATM   66  N   UNL     1      -8.132   1.695  62.846  1.00  0.00    -0.056 NA 
HETATM   67  H2  UNL     1      -8.421   0.982  63.516  1.00  0.00     0.000 HD 
HETATM   68  H1  UNL     1      -8.217   1.375  61.882  1.00  0.00     0.000 HD 
ENDBRANCH  64  65
ENDBRANCH  63  64
ENDBRANCH  59  63
ENDBRANCH  58  59
ENDBRANCH  57  58
ENDBRANCH  31  54
ENDBRANCH   1  14
TORSDOF 11
ENDMDL
MODEL       64
REMARK 921   NORMALIZED FREE ENERGY PREDICTED BY IDOCK:    2.01 KCAL/MOL
REMARK 922        TOTAL FREE ENERGY PREDICTED BY IDOCK:    1.35 KCAL/MOL
REMARK 923 INTER-LIGAND FREE ENERGY PREDICTED BY IDOCK:   -3.70 KCAL/MOL
REMARK 924 INTRA-LIGAND FREE ENERGY PREDICTED BY IDOCK:    5.06 KCAL/MOL
REMARK 927      BINDING AFFINITY PREDICTED BY RF-SCORE:    0.00 PKD
ROOT
HETATM    1  C   UNL     1     -11.717  11.111  66.624  1.00  0.00     0.571 C  
HETATM    2  C   UNL     1     -11.178  11.670  67.975  1.00  0.00    -0.327 C  
HETATM    3  H1  UNL     1     -12.991  13.687  64.329  1.00  0.00     0.000 HD 
HETATM    4  H   UNL     1     -13.774  11.528  66.024  1.00  0.00     0.000 HD 
HETATM    5  C   UNL     1     -11.050  13.190  67.916  1.00  0.00    -0.262 C  
HETATM    6  H2  UNL     1     -12.386  14.992  65.333  1.00  0.00     0.000 HD 
HETATM    7  N   UNL     1     -12.315  13.734  67.506  1.00  0.00    -0.424 NA 
HETATM    8  O   UNL     1     -10.715  13.717  69.179  1.00  0.00    -0.354 OA 
HETATM    9  N   UNL     1     -12.876  11.945  66.273  1.00  0.00     1.949 NA 
HETATM   10  N   UNL     1     -12.698  14.025  65.246  1.00  0.00    -0.674 NA 
HETATM   11  H   UNL     1     -12.860  14.387  68.070  1.00  0.00     0.000 HD 
HETATM   12  C   UNL     1     -12.703  13.288  66.292  1.00  0.00     0.129 C  
HETATM   13  H   UNL     1     -10.635  14.663  69.142  1.00  0.00     0.000 HD 
ENDROOT
BRANCH   1  14
HETATM   14  C   UNL     1     -10.661  11.044  65.470  1.00  0.00    -0.200 C  
HETATM   15  N   UNL     1      -7.825   7.660  67.425  1.00  0.00    -0.116 N  
HETATM   16  O   UNL     1     -10.494   8.170  66.573  1.00  0.00    -0.252 OA 
HETATM   17  C   UNL     1      -9.558   8.752  66.040  1.00  0.00    -0.226 C  
HETATM   18  C   UNL     1      -7.615   7.712  64.992  1.00  0.00    -0.097 C  
HETATM   19  N   UNL     1      -7.044  13.150  69.399  1.00  0.00    -0.321 N  
HETATM   20  H   UNL     1      -8.652  10.351  65.204  1.00  0.00     0.000 HD 
HETATM   21  N   UNL     1      -9.553  10.031  65.560  1.00  0.00    -0.244 N  
HETATM   22  H   UNL     1      -8.378   6.980  67.948  1.00  0.00     0.000 HD 
HETATM   23  C   UNL     1      -8.221   8.061  66.133  1.00  0.00    -0.116 C  
HETATM   24  C   UNL     1      -6.659   8.208  67.983  1.00  0.00    -0.057 C  
HETATM   25  O   UNL     1      -9.197  12.594  64.290  1.00  0.00     0.533 OA 
HETATM   26  O   UNL     1      -5.531   8.000  67.542  1.00  0.00    -0.035 OA 
HETATM   27  N   UNL     1      -9.736  13.184  66.425  1.00  0.00    -0.267 N  
HETATM   28  CA  UNL     1      -6.938   9.240  69.127  1.00  0.00    -0.058 C  
HETATM   29  N   UNL     1      -5.783  10.037  69.596  1.00  0.00    -0.037 N  
HETATM   30  C   UNL     1      -8.804  14.310  66.528  1.00  0.00    -0.063 C  
HETATM   31  CA  UNL     1      -8.507  14.629  68.020  1.00  0.00    -0.154 C  
HETATM   32  H   UNL     1     -10.331  12.980  67.228  1.00  0.00     0.000 HD 
HETATM   33  H   UNL     1      -4.825   9.818  69.324  1.00  0.00     0.000 HD 
HETATM   34  O   UNL     1      -6.074  14.671  68.015  1.00  0.00    -0.131 OA 
HETATM   35  C   UNL     1      -6.092  11.114  70.440  1.00  0.00    -0.126 C  
HETATM   36  C   UNL     1      -7.102  14.139  68.436  1.00  0.00    -0.104 C  
HETATM   37  H   UNL     1      -7.922  12.824  69.804  1.00  0.00     0.000 HD 
HETATM   38  C   UNL     1      -9.858  12.383  65.308  1.00  0.00    -0.161 C  
HETATM   39  O   UNL     1      -6.849  10.956  71.401  1.00  0.00     0.993 OA 
HETATM   40  CA  UNL     1      -5.776  12.531  69.881  1.00  0.00    -0.124 C  
BRANCH  18  41
HETATM   41  N   UNL     1      -6.542   6.857  64.942  1.00  0.00    -0.042 N  
HETATM   42  H   UNL     1      -5.603   7.255  64.915  1.00  0.00     0.000 HD 
BRANCH  41  43
HETATM   43  C   UNL     1      -6.673   5.500  64.928  1.00  0.00    -0.044 C  
HETATM   44  H2  UNL     1      -4.822   5.333  65.905  1.00  0.00     0.000 HD 
HETATM   45  N   UNL     1      -5.627   4.852  65.502  1.00  0.00    -0.013 N  
HETATM   46  H1  UNL     1      -5.725   3.837  65.492  1.00  0.00     0.000 HD 
HETATM   47  O   UNL     1      -7.623   4.876  64.469  1.00  0.00    -0.073 OA 
ENDBRANCH  41  43
ENDBRANCH  18  41
BRANCH  28  48
HETATM   48  C   UNL     1      -7.956  10.241  68.545  1.00  0.00    -0.107 C  
HETATM   49  O   UNL     1      -9.074  10.420  69.428  1.00  0.00    -0.251 OA 
HETATM   50  H   UNL     1      -9.701  11.037  69.069  1.00  0.00     0.000 HD 
ENDBRANCH  28  48
BRANCH  40  51
HETATM   51  CB  UNL     1      -5.152  13.388  70.988  1.00  0.00    -0.140 C  
HETATM   52  O   UNL     1      -5.503  12.948  72.302  1.00  0.00    -0.385 OA 
HETATM   53  H   UNL     1      -5.115  13.479  72.988  1.00  0.00     0.000 HD 
ENDBRANCH  40  51
BRANCH  31  54
HETATM   54  N   UNL     1      -8.625  16.062  68.315  1.00  0.00    -0.175 N  
HETATM   55  H   UNL     1      -8.126  16.734  67.733  1.00  0.00     0.000 HD 
HETATM   56  O   UNL     1     -10.041  15.746  70.073  1.00  0.00    -0.278 OA 
HETATM   57  C   UNL     1      -9.399  16.517  69.363  1.00  0.00    -0.040 C  
BRANCH  57  58
HETATM   58  C   UNL     1      -9.390  18.033  69.534  1.00  0.00     0.524 C  
BRANCH  58  59
HETATM   59  C   UNL     1      -9.332  18.817  68.206  1.00  0.00    -0.337 C  
HETATM   60  H1  UNL     1      -9.770  20.713  67.527  1.00  0.00     0.000 HD 
HETATM   61  N   UNL     1      -9.808  20.195  68.405  1.00  0.00    -0.299 NA 
HETATM   62  H2  UNL     1      -9.299  20.670  69.150  1.00  0.00     0.000 HD 
BRANCH  59  63
HETATM   63  C   UNL     1      -7.905  18.910  67.616  1.00  0.00    -0.265 C  
BRANCH  63  64
HETATM   64  C   UNL     1      -7.650  20.196  66.824  1.00  0.00    -0.328 C  
BRANCH  64  65
HETATM   65  C   UNL     1      -6.407  20.086  65.939  1.00  0.00    -0.204 C  
HETATM   66  N   UNL     1      -6.514  21.028  64.830  1.00  0.00    -0.495 NA 
HETATM   67  H2  UNL     1      -6.675  21.983  65.150  1.00  0.00     0.000 HD 
HETATM   68  H1  UNL     1      -5.685  20.955  64.241  1.00  0.00     0.000 HD 
ENDBRANCH  64  65
ENDBRANCH  63  64
ENDBRANCH  59  63
ENDBRANCH  58  59
ENDBRANCH  57  58
ENDBRANCH  31  54
ENDBRANCH   1  14
TORSDOF 11
ENDMDL
MODEL       65
REMARK 921   NORMALIZED FREE ENERGY PREDICTED BY IDOCK:    3.15 KCAL/MOL
REMARK 922        TOTAL FREE ENERGY PREDICTED BY IDOCK:    3.22 KCAL/MOL
REMARK 923 INTER-LIGAND FREE ENERGY PREDICTED BY IDOCK:   -9.37 KCAL/MOL
REMARK 924 INTRA-LIGAND FREE ENERGY PREDICTED BY IDOCK:   12.59 KCAL/MOL
REMARK 927      BINDING AFFINITY PREDICTED BY RF-SCORE:    0.00 PKD
ROOT
HETATM    1  C   UNL     1      -8.669   8.276  73.147  1.00  0.00    -0.221 C  
HETATM    2  C   UNL     1      -7.644   7.596  74.102  1.00  0.00    -0.174 C  
HETATM    3  H1  UNL     1      -7.904   7.859  69.573  1.00  0.00     0.000 HD 
HETATM    4  H   UNL     1      -7.982   9.760  71.701  1.00  0.00     0.000 HD 
HETATM    5  C   UNL     1      -6.708   6.676  73.322  1.00  0.00    -0.075 C  
HETATM    6  H2  UNL     1      -6.623   6.708  69.902  1.00  0.00     0.000 HD 
HETATM    7  N   UNL     1      -6.118   7.434  72.253  1.00  0.00    -0.040 NA 
HETATM    8  O   UNL     1      -5.681   6.180  74.149  1.00  0.00    -0.051 OA 
HETATM    9  N   UNL     1      -7.888   8.793  72.013  1.00  0.00    -0.340 NA 
HETATM   10  N   UNL     1      -7.209   7.481  70.216  1.00  0.00    -0.063 NA 
HETATM   11  H   UNL     1      -5.113   7.578  72.148  1.00  0.00     0.000 HD 
HETATM   12  C   UNL     1      -7.039   7.934  71.401  1.00  0.00    -0.060 C  
HETATM   13  H   UNL     1      -5.100   5.608  73.663  1.00  0.00     0.000 HD 
ENDROOT
BRANCH   1  14
HETATM   14  C   UNL     1      -9.850   7.356  72.685  1.00  0.00    -0.178 C  
HETATM   15  N   UNL     1      -7.565   5.224  69.004  1.00  0.00    -0.077 N  
HETATM   16  O   UNL     1      -7.425   5.664  71.815  1.00  0.00    -0.089 OA 
HETATM   17  C   UNL     1      -8.511   5.640  71.251  1.00  0.00    -0.128 C  
HETATM   18  C   UNL     1      -9.381   3.833  69.860  1.00  0.00    -0.177 C  
HETATM   19  N   UNL     1      -9.769  10.575  67.932  1.00  0.00    -0.152 N  
HETATM   20  H   UNL     1     -10.405   6.260  70.930  1.00  0.00     0.000 HD 
HETATM   21  N   UNL     1      -9.614   6.384  71.562  1.00  0.00    -0.159 N  
HETATM   22  H   UNL     1      -6.577   5.088  69.219  1.00  0.00     0.000 HD 
HETATM   23  C   UNL     1      -8.555   4.882  69.947  1.00  0.00    -0.086 C  
HETATM   24  C   UNL     1      -7.957   5.752  67.764  1.00  0.00    -0.098 C  
HETATM   25  O   UNL     1     -12.174   7.631  72.006  1.00  0.00    -0.294 OA 
HETATM   26  O   UNL     1      -8.582   5.114  66.920  1.00  0.00    -0.107 OA 
HETATM   27  N   UNL     1     -10.821   9.428  71.629  1.00  0.00    -0.351 N  
HETATM   28  CA  UNL     1      -7.663   7.283  67.615  1.00  0.00    -0.112 C  
HETATM   29  N   UNL     1      -8.262   7.961  66.443  1.00  0.00    -0.116 N  
HETATM   30  C   UNL     1     -11.786  10.202  70.844  1.00  0.00    -0.374 C  
HETATM   31  CA  UNL     1     -11.047  11.251  69.966  1.00  0.00    -0.037 C  
HETATM   32  H   UNL     1      -9.904   9.840  71.803  1.00  0.00     0.000 HD 
HETATM   33  H   UNL     1      -8.696   7.444  65.679  1.00  0.00     0.000 HD 
HETATM   34  O   UNL     1     -12.025  10.807  67.783  1.00  0.00    -0.470 OA 
HETATM   35  C   UNL     1      -8.194   9.362  66.454  1.00  0.00    -0.111 C  
HETATM   36  C   UNL     1     -11.012  10.824  68.482  1.00  0.00    -0.243 C  
HETATM   37  H   UNL     1      -8.948  10.718  68.520  1.00  0.00     0.000 HD 
HETATM   38  C   UNL     1     -11.077   8.174  72.147  1.00  0.00    -0.321 C  
HETATM   39  O   UNL     1      -7.132   9.933  66.711  1.00  0.00    -0.087 OA 
HETATM   40  CA  UNL     1      -9.556  10.110  66.531  1.00  0.00    -0.187 C  
BRANCH  18  41
HETATM   41  N   UNL     1      -9.324   2.914  68.842  1.00  0.00    -0.167 N  
HETATM   42  H   UNL     1     -10.132   2.820  68.226  1.00  0.00     0.000 HD 
BRANCH  41  43
HETATM   43  C   UNL     1      -8.238   2.122  68.616  1.00  0.00    -0.056 C  
HETATM   44  H2  UNL     1      -8.411   2.509  66.560  1.00  0.00     0.000 HD 
HETATM   45  N   UNL     1      -7.902   2.031  67.304  1.00  0.00    -0.064 N  
HETATM   46  H1  UNL     1      -7.089   1.439  67.135  1.00  0.00     0.000 HD 
HETATM   47  O   UNL     1      -7.585   1.538  69.474  1.00  0.00    -0.042 OA 
ENDBRANCH  41  43
ENDBRANCH  18  41
BRANCH  28  48
HETATM   48  C   UNL     1      -8.272   7.946  68.866  1.00  0.00    -0.126 C  
HETATM   49  O   UNL     1      -9.700   7.801  68.891  1.00  0.00    -0.156 OA 
HETATM   50  H   UNL     1     -10.075   8.209  69.662  1.00  0.00     0.000 HD 
ENDBRANCH  28  48
BRANCH  40  51
HETATM   51  CB  UNL     1      -9.536  11.304  65.570  1.00  0.00    -0.228 C  
HETATM   52  O   UNL     1      -8.709  12.376  66.026  1.00  0.00    -0.407 OA 
HETATM   53  H   UNL     1      -8.697  13.116  65.429  1.00  0.00     0.000 HD 
ENDBRANCH  40  51
BRANCH  31  54
HETATM   54  N   UNL     1     -11.651  12.585  70.070  1.00  0.00    -0.530 N  
HETATM   55  H   UNL     1     -12.422  12.735  70.721  1.00  0.00     0.000 HD 
HETATM   56  O   UNL     1     -10.252  13.513  68.529  1.00  0.00    -0.237 OA 
HETATM   57  C   UNL     1     -11.197  13.639  69.305  1.00  0.00    -0.233 C  
BRANCH  57  58
HETATM   58  C   UNL     1     -11.953  14.945  69.529  1.00  0.00    -0.347 C  
BRANCH  58  59
HETATM   59  C   UNL     1     -11.060  16.204  69.506  1.00  0.00    -0.344 C  
HETATM   60  H1  UNL     1      -9.060  16.666  69.691  1.00  0.00     0.000 HD 
HETATM   61  N   UNL     1      -9.651  15.834  69.705  1.00  0.00    -0.225 NA 
HETATM   62  H2  UNL     1      -9.341  15.136  69.029  1.00  0.00     0.000 HD 
BRANCH  59  63
HETATM   63  C   UNL     1     -11.143  16.984  68.172  1.00  0.00    -0.163 C  
BRANCH  63  64
HETATM   64  C   UNL     1      -9.863  17.756  67.833  1.00  0.00    -0.306 C  
BRANCH  64  65
HETATM   65  C   UNL     1      -9.698  17.954  66.325  1.00  0.00    -0.269 C  
HETATM   66  N   UNL     1      -8.385  18.527  66.051  1.00  0.00    -0.495 NA 
HETATM   67  H2  UNL     1      -7.629  17.971  66.452  1.00  0.00     0.000 HD 
HETATM   68  H1  UNL     1      -8.274  18.658  65.046  1.00  0.00     0.000 HD 
ENDBRANCH  64  65
ENDBRANCH  63  64
ENDBRANCH  59  63
ENDBRANCH  58  59
ENDBRANCH  57  58
ENDBRANCH  31  54
ENDBRANCH   1  14
TORSDOF 11
ENDMDL
MODEL       66
REMARK 921   NORMALIZED FREE ENERGY PREDICTED BY IDOCK:    3.33 KCAL/MOL
REMARK 922        TOTAL FREE ENERGY PREDICTED BY IDOCK:    3.51 KCAL/MOL
REMARK 923 INTER-LIGAND FREE ENERGY PREDICTED BY IDOCK:   -0.30 KCAL/MOL
REMARK 924 INTRA-LIGAND FREE ENERGY PREDICTED BY IDOCK:    3.81 KCAL/MOL
REMARK 927      BINDING AFFINITY PREDICTED BY RF-SCORE:    0.00 PKD
ROOT
HETATM    1  C   UNL     1      -9.175  12.558  64.280  1.00  0.00     0.842 C  
HETATM    2  C   UNL     1      -8.006  11.745  64.912  1.00  0.00     1.683 C  
HETATM    3  H1  UNL     1     -11.569  10.519  62.371  1.00  0.00     0.000 HD 
HETATM    4  H   UNL     1      -9.507  12.478  62.123  1.00  0.00     0.000 HD 
HETATM    5  C   UNL     1      -8.283  10.247  64.823  1.00  0.00    -0.163 C  
HETATM    6  H2  UNL     1     -10.848   9.018  62.921  1.00  0.00     0.000 HD 
HETATM    7  N   UNL     1      -8.565   9.921  63.452  1.00  0.00    -0.185 NA 
HETATM    8  O   UNL     1      -7.165   9.501  65.248  1.00  0.00    -0.097 OA 
HETATM    9  N   UNL     1      -9.453  11.927  62.981  1.00  0.00    -0.301 NA 
HETATM   10  N   UNL     1     -10.759  10.017  62.735  1.00  0.00     2.015 NA 
HETATM   11  H   UNL     1      -8.015   9.259  62.903  1.00  0.00     0.000 HD 
HETATM   12  C   UNL     1      -9.636  10.585  62.970  1.00  0.00    -0.333 C  
HETATM   13  H   UNL     1      -7.338   8.569  65.192  1.00  0.00     0.000 HD 
ENDROOT
BRANCH   1  14
HETATM   14  C   UNL     1     -10.457  12.674  65.172  1.00  0.00    -0.296 C  
HETATM   15  N   UNL     1      -8.660  15.741  68.439  1.00  0.00    -0.166 N  
HETATM   16  O   UNL     1      -9.167  15.432  65.654  1.00  0.00    -0.250 OA 
HETATM   17  C   UNL     1      -9.869  14.854  66.473  1.00  0.00    -0.266 C  
HETATM   18  C   UNL     1     -11.094  15.887  68.314  1.00  0.00    -0.345 C  
HETATM   19  N   UNL     1      -7.249  10.072  69.158  1.00  0.00    -0.070 N  
HETATM   20  H   UNL     1     -10.946  13.292  67.163  1.00  0.00     0.000 HD 
HETATM   21  N   UNL     1     -10.444  13.622  66.338  1.00  0.00    -0.284 N  
HETATM   22  H   UNL     1      -8.013  16.399  68.003  1.00  0.00     0.000 HD 
HETATM   23  C   UNL     1      -9.910  15.471  67.849  1.00  0.00    -0.216 C  
HETATM   24  C   UNL     1      -8.314  15.092  69.636  1.00  0.00    -0.065 C  
HETATM   25  O   UNL     1     -11.947  11.163  66.369  1.00  0.00     0.084 OA 
HETATM   26  O   UNL     1      -8.891  15.284  70.704  1.00  0.00     0.942 OA 
HETATM   27  N   UNL     1      -9.810  10.419  66.090  1.00  0.00    -0.212 N  
HETATM   28  CA  UNL     1      -7.227  13.981  69.454  1.00  0.00     0.030 C  
HETATM   29  N   UNL     1      -6.987  13.093  70.614  1.00  0.00     0.891 N  
HETATM   30  C   UNL     1      -9.927   9.245  66.961  1.00  0.00    -0.224 C  
HETATM   31  CA  UNL     1      -8.520   8.787  67.437  1.00  0.00    -0.116 C  
HETATM   32  H   UNL     1      -8.918  10.582  65.623  1.00  0.00     0.000 HD 
HETATM   33  H   UNL     1      -7.372  13.290  71.538  1.00  0.00     0.000 HD 
HETATM   34  O   UNL     1      -8.868   8.631  69.841  1.00  0.00    -0.138 OA 
HETATM   35  C   UNL     1      -6.195  11.964  70.359  1.00  0.00     0.069 C  
HETATM   36  C   UNL     1      -8.268   9.172  68.912  1.00  0.00    -0.112 C  
HETATM   37  H   UNL     1      -6.700  10.403  68.364  1.00  0.00     0.000 HD 
HETATM   38  C   UNL     1     -10.834  11.317  65.866  1.00  0.00    -0.202 C  
HETATM   39  O   UNL     1      -5.128  12.075  69.750  1.00  0.00    -0.068 OA 
HETATM   40  CA  UNL     1      -6.901  10.587  70.514  1.00  0.00     0.118 C  
BRANCH  18  41
HETATM   41  N   UNL     1     -11.227  16.691  69.419  1.00  0.00    -0.296 N  
HETATM   42  H   UNL     1     -10.826  17.629  69.390  1.00  0.00     0.000 HD 
BRANCH  41  43
HETATM   43  C   UNL     1     -11.873  16.295  70.553  1.00  0.00    -0.035 C  
HETATM   44  H2  UNL     1     -13.446  15.559  69.373  1.00  0.00     0.000 HD 
HETATM   45  N   UNL     1     -13.068  15.698  70.311  1.00  0.00    -0.704 N  
HETATM   46  H1  UNL     1     -13.550  15.401  71.159  1.00  0.00     0.000 HD 
HETATM   47  O   UNL     1     -11.456  16.426  71.698  1.00  0.00    -0.381 OA 
ENDBRANCH  41  43
ENDBRANCH  18  41
BRANCH  28  48
HETATM   48  C   UNL     1      -7.737  13.083  68.310  1.00  0.00    -0.141 C  
HETATM   49  O   UNL     1      -6.654  12.616  67.492  1.00  0.00    -0.130 OA 
HETATM   50  H   UNL     1      -6.968  12.062  66.787  1.00  0.00     0.000 HD 
ENDBRANCH  28  48
BRANCH  40  51
HETATM   51  CB  UNL     1      -5.962   9.610  71.231  1.00  0.00    -0.053 C  
HETATM   52  O   UNL     1      -6.647   8.723  72.116  1.00  0.00    -0.124 OA 
HETATM   53  H   UNL     1      -6.064   8.117  72.560  1.00  0.00     0.000 HD 
ENDBRANCH  40  51
BRANCH  31  54
HETATM   54  N   UNL     1      -8.324   7.341  67.277  1.00  0.00    -0.118 N  
HETATM   55  H   UNL     1      -9.121   6.754  67.027  1.00  0.00     0.000 HD 
HETATM   56  O   UNL     1      -6.092   7.432  67.728  1.00  0.00    -0.036 OA 
HETATM   57  C   UNL     1      -7.085   6.761  67.456  1.00  0.00    -0.085 C  
BRANCH  57  58
HETATM   58  C   UNL     1      -7.071   5.247  67.268  1.00  0.00    -0.070 C  
BRANCH  58  59
HETATM   59  C   UNL     1      -7.915   4.475  68.304  1.00  0.00    -0.080 C  
HETATM   60  H1  UNL     1      -9.396   4.878  69.680  1.00  0.00     0.000 HD 
HETATM   61  N   UNL     1      -8.838   5.388  68.995  1.00  0.00    -0.100 NA 
HETATM   62  H2  UNL     1      -9.422   5.907  68.338  1.00  0.00     0.000 HD 
BRANCH  59  63
HETATM   63  C   UNL     1      -8.772   3.351  67.675  1.00  0.00    -0.131 C  
BRANCH  63  64
HETATM   64  C   UNL     1      -9.469   3.766  66.375  1.00  0.00    -0.197 C  
BRANCH  64  65
HETATM   65  C   UNL     1      -9.320   2.706  65.283  1.00  0.00    -0.080 C  
HETATM   66  N   UNL     1      -9.055   3.357  64.004  1.00  0.00    -0.107 NA 
HETATM   67  H2  UNL     1      -8.249   3.980  64.049  1.00  0.00     0.000 HD 
HETATM   68  H1  UNL     1      -8.956   2.650  63.276  1.00  0.00     0.000 HD 
ENDBRANCH  64  65
ENDBRANCH  63  64
ENDBRANCH  59  63
ENDBRANCH  58  59
ENDBRANCH  57  58
ENDBRANCH  31  54
ENDBRANCH   1  14
TORSDOF 11
ENDMDL
MODEL       67
REMARK 921   NORMALIZED FREE ENERGY PREDICTED BY IDOCK:    3.44 KCAL/MOL
REMARK 922        TOTAL FREE ENERGY PREDICTED BY IDOCK:    3.70 KCAL/MOL
REMARK 923 INTER-LIGAND FREE ENERGY PREDICTED BY IDOCK:   -7.32 KCAL/MOL
REMARK 924 INTRA-LIGAND FREE ENERGY PREDICTED BY IDOCK:   11.02 KCAL/MOL
REMARK 927      BINDING AFFINITY PREDICTED BY RF-SCORE:    0.00 PKD
ROOT
HETATM    1  C   UNL     1     -10.068  14.010  70.578  1.00  0.00     2.265 C  
HETATM    2  C   UNL     1     -11.193  15.020  70.954  1.00  0.00    -0.268 C  
HETATM    3  H1  UNL     1     -10.328  12.667  67.164  1.00  0.00     0.000 HD 
HETATM    4  H   UNL     1     -10.596  11.995  69.925  1.00  0.00     0.000 HD 
HETATM    5  C   UNL     1     -11.986  15.428  69.715  1.00  0.00    -0.358 C  
HETATM    6  H2  UNL     1     -11.607  13.788  66.736  1.00  0.00     0.000 HD 
HETATM    7  N   UNL     1     -12.448  14.235  69.061  1.00  0.00    -0.538 NA 
HETATM    8  O   UNL     1     -13.100  16.215  70.066  1.00  0.00    -0.497 OA 
HETATM    9  N   UNL     1     -10.703  12.991  69.729  1.00  0.00     0.437 NA 
HETATM   10  N   UNL     1     -11.093  13.276  67.454  1.00  0.00    -0.271 NA 
HETATM   11  H   UNL     1     -13.433  14.021  68.903  1.00  0.00     0.000 HD 
HETATM   12  C   UNL     1     -11.436  13.428  68.677  1.00  0.00    -0.310 C  
HETATM   13  H   UNL     1     -13.594  16.469  69.295  1.00  0.00     0.000 HD 
ENDROOT
BRANCH   1  14
HETATM   14  C   UNL     1      -8.809  14.647  69.900  1.00  0.00     0.633 C  
HETATM   15  N   UNL     1     -11.159  17.414  66.716  1.00  0.00     0.210 N  
HETATM   16  O   UNL     1     -10.880  16.895  69.503  1.00  0.00    -0.303 OA 
HETATM   17  C   UNL     1      -9.942  16.690  68.743  1.00  0.00    -0.265 C  
HETATM   18  C   UNL     1      -8.939  18.303  67.212  1.00  0.00    -0.259 C  
HETATM   19  N   UNL     1     -10.524  11.748  65.252  1.00  0.00    -0.263 N  
HETATM   20  H   UNL     1      -8.341  15.660  68.071  1.00  0.00     0.000 HD 
HETATM   21  N   UNL     1      -9.010  15.696  68.842  1.00  0.00    -0.204 N  
HETATM   22  H   UNL     1     -12.030  17.766  67.114  1.00  0.00     0.000 HD 
HETATM   23  C   UNL     1      -9.960  17.473  67.455  1.00  0.00    -0.315 C  
HETATM   24  C   UNL     1     -11.139  16.863  65.424  1.00  0.00     0.089 C  
HETATM   25  O   UNL     1      -6.782  13.868  68.795  1.00  0.00    -0.089 OA 
HETATM   26  O   UNL     1     -10.546  17.374  64.477  1.00  0.00    -0.001 OA 
HETATM   27  N   UNL     1      -8.569  12.455  68.682  1.00  0.00    -0.361 N  
HETATM   28  CA  UNL     1     -11.809  15.451  65.335  1.00  0.00     0.180 C  
HETATM   29  N   UNL     1     -11.614  14.704  64.072  1.00  0.00    -0.625 N  
HETATM   30  C   UNL     1      -7.976  11.512  67.729  1.00  0.00    -0.128 C  
HETATM   31  CA  UNL     1      -9.092  10.704  67.008  1.00  0.00    -0.144 C  
HETATM   32  H   UNL     1      -9.509  12.261  69.027  1.00  0.00     0.000 HD 
HETATM   33  H   UNL     1     -11.219  15.139  63.239  1.00  0.00     0.000 HD 
HETATM   34  O   UNL     1      -8.455  11.003  64.679  1.00  0.00    -0.008 OA 
HETATM   35  C   UNL     1     -12.010  13.358  64.097  1.00  0.00    -0.450 C  
HETATM   36  C   UNL     1      -9.296  11.192  65.557  1.00  0.00    -0.223 C  
HETATM   37  H   UNL     1     -11.233  11.775  65.985  1.00  0.00     0.000 HD 
HETATM   38  C   UNL     1      -7.931  13.590  69.141  1.00  0.00     0.329 C  
HETATM   39  O   UNL     1     -13.112  13.040  64.551  1.00  0.00    -0.693 OA 
HETATM   40  CA  UNL     1     -10.874  12.311  63.916  1.00  0.00    -0.412 C  
BRANCH  18  41
HETATM   41  N   UNL     1      -8.962  19.254  66.221  1.00  0.00    -0.347 N  
HETATM   42  H   UNL     1      -8.193  19.278  65.551  1.00  0.00     0.000 HD 
BRANCH  41  43
HETATM   43  C   UNL     1      -9.966  20.168  66.093  1.00  0.00    -0.414 C  
HETATM   44  H2  UNL     1      -9.342  21.072  67.882  1.00  0.00     0.000 HD 
HETATM   45  N   UNL     1     -10.001  21.074  67.103  1.00  0.00    -0.389 N  
HETATM   46  H1  UNL     1     -10.752  21.758  67.007  1.00  0.00     0.000 HD 
HETATM   47  O   UNL     1     -10.773  20.221  65.172  1.00  0.00    -0.150 OA 
ENDBRANCH  41  43
ENDBRANCH  18  41
BRANCH  28  48
HETATM   48  C   UNL     1     -11.156  14.610  66.450  1.00  0.00    -0.334 C  
HETATM   49  O   UNL     1      -9.742  14.480  66.243  1.00  0.00    -0.281 OA 
HETATM   50  H   UNL     1      -9.339  13.962  66.930  1.00  0.00     0.000 HD 
ENDBRANCH  28  48
BRANCH  40  51
HETATM   51  CB  UNL     1     -11.354  11.198  62.978  1.00  0.00     0.642 C  
HETATM   52  O   UNL     1     -12.765  11.218  62.760  1.00  0.00    -0.876 OA 
HETATM   53  H   UNL     1     -13.062  10.527  62.177  1.00  0.00     0.000 HD 
ENDBRANCH  40  51
BRANCH  31  54
HETATM   54  N   UNL     1      -8.813   9.263  66.998  1.00  0.00    -0.123 N  
HETATM   55  H   UNL     1      -8.347   8.850  66.189  1.00  0.00     0.000 HD 
HETATM   56  O   UNL     1      -9.702   8.915  69.067  1.00  0.00    -0.165 OA 
HETATM   57  C   UNL     1      -9.167   8.456  68.060  1.00  0.00    -0.136 C  
BRANCH  57  58
HETATM   58  C   UNL     1      -8.818   6.983  67.870  1.00  0.00    -0.124 C  
BRANCH  58  59
HETATM   59  C   UNL     1     -10.031   6.032  67.952  1.00  0.00    -0.131 C  
HETATM   60  H1  UNL     1     -12.086   6.159  67.861  1.00  0.00     0.000 HD 
HETATM   61  N   UNL     1     -11.284   6.788  67.806  1.00  0.00    -0.581 NA 
HETATM   62  H2  UNL     1     -11.295   7.345  66.952  1.00  0.00     0.000 HD 
BRANCH  59  63
HETATM   63  C   UNL     1     -10.025   4.943  66.853  1.00  0.00    -0.244 C  
BRANCH  63  64
HETATM   64  C   UNL     1      -9.253   5.347  65.593  1.00  0.00    -0.125 C  
BRANCH  64  65
HETATM   65  C   UNL     1      -9.458   4.349  64.452  1.00  0.00    -0.116 C  
HETATM   66  N   UNL     1     -10.861   3.953  64.398  1.00  0.00    -0.579 NA 
HETATM   67  H2  UNL     1     -11.486   4.757  64.325  1.00  0.00     0.000 HD 
HETATM   68  H1  UNL     1     -10.999   3.288  63.637  1.00  0.00     0.000 HD 
ENDBRANCH  64  65
ENDBRANCH  63  64
ENDBRANCH  59  63
ENDBRANCH  58  59
ENDBRANCH  57  58
ENDBRANCH  31  54
ENDBRANCH   1  14
TORSDOF 11
ENDMDL
MODEL       68
REMARK 921   NORMALIZED FREE ENERGY PREDICTED BY IDOCK:    3.81 KCAL/MOL
REMARK 922        TOTAL FREE ENERGY PREDICTED BY IDOCK:    4.30 KCAL/MOL
REMARK 923 INTER-LIGAND FREE ENERGY PREDICTED BY IDOCK:   -0.76 KCAL/MOL
REMARK 924 INTRA-LIGAND FREE ENERGY PREDICTED BY IDOCK:    5.06 KCAL/MOL
REMARK 927      BINDING AFFINITY PREDICTED BY RF-SCORE:    0.00 PKD
ROOT
HETATM    1  C   UNL     1     -11.420   7.066  70.879  1.00  0.00    -0.308 C  
HETATM    2  C   UNL     1     -10.191   7.958  71.228  1.00  0.00    -0.218 C  
HETATM    3  H1  UNL     1     -14.288   8.919  69.512  1.00  0.00     0.000 HD 
HETATM    4  H   UNL     1     -13.356   7.483  71.797  1.00  0.00     0.000 HD 
HETATM    5  C   UNL     1     -10.368   9.363  70.658  1.00  0.00    -0.284 C  
HETATM    6  H2  UNL     1     -13.362  10.401  69.370  1.00  0.00     0.000 HD 
HETATM    7  N   UNL     1     -11.629   9.879  71.112  1.00  0.00    -0.370 NA 
HETATM    8  O   UNL     1      -9.339  10.219  71.100  1.00  0.00     0.365 OA 
HETATM    9  N   UNL     1     -12.609   7.863  71.214  1.00  0.00    -0.282 NA 
HETATM   10  N   UNL     1     -13.499   9.492  69.812  1.00  0.00     1.552 NA 
HETATM   11  H   UNL     1     -11.725  10.727  71.672  1.00  0.00     0.000 HD 
HETATM   12  C   UNL     1     -12.674   9.121  70.716  1.00  0.00     0.091 C  
HETATM   13  H   UNL     1      -9.449  11.094  70.745  1.00  0.00     0.000 HD 
ENDROOT
BRANCH   1  14
HETATM   14  C   UNL     1     -11.454   6.537  69.405  1.00  0.00    -0.281 C  
HETATM   15  N   UNL     1      -6.938   4.832  69.259  1.00  0.00    -0.050 N  
HETATM   16  O   UNL     1      -9.405   4.608  70.665  1.00  0.00    -0.133 OA 
HETATM   17  C   UNL     1      -9.399   4.935  69.485  1.00  0.00    -0.130 C  
HETATM   18  C   UNL     1      -8.379   3.698  67.645  1.00  0.00    -0.093 C  
HETATM   19  N   UNL     1      -7.547  10.627  68.428  1.00  0.00    -0.095 N  
HETATM   20  H   UNL     1     -10.043   5.991  67.889  1.00  0.00     0.000 HD 
HETATM   21  N   UNL     1     -10.253   5.806  68.871  1.00  0.00    -0.185 N  
HETATM   22  H   UNL     1      -6.665   4.450  70.164  1.00  0.00     0.000 HD 
HETATM   23  C   UNL     1      -8.188   4.507  68.694  1.00  0.00    -0.081 C  
HETATM   24  C   UNL     1      -6.075   5.689  68.558  1.00  0.00    -0.025 C  
HETATM   25  O   UNL     1     -11.941   7.432  67.192  1.00  0.00     1.823 OA 
HETATM   26  O   UNL     1      -5.547   5.395  67.487  1.00  0.00    -0.012 OA 
HETATM   27  N   UNL     1     -11.176   8.944  68.718  1.00  0.00    -0.341 N  
HETATM   28  CA  UNL     1      -5.968   7.119  69.185  1.00  0.00    -0.022 C  
HETATM   29  N   UNL     1      -5.274   8.147  68.375  1.00  0.00    -0.031 N  
HETATM   30  C   UNL     1     -11.002  10.056  67.778  1.00  0.00    -0.249 C  
HETATM   31  CA  UNL     1      -9.997  11.094  68.354  1.00  0.00    -0.187 C  
HETATM   32  H   UNL     1     -10.955   9.108  69.700  1.00  0.00     0.000 HD 
HETATM   33  H   UNL     1      -4.742   7.911  67.538  1.00  0.00     0.000 HD 
HETATM   34  O   UNL     1      -8.466  11.352  66.480  1.00  0.00    -0.167 OA 
HETATM   35  C   UNL     1      -5.398   9.466  68.837  1.00  0.00    -0.037 C  
HETATM   36  C   UNL     1      -8.625  11.004  67.650  1.00  0.00    -0.125 C  
HETATM   37  H   UNL     1      -7.707  10.463  69.423  1.00  0.00     0.000 HD 
HETATM   38  C   UNL     1     -11.622   7.689  68.354  1.00  0.00     1.269 C  
HETATM   39  O   UNL     1      -5.199   9.733  70.025  1.00  0.00    -0.032 OA 
HETATM   40  CA  UNL     1      -6.163  10.446  67.902  1.00  0.00    -0.059 C  
BRANCH  18  41
HETATM   41  N   UNL     1      -7.358   3.033  67.013  1.00  0.00    -0.061 N  
HETATM   42  H   UNL     1      -6.606   2.643  67.581  1.00  0.00     0.000 HD 
BRANCH  41  43
HETATM   43  C   UNL     1      -7.305   2.868  65.660  1.00  0.00    -0.071 C  
HETATM   44  H2  UNL     1      -9.150   1.869  65.732  1.00  0.00     0.000 HD 
HETATM   45  N   UNL     1      -8.379   2.208  65.156  1.00  0.00    -0.082 N  
HETATM   46  H1  UNL     1      -8.339   2.085  64.144  1.00  0.00     0.000 HD 
HETATM   47  O   UNL     1      -6.409   3.266  64.925  1.00  0.00    -0.023 OA 
ENDBRANCH  41  43
ENDBRANCH  18  41
BRANCH  28  48
HETATM   48  C   UNL     1      -7.420   7.605  69.363  1.00  0.00    -0.089 C  
HETATM   49  O   UNL     1      -7.567   8.379  70.563  1.00  0.00    -0.067 OA 
HETATM   50  H   UNL     1      -8.461   8.679  70.672  1.00  0.00     0.000 HD 
ENDBRANCH  28  48
BRANCH  40  51
HETATM   51  CB  UNL     1      -5.428  11.790  67.862  1.00  0.00    -0.051 C  
HETATM   52  O   UNL     1      -6.248  12.864  67.397  1.00  0.00    -0.173 OA 
HETATM   53  H   UNL     1      -5.791  13.697  67.373  1.00  0.00     0.000 HD 
ENDBRANCH  40  51
BRANCH  31  54
HETATM   54  N   UNL     1     -10.502  12.468  68.252  1.00  0.00    -0.228 N  
HETATM   55  H   UNL     1     -11.441  12.630  67.887  1.00  0.00     0.000 HD 
HETATM   56  O   UNL     1      -8.608  13.396  69.115  1.00  0.00     0.304 OA 
HETATM   57  C   UNL     1      -9.732  13.545  68.642  1.00  0.00    -0.101 C  
BRANCH  57  58
HETATM   58  C   UNL     1     -10.409  14.899  68.448  1.00  0.00    -0.233 C  
BRANCH  58  59
HETATM   59  C   UNL     1     -10.528  15.339  66.974  1.00  0.00    -0.292 C  
HETATM   60  H1  UNL     1     -11.095  17.016  65.918  1.00  0.00     0.000 HD 
HETATM   61  N   UNL     1     -11.016  16.724  66.892  1.00  0.00    -0.019 NA 
HETATM   62  H2  UNL     1     -10.436  17.365  67.435  1.00  0.00     0.000 HD 
BRANCH  59  63
HETATM   63  C   UNL     1      -9.182  15.285  66.212  1.00  0.00    -0.350 C  
BRANCH  63  64
HETATM   64  C   UNL     1      -8.526  16.657  66.028  1.00  0.00    -0.198 C  
BRANCH  64  65
HETATM   65  C   UNL     1      -7.409  16.898  67.045  1.00  0.00    -0.193 C  
HETATM   66  N   UNL     1      -7.082  15.644  67.715  1.00  0.00    -0.138 NA 
HETATM   67  H2  UNL     1      -6.848  14.903  67.054  1.00  0.00     0.000 HD 
HETATM   68  H1  UNL     1      -6.337  15.804  68.393  1.00  0.00     0.000 HD 
ENDBRANCH  64  65
ENDBRANCH  63  64
ENDBRANCH  59  63
ENDBRANCH  58  59
ENDBRANCH  57  58
ENDBRANCH  31  54
ENDBRANCH   1  14
TORSDOF 11
ENDMDL
MODEL       69
REMARK 921   NORMALIZED FREE ENERGY PREDICTED BY IDOCK:    3.81 KCAL/MOL
REMARK 922        TOTAL FREE ENERGY PREDICTED BY IDOCK:    4.31 KCAL/MOL
REMARK 923 INTER-LIGAND FREE ENERGY PREDICTED BY IDOCK:   -5.75 KCAL/MOL
REMARK 924 INTRA-LIGAND FREE ENERGY PREDICTED BY IDOCK:   10.06 KCAL/MOL
REMARK 927      BINDING AFFINITY PREDICTED BY RF-SCORE:    0.00 PKD
ROOT
HETATM    1  C   UNL     1     -10.139  13.982  70.487  1.00  0.00     2.265 C  
HETATM    2  C   UNL     1     -11.274  15.001  70.801  1.00  0.00    -0.273 C  
HETATM    3  H1  UNL     1     -10.266  12.589  67.085  1.00  0.00     0.000 HD 
HETATM    4  H   UNL     1     -10.647  11.959  69.842  1.00  0.00     0.000 HD 
HETATM    5  C   UNL     1     -12.015  15.393  69.526  1.00  0.00    -0.334 C  
HETATM    6  H2  UNL     1     -11.523  13.707  66.590  1.00  0.00     0.000 HD 
HETATM    7  N   UNL     1     -12.454  14.191  68.871  1.00  0.00    -0.490 NA 
HETATM    8  O   UNL     1     -13.140  16.189  69.820  1.00  0.00    -0.431 OA 
HETATM    9  N   UNL     1     -10.743  12.952  69.628  1.00  0.00     0.312 NA 
HETATM   10  N   UNL     1     -11.039  13.205  67.334  1.00  0.00    -0.267 NA 
HETATM   11  H   UNL     1     -13.433  13.978  68.678  1.00  0.00     0.000 HD 
HETATM   12  C   UNL     1     -11.431  13.376  68.541  1.00  0.00    -0.310 C  
HETATM   13  H   UNL     1     -13.601  16.432  69.026  1.00  0.00     0.000 HD 
ENDROOT
BRANCH   1  14
HETATM   14  C   UNL     1      -8.850  14.606  69.850  1.00  0.00     0.633 C  
HETATM   15  N   UNL     1     -11.069  17.560  66.741  1.00  0.00     0.199 N  
HETATM   16  O   UNL     1     -10.848  16.929  69.510  1.00  0.00    -0.303 OA 
HETATM   17  C   UNL     1      -9.905  16.724  68.756  1.00  0.00    -0.264 C  
HETATM   18  C   UNL     1      -8.831  18.361  67.300  1.00  0.00    -0.259 C  
HETATM   19  N   UNL     1     -10.583  11.936  65.073  1.00  0.00    -0.277 N  
HETATM   20  H   UNL     1      -8.326  15.671  68.067  1.00  0.00     0.000 HD 
HETATM   21  N   UNL     1      -9.005  15.699  68.829  1.00  0.00    -0.190 N  
HETATM   22  H   UNL     1     -11.935  17.924  67.140  1.00  0.00     0.000 HD 
HETATM   23  C   UNL     1      -9.881  17.555  67.497  1.00  0.00    -0.293 C  
HETATM   24  C   UNL     1     -11.047  17.057  65.430  1.00  0.00     0.127 C  
HETATM   25  O   UNL     1      -6.832  13.806  68.744  1.00  0.00    -0.095 OA 
HETATM   26  O   UNL     1     -10.425  17.585  64.510  1.00  0.00     0.470 OA 
HETATM   27  N   UNL     1      -8.659  12.454  68.554  1.00  0.00    -0.331 N  
HETATM   28  CA  UNL     1     -11.758  15.671  65.279  1.00  0.00     0.207 C  
HETATM   29  N   UNL     1     -11.567  14.966  63.991  1.00  0.00    -0.666 N  
HETATM   30  C   UNL     1      -8.081  11.530  67.574  1.00  0.00    -0.137 C  
HETATM   31  CA  UNL     1      -9.209  10.783  66.808  1.00  0.00    -0.157 C  
HETATM   32  H   UNL     1      -9.609  12.276  68.878  1.00  0.00     0.000 HD 
HETATM   33  H   UNL     1     -11.147  15.419  63.180  1.00  0.00     0.000 HD 
HETATM   34  O   UNL     1      -8.529  11.149  64.500  1.00  0.00     0.100 OA 
HETATM   35  C   UNL     1     -12.003  13.633  63.960  1.00  0.00    -0.431 C  
HETATM   36  C   UNL     1      -9.378  11.331  65.374  1.00  0.00    -0.210 C  
HETATM   37  H   UNL     1     -11.302  11.957  65.797  1.00  0.00     0.000 HD 
HETATM   38  C   UNL     1      -7.994  13.552  69.064  1.00  0.00     0.199 C  
HETATM   39  O   UNL     1     -13.121  13.332  64.386  1.00  0.00    -0.510 OA 
HETATM   40  CA  UNL     1     -10.897  12.559  63.755  1.00  0.00    -0.446 C  
BRANCH  18  41
HETATM   41  N   UNL     1      -8.811  19.349  66.346  1.00  0.00    -0.349 N  
HETATM   42  H   UNL     1      -9.578  19.393  65.675  1.00  0.00     0.000 HD 
BRANCH  41  43
HETATM   43  C   UNL     1      -7.813  20.273  66.255  1.00  0.00    -0.182 C  
HETATM   44  H2  UNL     1      -8.025  20.263  64.167  1.00  0.00     0.000 HD 
HETATM   45  N   UNL     1      -7.535  20.641  64.978  1.00  0.00    -0.363 N  
HETATM   46  H1  UNL     1      -6.789  21.333  64.910  1.00  0.00     0.000 HD 
HETATM   47  O   UNL     1      -7.204  20.767  67.198  1.00  0.00    -0.317 OA 
ENDBRANCH  41  43
ENDBRANCH  18  41
BRANCH  28  48
HETATM   48  C   UNL     1     -11.147  14.769  66.369  1.00  0.00    -0.340 C  
HETATM   49  O   UNL     1      -9.742  14.570  66.153  1.00  0.00    -0.294 OA 
HETATM   50  H   UNL     1      -9.365  14.015  66.826  1.00  0.00     0.000 HD 
ENDBRANCH  28  48
BRANCH  40  51
HETATM   51  CB  UNL     1     -11.395  11.496  62.768  1.00  0.00     0.722 C  
HETATM   52  O   UNL     1     -12.815  11.336  62.788  1.00  0.00    -0.807 OA 
HETATM   53  H   UNL     1     -13.124  10.677  62.176  1.00  0.00     0.000 HD 
ENDBRANCH  40  51
BRANCH  31  54
HETATM   54  N   UNL     1      -8.973   9.336  66.747  1.00  0.00    -0.129 N  
HETATM   55  H   UNL     1      -8.242   8.974  66.134  1.00  0.00     0.000 HD 
HETATM   56  O   UNL     1     -10.592   8.848  68.276  1.00  0.00    -0.212 OA 
HETATM   57  C   UNL     1      -9.721   8.455  67.502  1.00  0.00    -0.162 C  
BRANCH  57  58
HETATM   58  C   UNL     1      -9.353   6.989  67.299  1.00  0.00    -0.153 C  
BRANCH  58  59
HETATM   59  C   UNL     1      -8.369   6.433  68.350  1.00  0.00    -0.116 C  
HETATM   60  H1  UNL     1      -6.493   6.877  69.078  1.00  0.00     0.000 HD 
HETATM   61  N   UNL     1      -7.143   7.245  68.383  1.00  0.00    -0.079 NA 
HETATM   62  H2  UNL     1      -7.345   8.233  68.536  1.00  0.00     0.000 HD 
BRANCH  59  63
HETATM   63  C   UNL     1      -8.951   6.429  69.784  1.00  0.00    -0.141 C  
BRANCH  63  64
HETATM   64  C   UNL     1      -8.245   7.401  70.736  1.00  0.00    -0.111 C  
BRANCH  64  65
HETATM   65  C   UNL     1      -9.160   8.552  71.158  1.00  0.00    -0.190 C  
HETATM   66  N   UNL     1      -8.665   9.801  70.588  1.00  0.00    -0.366 NA 
HETATM   67  H2  UNL     1      -8.557   9.746  69.575  1.00  0.00     0.000 HD 
HETATM   68  H1  UNL     1      -9.275  10.568  70.869  1.00  0.00     0.000 HD 
ENDBRANCH  64  65
ENDBRANCH  63  64
ENDBRANCH  59  63
ENDBRANCH  58  59
ENDBRANCH  57  58
ENDBRANCH  31  54
ENDBRANCH   1  14
TORSDOF 11
ENDMDL
MODEL       70
REMARK 921   NORMALIZED FREE ENERGY PREDICTED BY IDOCK:    3.97 KCAL/MOL
REMARK 922        TOTAL FREE ENERGY PREDICTED BY IDOCK:    4.57 KCAL/MOL
REMARK 923 INTER-LIGAND FREE ENERGY PREDICTED BY IDOCK:   -0.24 KCAL/MOL
REMARK 924 INTRA-LIGAND FREE ENERGY PREDICTED BY IDOCK:    4.81 KCAL/MOL
REMARK 927      BINDING AFFINITY PREDICTED BY RF-SCORE:    0.00 PKD
ROOT
HETATM    1  C   UNL     1      -9.837  10.625  70.207  1.00  0.00     0.756 C  
HETATM    2  C   UNL     1     -10.638  10.017  69.017  1.00  0.00    -0.235 C  
HETATM    3  H1  UNL     1      -7.050   8.528  71.375  1.00  0.00     0.000 HD 
HETATM    4  H   UNL     1      -9.642   9.500  72.068  1.00  0.00     0.000 HD 
HETATM    5  C   UNL     1      -9.902   8.815  68.431  1.00  0.00    -0.171 C  
HETATM    6  H2  UNL     1      -7.212   7.423  70.023  1.00  0.00     0.000 HD 
HETATM    7  N   UNL     1      -9.623   7.893  69.498  1.00  0.00    -0.160 NA 
HETATM    8  O   UNL     1     -10.690   8.164  67.461  1.00  0.00    -0.432 OA 
HETATM    9  N   UNL     1      -9.459   9.492  71.064  1.00  0.00    -0.182 NA 
HETATM   10  N   UNL     1      -7.629   8.118  70.643  1.00  0.00    -0.071 NA 
HETATM   11  H   UNL     1      -9.967   6.932  69.520  1.00  0.00     0.000 HD 
HETATM   12  C   UNL     1      -8.856   8.436  70.467  1.00  0.00    -0.148 C  
HETATM   13  H   UNL     1     -10.232   7.416  67.097  1.00  0.00     0.000 HD 
ENDROOT
BRANCH   1  14
HETATM   14  C   UNL     1      -8.603  11.497  69.795  1.00  0.00     1.467 C  
HETATM   15  N   UNL     1     -11.046  15.462  68.523  1.00  0.00    -0.279 N  
HETATM   16  O   UNL     1     -10.579  13.684  70.697  1.00  0.00     1.512 OA 
HETATM   17  C   UNL     1      -9.715  13.854  69.847  1.00  0.00     1.444 C  
HETATM   18  C   UNL     1      -8.751  15.990  69.169  1.00  0.00    -0.248 C  
HETATM   19  N   UNL     1     -10.824  11.160  64.512  1.00  0.00    -0.298 N  
HETATM   20  H   UNL     1      -8.227  13.250  68.623  1.00  0.00     0.000 HD 
HETATM   21  N   UNL     1      -8.831  12.923  69.378  1.00  0.00     1.037 N  
HETATM   22  H   UNL     1     -11.864  15.593  69.119  1.00  0.00     0.000 HD 
HETATM   23  C   UNL     1      -9.792  15.154  69.087  1.00  0.00    -0.237 C  
HETATM   24  C   UNL     1     -11.155  15.589  67.128  1.00  0.00    -0.256 C  
HETATM   25  O   UNL     1      -6.712  11.315  68.269  1.00  0.00    -0.057 OA 
HETATM   26  O   UNL     1     -10.613  16.482  66.482  1.00  0.00    -0.292 OA 
HETATM   27  N   UNL     1      -8.573  10.140  67.672  1.00  0.00    -0.118 N  
HETATM   28  CA  UNL     1     -11.904  14.393  66.448  1.00  0.00    -0.388 C  
HETATM   29  N   UNL     1     -11.847  14.332  64.971  1.00  0.00    -0.377 N  
HETATM   30  C   UNL     1      -8.107   9.755  66.336  1.00  0.00    -0.116 C  
HETATM   31  CA  UNL     1      -9.316   9.395  65.428  1.00  0.00    -0.247 C  
HETATM   32  H   UNL     1      -9.492   9.814  67.971  1.00  0.00     0.000 HD 
HETATM   33  H   UNL     1     -11.496  15.106  64.407  1.00  0.00     0.000 HD 
HETATM   34  O   UNL     1      -8.848  10.756  63.465  1.00  0.00    -0.180 OA 
HETATM   35  C   UNL     1     -12.309  13.138  64.396  1.00  0.00    -0.360 C  
HETATM   36  C   UNL     1      -9.607  10.514  64.403  1.00  0.00    -0.300 C  
HETATM   37  H   UNL     1     -11.472  10.843  65.234  1.00  0.00     0.000 HD 
HETATM   38  C   UNL     1      -7.843  10.917  68.549  1.00  0.00    -0.126 C  
HETATM   39  O   UNL     1     -13.388  12.654  64.747  1.00  0.00    -0.787 OA 
HETATM   40  CA  UNL     1     -11.248  12.291  63.638  1.00  0.00    -0.466 C  
BRANCH  18  41
HETATM   41  N   UNL     1      -8.801  17.297  68.750  1.00  0.00    -0.264 N  
HETATM   42  H   UNL     1      -9.703  17.773  68.748  1.00  0.00     0.000 HD 
BRANCH  41  43
HETATM   43  C   UNL     1      -7.700  17.987  68.337  1.00  0.00    -0.286 C  
HETATM   44  H2  UNL     1      -7.867  17.081  66.451  1.00  0.00     0.000 HD 
HETATM   45  N   UNL     1      -7.355  17.728  67.050  1.00  0.00    -0.187 N  
HETATM   46  H1  UNL     1      -6.531  18.245  66.740  1.00  0.00     0.000 HD 
HETATM   47  O   UNL     1      -7.059  18.784  69.012  1.00  0.00    -0.306 OA 
ENDBRANCH  41  43
ENDBRANCH  18  41
BRANCH  28  48
HETATM   48  C   UNL     1     -11.211  13.119  66.969  1.00  0.00    -0.294 C  
HETATM   49  O   UNL     1     -12.074  11.977  66.866  1.00  0.00    -0.608 OA 
HETATM   50  H   UNL     1     -11.647  11.192  67.186  1.00  0.00     0.000 HD 
ENDBRANCH  28  48
BRANCH  40  51
HETATM   51  CB  UNL     1     -11.856  11.760  62.335  1.00  0.00     2.025 C  
HETATM   52  O   UNL     1     -12.453  10.470  62.481  1.00  0.00     1.163 OA 
HETATM   53  H   UNL     1     -12.831  10.141  61.673  1.00  0.00     0.000 HD 
ENDBRANCH  40  51
BRANCH  31  54
HETATM   54  N   UNL     1      -9.114   8.128  64.714  1.00  0.00    -0.178 N  
HETATM   55  H   UNL     1      -9.892   7.474  64.628  1.00  0.00     0.000 HD 
HETATM   56  O   UNL     1      -6.937   8.577  64.210  1.00  0.00    -0.079 OA 
HETATM   57  C   UNL     1      -7.893   7.806  64.157  1.00  0.00    -0.133 C  
BRANCH  57  58
HETATM   58  C   UNL     1      -7.860   6.444  63.471  1.00  0.00    -0.110 C  
BRANCH  58  59
HETATM   59  C   UNL     1      -8.623   5.337  64.229  1.00  0.00    -0.080 C  
HETATM   60  H1  UNL     1      -9.894   3.776  63.789  1.00  0.00     0.000 HD 
HETATM   61  N   UNL     1      -9.389   4.507  63.288  1.00  0.00    -0.288 NA 
HETATM   62  H2  UNL     1      -8.798   4.125  62.549  1.00  0.00     0.000 HD 
BRANCH  59  63
HETATM   63  C   UNL     1      -7.690   4.387  65.018  1.00  0.00    -0.081 C  
BRANCH  63  64
HETATM   64  C   UNL     1      -7.555   4.752  66.501  1.00  0.00    -0.087 C  
BRANCH  64  65
HETATM   65  C   UNL     1      -7.812   3.550  67.411  1.00  0.00    -0.078 C  
HETATM   66  N   UNL     1      -7.505   3.909  68.791  1.00  0.00    -0.054 NA 
HETATM   67  H2  UNL     1      -8.014   4.739  69.096  1.00  0.00     0.000 HD 
HETATM   68  H1  UNL     1      -7.677   3.108  69.398  1.00  0.00     0.000 HD 
ENDBRANCH  64  65
ENDBRANCH  63  64
ENDBRANCH  59  63
ENDBRANCH  58  59
ENDBRANCH  57  58
ENDBRANCH  31  54
ENDBRANCH   1  14
TORSDOF 11
ENDMDL
MODEL       71
REMARK 921   NORMALIZED FREE ENERGY PREDICTED BY IDOCK:    4.21 KCAL/MOL
REMARK 922        TOTAL FREE ENERGY PREDICTED BY IDOCK:    4.96 KCAL/MOL
REMARK 923 INTER-LIGAND FREE ENERGY PREDICTED BY IDOCK:   -8.69 KCAL/MOL
REMARK 924 INTRA-LIGAND FREE ENERGY PREDICTED BY IDOCK:   13.65 KCAL/MOL
REMARK 927      BINDING AFFINITY PREDICTED BY RF-SCORE:    0.00 PKD
ROOT
HETATM    1  C   UNL     1      -9.246   5.934  65.570  1.00  0.00     0.076 C  
HETATM    2  C   UNL     1      -9.115   4.478  65.033  1.00  0.00    -0.152 C  
HETATM    3  H1  UNL     1     -10.227   6.152  69.109  1.00  0.00     0.000 HD 
HETATM    4  H   UNL     1     -11.134   6.602  66.440  1.00  0.00     0.000 HD 
HETATM    5  C   UNL     1      -9.156   3.474  66.183  1.00  0.00    -0.157 C  
HETATM    6  H2  UNL     1     -10.037   4.426  69.349  1.00  0.00     0.000 HD 
HETATM    7  N   UNL     1     -10.341   3.722  66.957  1.00  0.00     0.144 NA 
HETATM    8  O   UNL     1      -9.196   2.152  65.697  1.00  0.00    -0.242 OA 
HETATM    9  N   UNL     1     -10.377   5.921  66.510  1.00  0.00    -0.198 NA 
HETATM   10  N   UNL     1     -10.203   5.210  68.718  1.00  0.00    -0.161 NA 
HETATM   11  H   UNL     1     -11.077   3.030  67.100  1.00  0.00     0.000 HD 
HETATM   12  C   UNL     1     -10.373   4.968  67.473  1.00  0.00    -0.089 C  
HETATM   13  H   UNL     1      -9.221   1.528  66.413  1.00  0.00     0.000 HD 
ENDROOT
BRANCH   1  14
HETATM   14  C   UNL     1      -7.944   6.519  66.215  1.00  0.00    -0.111 C  
HETATM   15  N   UNL     1      -8.490   4.554  70.592  1.00  0.00    -0.085 N  
HETATM   16  O   UNL     1      -8.267   3.911  67.826  1.00  0.00    -0.092 OA 
HETATM   17  C   UNL     1      -7.737   4.923  68.266  1.00  0.00    -0.082 C  
HETATM   18  C   UNL     1      -6.145   5.039  70.111  1.00  0.00    -0.021 C  
HETATM   19  N   UNL     1     -11.575   9.457  69.552  1.00  0.00    -0.418 N  
HETATM   20  H   UNL     1      -7.172   6.859  68.184  1.00  0.00     0.000 HD 
HETATM   21  N   UNL     1      -7.590   6.118  67.620  1.00  0.00    -0.095 N  
HETATM   22  H   UNL     1      -8.919   3.630  70.525  1.00  0.00     0.000 HD 
HETATM   23  C   UNL     1      -7.424   4.910  69.741  1.00  0.00    -0.056 C  
HETATM   24  C   UNL     1      -8.953   5.486  71.534  1.00  0.00    -0.136 C  
HETATM   25  O   UNL     1      -6.941   8.714  66.549  1.00  0.00    -0.076 OA 
HETATM   26  O   UNL     1      -8.284   5.878  72.488  1.00  0.00    -0.115 OA 
HETATM   27  N   UNL     1      -9.216   8.685  66.401  1.00  0.00    -0.178 N  
HETATM   28  CA  UNL     1     -10.344   6.105  71.171  1.00  0.00    -0.208 C  
HETATM   29  N   UNL     1     -10.785   7.264  71.979  1.00  0.00    -0.208 N  
HETATM   30  C   UNL     1      -9.427  10.085  66.783  1.00  0.00    -0.168 C  
HETATM   31  CA  UNL     1     -10.876  10.288  67.306  1.00  0.00    -0.250 C  
HETATM   32  H   UNL     1     -10.037   8.122  66.177  1.00  0.00     0.000 HD 
HETATM   33  H   UNL     1     -10.305   7.545  72.833  1.00  0.00     0.000 HD 
HETATM   34  O   UNL     1     -10.458  11.431  69.413  1.00  0.00    -0.138 OA 
HETATM   35  C   UNL     1     -11.907   7.951  71.491  1.00  0.00    -0.289 C  
HETATM   36  C   UNL     1     -10.908  10.437  68.843  1.00  0.00    -0.236 C  
HETATM   37  H   UNL     1     -12.036   8.714  69.026  1.00  0.00     0.000 HD 
HETATM   38  C   UNL     1      -7.976   8.084  66.327  1.00  0.00    -0.105 C  
HETATM   39  O   UNL     1     -12.917   7.332  71.148  1.00  0.00    -0.346 OA 
HETATM   40  CA  UNL     1     -11.663   9.420  71.041  1.00  0.00    -0.323 C  
BRANCH  18  41
HETATM   41  N   UNL     1      -5.701   4.782  71.385  1.00  0.00    -0.012 N  
HETATM   42  H   UNL     1      -5.523   5.571  72.007  1.00  0.00     0.000 HD 
BRANCH  41  43
HETATM   43  C   UNL     1      -5.489   3.521  71.858  1.00  0.00    -0.007 C  
HETATM   44  H2  UNL     1      -5.022   2.894  69.909  1.00  0.00     0.000 HD 
HETATM   45  N   UNL     1      -5.125   2.639  70.892  1.00  0.00    -0.003 N  
HETATM   46  H1  UNL     1      -4.966   1.696  71.245  1.00  0.00     0.000 HD 
HETATM   47  O   UNL     1      -5.587   3.167  73.027  1.00  0.00     0.000 OA 
ENDBRANCH  41  43
ENDBRANCH  18  41
BRANCH  28  48
HETATM   48  C   UNL     1     -10.210   6.605  69.719  1.00  0.00    -0.187 C  
HETATM   49  O   UNL     1      -9.263   7.679  69.623  1.00  0.00    -0.147 OA 
HETATM   50  H   UNL     1      -9.180   7.987  68.729  1.00  0.00     0.000 HD 
ENDBRANCH  28  48
BRANCH  40  51
HETATM   51  CB  UNL     1     -12.820  10.300  71.528  1.00  0.00    -0.452 C  
HETATM   52  O   UNL     1     -13.786   9.580  72.296  1.00  0.00    -0.485 OA 
HETATM   53  H   UNL     1     -14.503  10.126  72.598  1.00  0.00     0.000 HD 
ENDBRANCH  40  51
BRANCH  31  54
HETATM   54  N   UNL     1     -11.527  11.453  66.695  1.00  0.00    -0.161 N  
HETATM   55  H   UNL     1     -12.175  12.012  67.250  1.00  0.00     0.000 HD 
HETATM   56  O   UNL     1     -10.485  11.181  64.686  1.00  0.00    -0.309 OA 
HETATM   57  C   UNL     1     -11.280  11.808  65.384  1.00  0.00    -0.251 C  
BRANCH  57  58
HETATM   58  C   UNL     1     -12.057  13.032  64.911  1.00  0.00    -0.459 C  
BRANCH  58  59
HETATM   59  C   UNL     1     -11.169  14.169  64.361  1.00  0.00    -0.278 C  
HETATM   60  H1  UNL     1     -11.321  16.192  64.000  1.00  0.00     0.000 HD 
HETATM   61  N   UNL     1     -11.908  15.441  64.364  1.00  0.00    -0.604 NA 
HETATM   62  H2  UNL     1     -12.281  15.662  65.288  1.00  0.00     0.000 HD 
BRANCH  59  63
HETATM   63  C   UNL     1      -9.881  14.388  65.188  1.00  0.00    -0.137 C  
BRANCH  63  64
HETATM   64  C   UNL     1     -10.146  14.723  66.660  1.00  0.00    -0.269 C  
BRANCH  64  65
HETATM   65  C   UNL     1      -9.791  16.174  66.989  1.00  0.00    -0.245 C  
HETATM   66  N   UNL     1      -8.629  16.204  67.870  1.00  0.00    -0.167 NA 
HETATM   67  H2  UNL     1      -7.837  15.693  67.480  1.00  0.00     0.000 HD 
HETATM   68  H1  UNL     1      -8.392  17.171  68.089  1.00  0.00     0.000 HD 
ENDBRANCH  64  65
ENDBRANCH  63  64
ENDBRANCH  59  63
ENDBRANCH  58  59
ENDBRANCH  57  58
ENDBRANCH  31  54
ENDBRANCH   1  14
TORSDOF 11
ENDMDL
MODEL       72
REMARK 921   NORMALIZED FREE ENERGY PREDICTED BY IDOCK:    4.32 KCAL/MOL
REMARK 922        TOTAL FREE ENERGY PREDICTED BY IDOCK:    5.13 KCAL/MOL
REMARK 923 INTER-LIGAND FREE ENERGY PREDICTED BY IDOCK:   -0.14 KCAL/MOL
REMARK 924 INTRA-LIGAND FREE ENERGY PREDICTED BY IDOCK:    5.27 KCAL/MOL
REMARK 927      BINDING AFFINITY PREDICTED BY RF-SCORE:    0.00 PKD
ROOT
HETATM    1  C   UNL     1      -9.828  10.757  70.174  1.00  0.00     0.766 C  
HETATM    2  C   UNL     1      -8.632  11.168  69.265  1.00  0.00     0.142 C  
HETATM    3  H1  UNL     1     -13.028  12.316  69.251  1.00  0.00     0.000 HD 
HETATM    4  H   UNL     1     -10.968  12.293  71.226  1.00  0.00     0.000 HD 
HETATM    5  C   UNL     1      -9.127  11.912  68.027  1.00  0.00    -0.189 C  
HETATM    6  H2  UNL     1     -12.369  12.974  67.765  1.00  0.00     0.000 HD 
HETATM    7  N   UNL     1      -9.955  13.005  68.458  1.00  0.00    -0.344 NA 
HETATM    8  O   UNL     1      -8.047  12.425  67.281  1.00  0.00    -0.169 OA 
HETATM    9  N   UNL     1     -10.667  11.956  70.310  1.00  0.00     1.104 NA 
HETATM   10  N   UNL     1     -12.219  12.626  68.712  1.00  0.00    -0.076 NA 
HETATM   11  H   UNL     1      -9.755  13.983  68.248  1.00  0.00     0.000 HD 
HETATM   12  C   UNL     1     -11.026  12.596  69.171  1.00  0.00    -0.142 C  
HETATM   13  H   UNL     1      -8.356  12.888  66.511  1.00  0.00     0.000 HD 
ENDROOT
BRANCH   1  14
HETATM   14  C   UNL     1     -10.641   9.516  69.672  1.00  0.00    -0.228 C  
HETATM   15  N   UNL     1      -6.882   6.580  68.919  1.00  0.00    -0.067 N  
HETATM   16  O   UNL     1      -8.186   8.131  70.920  1.00  0.00    -0.100 OA 
HETATM   17  C   UNL     1      -8.829   7.669  69.986  1.00  0.00    -0.143 C  
HETATM   18  C   UNL     1      -8.937   5.323  69.324  1.00  0.00    -0.103 C  
HETATM   19  N   UNL     1      -7.999  10.499  64.672  1.00  0.00    -0.324 N  
HETATM   20  H   UNL     1     -10.263   7.721  68.566  1.00  0.00     0.000 HD 
HETATM   21  N   UNL     1      -9.903   8.242  69.366  1.00  0.00    -0.181 N  
HETATM   22  H   UNL     1      -6.151   6.740  69.612  1.00  0.00     0.000 HD 
HETATM   23  C   UNL     1      -8.229   6.459  69.315  1.00  0.00    -0.115 C  
HETATM   24  C   UNL     1      -6.560   6.477  67.556  1.00  0.00    -0.061 C  
HETATM   25  O   UNL     1     -12.274   9.031  67.929  1.00  0.00     3.184 OA 
HETATM   26  O   UNL     1      -6.689   5.443  66.903  1.00  0.00    -0.058 OA 
HETATM   27  N   UNL     1     -10.845  10.752  67.486  1.00  0.00    -0.267 N  
HETATM   28  CA  UNL     1      -6.168   7.843  66.900  1.00  0.00    -0.054 C  
HETATM   29  N   UNL     1      -6.052   7.860  65.425  1.00  0.00    -0.038 N  
HETATM   30  C   UNL     1     -11.237  10.939  66.086  1.00  0.00     0.185 C  
HETATM   31  CA  UNL     1     -10.110  11.670  65.304  1.00  0.00    -0.264 C  
HETATM   32  H   UNL     1     -10.132  11.372  67.870  1.00  0.00     0.000 HD 
HETATM   33  H   UNL     1      -6.053   7.005  64.869  1.00  0.00     0.000 HD 
HETATM   34  O   UNL     1      -9.846  10.202  63.381  1.00  0.00    -0.202 OA 
HETATM   35  C   UNL     1      -5.941   9.131  64.840  1.00  0.00    -0.064 C  
HETATM   36  C   UNL     1      -9.336  10.698  64.386  1.00  0.00    -0.251 C  
HETATM   37  H   UNL     1      -7.590  11.025  65.445  1.00  0.00     0.000 HD 
HETATM   38  C   UNL     1     -11.383   9.789  68.316  1.00  0.00     0.102 C  
HETATM   39  O   UNL     1      -5.137   9.954  65.286  1.00  0.00    -0.041 OA 
HETATM   40  CA  UNL     1      -7.116   9.562  63.918  1.00  0.00    -0.108 C  
BRANCH  18  41
HETATM   41  N   UNL     1      -8.404   4.102  68.988  1.00  0.00    -0.076 N  
HETATM   42  H   UNL     1      -8.447   3.804  68.014  1.00  0.00     0.000 HD 
BRANCH  41  43
HETATM   43  C   UNL     1      -7.819   3.272  69.898  1.00  0.00    -0.046 C  
HETATM   44  H2  UNL     1      -9.254   1.807  69.449  1.00  0.00     0.000 HD 
HETATM   45  N   UNL     1      -8.435   2.066  69.999  1.00  0.00    -0.045 N  
HETATM   46  H1  UNL     1      -7.997   1.445  70.679  1.00  0.00     0.000 HD 
HETATM   47  O   UNL     1      -6.829   3.531  70.573  1.00  0.00    -0.032 OA 
ENDBRANCH  41  43
ENDBRANCH  18  41
BRANCH  28  48
HETATM   48  C   UNL     1      -7.304   8.819  67.264  1.00  0.00    -0.081 C  
HETATM   49  O   UNL     1      -8.547   8.416  66.670  1.00  0.00    -0.114 OA 
HETATM   50  H   UNL     1      -9.248   9.018  66.894  1.00  0.00     0.000 HD 
ENDBRANCH  28  48
BRANCH  40  51
HETATM   51  CB  UNL     1      -6.556  10.247  62.666  1.00  0.00    -0.136 C  
HETATM   52  O   UNL     1      -5.866  11.464  62.955  1.00  0.00    -0.228 OA 
HETATM   53  H   UNL     1      -5.519  11.889  62.179  1.00  0.00     0.000 HD 
ENDBRANCH  40  51
BRANCH  31  54
HETATM   54  N   UNL     1     -10.626  12.785  64.501  1.00  0.00    -0.338 N  
HETATM   55  H   UNL     1      -9.973  13.470  64.120  1.00  0.00     0.000 HD 
HETATM   56  O   UNL     1     -12.795  12.107  64.667  1.00  0.00    -0.586 OA 
HETATM   57  C   UNL     1     -11.976  12.924  64.252  1.00  0.00    -0.399 C  
BRANCH  57  58
HETATM   58  C   UNL     1     -12.334  14.150  63.418  1.00  0.00     0.322 C  
BRANCH  58  59
HETATM   59  C   UNL     1     -12.398  15.465  64.223  1.00  0.00    -0.061 C  
HETATM   60  H1  UNL     1     -13.321  16.175  65.924  1.00  0.00     0.000 HD 
HETATM   61  N   UNL     1     -13.278  15.306  65.391  1.00  0.00     0.713 NA 
HETATM   62  H2  UNL     1     -12.999  14.516  65.974  1.00  0.00     0.000 HD 
BRANCH  59  63
HETATM   63  C   UNL     1     -11.018  15.922  64.752  1.00  0.00    -0.392 C  
BRANCH  63  64
HETATM   64  C   UNL     1     -11.019  16.277  66.243  1.00  0.00     0.008 C  
BRANCH  64  65
HETATM   65  C   UNL     1      -9.752  17.030  66.651  1.00  0.00    -0.277 C  
HETATM   66  N   UNL     1      -9.729  17.194  68.101  1.00  0.00    -0.266 NA 
HETATM   67  H2  UNL     1      -9.823  16.305  68.591  1.00  0.00     0.000 HD 
HETATM   68  H1  UNL     1      -8.884  17.696  68.373  1.00  0.00     0.000 HD 
ENDBRANCH  64  65
ENDBRANCH  63  64
ENDBRANCH  59  63
ENDBRANCH  58  59
ENDBRANCH  57  58
ENDBRANCH  31  54
ENDBRANCH   1  14
TORSDOF 11
ENDMDL
MODEL       73
REMARK 921   NORMALIZED FREE ENERGY PREDICTED BY IDOCK:    4.64 KCAL/MOL
REMARK 922        TOTAL FREE ENERGY PREDICTED BY IDOCK:    5.66 KCAL/MOL
REMARK 923 INTER-LIGAND FREE ENERGY PREDICTED BY IDOCK:   -7.17 KCAL/MOL
REMARK 924 INTRA-LIGAND FREE ENERGY PREDICTED BY IDOCK:   12.83 KCAL/MOL
REMARK 927      BINDING AFFINITY PREDICTED BY RF-SCORE:    0.00 PKD
ROOT
HETATM    1  C   UNL     1     -11.496   8.163  71.305  1.00  0.00    -0.266 C  
HETATM    2  C   UNL     1     -11.845   7.414  72.626  1.00  0.00    -0.174 C  
HETATM    3  H1  UNL     1      -7.888   8.528  70.689  1.00  0.00     0.000 HD 
HETATM    4  H   UNL     1     -10.260   9.961  71.374  1.00  0.00     0.000 HD 
HETATM    5  C   UNL     1     -10.599   6.761  73.220  1.00  0.00    -0.309 C  
HETATM    6  H2  UNL     1      -7.474   7.467  72.022  1.00  0.00     0.000 HD 
HETATM    7  N   UNL     1      -9.582   7.767  73.354  1.00  0.00    -0.285 NA 
HETATM    8  O   UNL     1     -10.872   6.218  74.491  1.00  0.00    -0.293 OA 
HETATM    9  N   UNL     1     -10.299   8.966  71.597  1.00  0.00    -0.319 NA 
HETATM   10  N   UNL     1      -8.139   8.103  71.581  1.00  0.00    -0.113 NA 
HETATM   11  H   UNL     1      -9.157   8.027  74.244  1.00  0.00     0.000 HD 
HETATM   12  C   UNL     1      -9.250   8.330  72.173  1.00  0.00    -0.222 C  
HETATM   13  H   UNL     1     -10.097   5.811  74.860  1.00  0.00     0.000 HD 
ENDROOT
BRANCH   1  14
HETATM   14  C   UNL     1     -11.302   7.239  70.055  1.00  0.00    -0.166 C  
HETATM   15  N   UNL     1      -6.723   5.977  70.927  1.00  0.00    -0.059 N  
HETATM   16  O   UNL     1      -9.342   5.936  72.046  1.00  0.00    -0.150 OA 
HETATM   17  C   UNL     1      -9.194   5.917  70.831  1.00  0.00    -0.153 C  
HETATM   18  C   UNL     1      -7.870   4.309  69.560  1.00  0.00    -0.057 C  
HETATM   19  N   UNL     1      -7.524  11.224  68.383  1.00  0.00    -0.101 N  
HETATM   20  H   UNL     1      -9.671   6.418  68.935  1.00  0.00     0.000 HD 
HETATM   21  N   UNL     1     -10.003   6.499  69.897  1.00  0.00    -0.166 N  
HETATM   22  H   UNL     1      -6.554   5.892  71.930  1.00  0.00     0.000 HD 
HETATM   23  C   UNL     1      -7.866   5.394  70.343  1.00  0.00    -0.088 C  
HETATM   24  C   UNL     1      -5.820   6.676  70.110  1.00  0.00    -0.023 C  
HETATM   25  O   UNL     1     -11.532   7.427  67.637  1.00  0.00     0.315 OA 
HETATM   26  O   UNL     1      -5.137   6.142  69.239  1.00  0.00    -0.004 OA 
HETATM   27  N   UNL     1     -11.063   9.370  68.733  1.00  0.00    -0.453 N  
HETATM   28  CA  UNL     1      -5.876   8.229  70.302  1.00  0.00    -0.028 C  
HETATM   29  N   UNL     1      -5.135   9.045  69.314  1.00  0.00    -0.035 N  
HETATM   30  C   UNL     1     -10.823  10.183  67.537  1.00  0.00    -0.290 C  
HETATM   31  CA  UNL     1      -9.963  11.427  67.897  1.00  0.00    -0.177 C  
HETATM   32  H   UNL     1     -10.987   9.824  69.644  1.00  0.00     0.000 HD 
HETATM   33  H   UNL     1      -4.483   8.632  68.648  1.00  0.00     0.000 HD 
HETATM   34  O   UNL     1      -8.208  11.284  66.216  1.00  0.00    -0.169 OA 
HETATM   35  C   UNL     1      -5.390  10.424  69.354  1.00  0.00    -0.038 C  
HETATM   36  C   UNL     1      -8.505  11.267  67.411  1.00  0.00    -0.137 C  
HETATM   37  H   UNL     1      -7.808  11.333  69.357  1.00  0.00     0.000 HD 
HETATM   38  C   UNL     1     -11.388   8.029  68.701  1.00  0.00     0.770 C  
HETATM   39  O   UNL     1      -5.369  11.031  70.427  1.00  0.00    -0.072 OA 
HETATM   40  CA  UNL     1      -6.074  11.028  68.094  1.00  0.00    -0.049 C  
BRANCH  18  41
HETATM   41  N   UNL     1      -6.738   3.588  69.269  1.00  0.00    -0.037 N  
HETATM   42  H   UNL     1      -5.833   4.051  69.345  1.00  0.00     0.000 HD 
BRANCH  41  43
HETATM   43  C   UNL     1      -6.770   2.280  68.884  1.00  0.00    -0.033 C  
HETATM   44  H2  UNL     1      -8.474   1.993  70.076  1.00  0.00     0.000 HD 
HETATM   45  N   UNL     1      -7.794   1.581  69.436  1.00  0.00    -0.042 N  
HETATM   46  H1  UNL     1      -7.818   0.603  69.148  1.00  0.00     0.000 HD 
HETATM   47  O   UNL     1      -5.987   1.742  68.110  1.00  0.00    -0.022 OA 
ENDBRANCH  41  43
ENDBRANCH  18  41
BRANCH  28  48
HETATM   48  C   UNL     1      -7.362   8.612  70.164  1.00  0.00    -0.053 C  
HETATM   49  O   UNL     1      -7.810   8.481  68.807  1.00  0.00    -0.106 OA 
HETATM   50  H   UNL     1      -8.726   8.717  68.722  1.00  0.00     0.000 HD 
ENDBRANCH  28  48
BRANCH  40  51
HETATM   51  CB  UNL     1      -5.413  12.367  67.749  1.00  0.00    -0.097 C  
HETATM   52  O   UNL     1      -6.114  13.492  68.281  1.00  0.00    -0.082 OA 
HETATM   53  H   UNL     1      -5.704  14.322  68.067  1.00  0.00     0.000 HD 
ENDBRANCH  40  51
BRANCH  31  54
HETATM   54  N   UNL     1     -10.522  12.666  67.343  1.00  0.00    -0.223 N  
HETATM   55  H   UNL     1      -9.923  13.284  66.795  1.00  0.00     0.000 HD 
HETATM   56  O   UNL     1     -12.609  12.283  68.176  1.00  0.00     0.201 OA 
HETATM   57  C   UNL     1     -11.843  13.010  67.548  1.00  0.00    -0.355 C  
BRANCH  57  58
HETATM   58  C   UNL     1     -12.247  14.339  66.917  1.00  0.00    -0.366 C  
BRANCH  58  59
HETATM   59  C   UNL     1     -12.201  14.346  65.374  1.00  0.00    -0.361 C  
HETATM   60  H1  UNL     1     -10.896  14.914  63.884  1.00  0.00     0.000 HD 
HETATM   61  N   UNL     1     -10.926  14.909  64.903  1.00  0.00    -0.456 NA 
HETATM   62  H2  UNL     1     -10.124  14.424  65.306  1.00  0.00     0.000 HD 
BRANCH  59  63
HETATM   63  C   UNL     1     -12.331  12.934  64.756  1.00  0.00    -0.516 C  
BRANCH  63  64
HETATM   64  C   UNL     1     -11.323  12.659  63.635  1.00  0.00    -0.544 C  
BRANCH  64  65
HETATM   65  C   UNL     1     -10.748  11.244  63.717  1.00  0.00    -0.379 C  
HETATM   66  N   UNL     1      -9.295  11.301  63.603  1.00  0.00    -0.385 NA 
HETATM   67  H2  UNL     1      -8.879  11.926  64.293  1.00  0.00     0.000 HD 
HETATM   68  H1  UNL     1      -8.912  10.357  63.658  1.00  0.00     0.000 HD 
ENDBRANCH  64  65
ENDBRANCH  63  64
ENDBRANCH  59  63
ENDBRANCH  58  59
ENDBRANCH  57  58
ENDBRANCH  31  54
ENDBRANCH   1  14
TORSDOF 11
ENDMDL
MODEL       74
REMARK 921   NORMALIZED FREE ENERGY PREDICTED BY IDOCK:    4.94 KCAL/MOL
REMARK 922        TOTAL FREE ENERGY PREDICTED BY IDOCK:    6.15 KCAL/MOL
REMARK 923 INTER-LIGAND FREE ENERGY PREDICTED BY IDOCK:   -4.30 KCAL/MOL
REMARK 924 INTRA-LIGAND FREE ENERGY PREDICTED BY IDOCK:   10.46 KCAL/MOL
REMARK 927      BINDING AFFINITY PREDICTED BY RF-SCORE:    0.00 PKD
ROOT
HETATM    1  C   UNL     1     -10.083  13.981  70.506  1.00  0.00     2.265 C  
HETATM    2  C   UNL     1     -11.262  14.975  70.724  1.00  0.00    -0.273 C  
HETATM    3  H1  UNL     1     -10.026  12.419  67.176  1.00  0.00     0.000 HD 
HETATM    4  H   UNL     1     -10.500  11.913  69.944  1.00  0.00     0.000 HD 
HETATM    5  C   UNL     1     -11.962  15.279  69.402  1.00  0.00    -0.315 C  
HETATM    6  H2  UNL     1     -11.297  13.469  66.576  1.00  0.00     0.000 HD 
HETATM    7  N   UNL     1     -12.336  14.033  68.792  1.00  0.00    -0.508 NA 
HETATM    8  O   UNL     1     -13.122  16.050  69.611  1.00  0.00    -0.360 OA 
HETATM    9  N   UNL     1     -10.618  12.891  69.677  1.00  0.00     0.434 NA 
HETATM   10  N   UNL     1     -10.829  13.020  67.364  1.00  0.00    -0.248 NA 
HETATM   11  H   UNL     1     -13.299  13.777  68.571  1.00  0.00     0.000 HD 
HETATM   12  C   UNL     1     -11.274  13.237  68.543  1.00  0.00    -0.271 C  
HETATM   13  H   UNL     1     -13.558  16.239  68.788  1.00  0.00     0.000 HD 
ENDROOT
BRANCH   1  14
HETATM   14  C   UNL     1      -8.790  14.616  69.890  1.00  0.00     0.633 C  
HETATM   15  N   UNL     1     -10.953  17.138  66.386  1.00  0.00     0.090 N  
HETATM   16  O   UNL     1     -10.877  16.780  69.210  1.00  0.00    -0.325 OA 
HETATM   17  C   UNL     1      -9.879  16.560  68.537  1.00  0.00    -0.243 C  
HETATM   18  C   UNL     1      -8.799  18.115  66.997  1.00  0.00    -0.262 C  
HETATM   19  N   UNL     1     -10.073  11.421  65.296  1.00  0.00    -0.254 N  
HETATM   20  H   UNL     1      -8.207  15.540  68.047  1.00  0.00     0.000 HD 
HETATM   21  N   UNL     1      -8.934  15.599  68.761  1.00  0.00    -0.190 N  
HETATM   22  H   UNL     1     -11.860  17.488  66.696  1.00  0.00     0.000 HD 
HETATM   23  C   UNL     1      -9.816  17.271  67.209  1.00  0.00    -0.267 C  
HETATM   24  C   UNL     1     -10.820  16.519  65.133  1.00  0.00    -0.233 C  
HETATM   25  O   UNL     1      -6.666  13.834  68.986  1.00  0.00    -0.102 OA 
HETATM   26  O   UNL     1     -10.169  16.994  64.205  1.00  0.00     1.317 OA 
HETATM   27  N   UNL     1      -8.405  12.368  68.819  1.00  0.00    -0.347 N  
HETATM   28  CA  UNL     1     -11.448  15.086  65.073  1.00  0.00    -0.364 C  
HETATM   29  N   UNL     1     -11.139  14.278  63.873  1.00  0.00    -0.262 N  
HETATM   30  C   UNL     1      -7.719  11.391  67.968  1.00  0.00    -0.114 C  
HETATM   31  CA  UNL     1      -8.756  10.514  67.212  1.00  0.00    -0.126 C  
HETATM   32  H   UNL     1      -9.364  12.167  69.102  1.00  0.00     0.000 HD 
HETATM   33  H   UNL     1     -10.691  14.677  63.048  1.00  0.00     0.000 HD 
HETATM   34  O   UNL     1      -7.949  10.704  64.924  1.00  0.00    -0.105 OA 
HETATM   35  C   UNL     1     -11.504  12.924  63.943  1.00  0.00    -0.446 C  
HETATM   36  C   UNL     1      -8.860  10.917  65.724  1.00  0.00    -0.191 C  
HETATM   37  H   UNL     1     -10.837  11.468  65.971  1.00  0.00     0.000 HD 
HETATM   38  C   UNL     1      -7.832  13.544  69.260  1.00  0.00     0.410 C  
HETATM   39  O   UNL     1     -12.629  12.601  64.329  1.00  0.00    -0.593 OA 
HETATM   40  CA  UNL     1     -10.333  11.901  63.908  1.00  0.00    -0.389 C  
BRANCH  18  41
HETATM   41  N   UNL     1      -8.768  19.009  65.956  1.00  0.00    -0.164 N  
HETATM   42  H   UNL     1      -9.652  19.298  65.536  1.00  0.00     0.000 HD 
BRANCH  41  43
HETATM   43  C   UNL     1      -7.610  19.530  65.458  1.00  0.00     0.006 C  
HETATM   44  H2  UNL     1      -8.272  21.450  65.991  1.00  0.00     0.000 HD 
HETATM   45  N   UNL     1      -7.535  20.881  65.573  1.00  0.00    -0.257 N  
HETATM   46  H1  UNL     1      -6.669  21.270  65.201  1.00  0.00     0.000 HD 
HETATM   47  O   UNL     1      -6.692  18.889  64.960  1.00  0.00    -0.499 OA 
ENDBRANCH  41  43
ENDBRANCH  18  41
BRANCH  28  48
HETATM   48  C   UNL     1     -10.863  14.325  66.279  1.00  0.00    -0.310 C  
HETATM   49  O   UNL     1      -9.435  14.215  66.182  1.00  0.00    -0.408 OA 
HETATM   50  H   UNL     1      -9.075  13.746  66.926  1.00  0.00     0.000 HD 
ENDBRANCH  28  48
BRANCH  40  51
HETATM   51  CB  UNL     1     -10.712  10.725  63.000  1.00  0.00     0.554 C  
HETATM   52  O   UNL     1      -9.580  10.095  62.397  1.00  0.00    -0.522 OA 
HETATM   53  H   UNL     1      -9.816   9.366  61.835  1.00  0.00     0.000 HD 
ENDBRANCH  40  51
BRANCH  31  54
HETATM   54  N   UNL     1      -8.443   9.083  67.303  1.00  0.00    -0.114 N  
HETATM   55  H   UNL     1      -7.529   8.793  67.650  1.00  0.00     0.000 HD 
HETATM   56  O   UNL     1     -10.486   8.426  66.535  1.00  0.00    -0.249 OA 
HETATM   57  C   UNL     1      -9.362   8.123  66.931  1.00  0.00    -0.173 C  
BRANCH  57  58
HETATM   58  C   UNL     1      -8.860   6.690  67.074  1.00  0.00    -0.114 C  
BRANCH  58  59
HETATM   59  C   UNL     1      -8.606   5.973  65.730  1.00  0.00    -0.155 C  
HETATM   60  H1  UNL     1      -9.714   5.132  64.210  1.00  0.00     0.000 HD 
HETATM   61  N   UNL     1      -9.882   5.606  65.098  1.00  0.00    -0.059 NA 
HETATM   62  H2  UNL     1     -10.499   6.411  64.989  1.00  0.00     0.000 HD 
BRANCH  59  63
HETATM   63  C   UNL     1      -7.828   6.844  64.715  1.00  0.00    -0.119 C  
BRANCH  63  64
HETATM   64  C   UNL     1      -6.310   6.812  64.916  1.00  0.00    -0.039 C  
BRANCH  64  65
HETATM   65  C   UNL     1      -5.630   5.808  63.983  1.00  0.00    -0.017 C  
HETATM   66  N   UNL     1      -5.997   6.102  62.602  1.00  0.00    -0.026 NA 
HETATM   67  H2  UNL     1      -5.791   7.068  62.345  1.00  0.00     0.000 HD 
HETATM   68  H1  UNL     1      -5.544   5.433  61.979  1.00  0.00     0.000 HD 
ENDBRANCH  64  65
ENDBRANCH  63  64
ENDBRANCH  59  63
ENDBRANCH  58  59
ENDBRANCH  57  58
ENDBRANCH  31  54
ENDBRANCH   1  14
TORSDOF 11
ENDMDL
MODEL       75
REMARK 921   NORMALIZED FREE ENERGY PREDICTED BY IDOCK:    5.36 KCAL/MOL
REMARK 922        TOTAL FREE ENERGY PREDICTED BY IDOCK:    6.85 KCAL/MOL
REMARK 923 INTER-LIGAND FREE ENERGY PREDICTED BY IDOCK:   -4.85 KCAL/MOL
REMARK 924 INTRA-LIGAND FREE ENERGY PREDICTED BY IDOCK:   11.70 KCAL/MOL
REMARK 927      BINDING AFFINITY PREDICTED BY RF-SCORE:    0.00 PKD
ROOT
HETATM    1  C   UNL     1      -7.207  12.715  69.392  1.00  0.00     0.267 C  
HETATM    2  C   UNL     1      -7.866  13.808  70.285  1.00  0.00     2.020 C  
HETATM    3  H1  UNL     1      -9.270  11.659  66.536  1.00  0.00     0.000 HD 
HETATM    4  H   UNL     1      -8.240  10.820  69.062  1.00  0.00     0.000 HD 
HETATM    5  C   UNL     1      -9.103  14.387  69.603  1.00  0.00     0.602 C  
HETATM    6  H2  UNL     1     -10.440  12.937  66.808  1.00  0.00     0.000 HD 
HETATM    7  N   UNL     1      -9.973  13.300  69.249  1.00  0.00    -0.215 NA 
HETATM    8  O   UNL     1      -9.793  15.260  70.467  1.00  0.00    -0.357 OA 
HETATM    9  N   UNL     1      -8.300  11.833  68.956  1.00  0.00     0.092 NA 
HETATM   10  N   UNL     1      -9.711  12.323  67.172  1.00  0.00    -0.199 NA 
HETATM   11  H   UNL     1     -10.928  13.203  69.596  1.00  0.00     0.000 HD 
HETATM   12  C   UNL     1      -9.390  12.421  68.407  1.00  0.00    -0.158 C  
HETATM   13  H   UNL     1     -10.563  15.620  70.043  1.00  0.00     0.000 HD 
ENDROOT
BRANCH   1  14
HETATM   14  C   UNL     1      -6.369  13.263  68.188  1.00  0.00    -0.110 C  
HETATM   15  N   UNL     1      -9.240  16.987  67.087  1.00  0.00    -0.230 N  
HETATM   16  O   UNL     1      -7.697  15.856  69.197  1.00  0.00    -0.195 OA 
HETATM   17  C   UNL     1      -7.378  15.662  68.031  1.00  0.00    -0.127 C  
HETATM   18  C   UNL     1      -6.945  17.372  66.345  1.00  0.00    -0.279 C  
HETATM   19  N   UNL     1     -10.917  11.730  65.038  1.00  0.00    -0.306 N  
HETATM   20  H   UNL     1      -6.681  14.546  66.500  1.00  0.00     0.000 HD 
HETATM   21  N   UNL     1      -6.817  14.530  67.512  1.00  0.00    -0.181 N  
HETATM   22  H   UNL     1      -9.655  17.387  67.928  1.00  0.00     0.000 HD 
HETATM   23  C   UNL     1      -7.863  16.690  67.040  1.00  0.00    -0.198 C  
HETATM   24  C   UNL     1     -10.033  16.724  65.958  1.00  0.00    -0.313 C  
HETATM   25  O   UNL     1      -5.486  12.409  66.084  1.00  0.00     0.471 OA 
HETATM   26  O   UNL     1      -9.912  17.318  64.889  1.00  0.00     0.402 OA 
HETATM   27  N   UNL     1      -7.361  11.367  66.858  1.00  0.00    -0.143 N  
HETATM   28  CA  UNL     1     -10.985  15.493  66.135  1.00  0.00    -0.247 C  
HETATM   29  N   UNL     1     -11.670  15.007  64.917  1.00  0.00    -0.364 N  
HETATM   30  C   UNL     1      -7.611  10.560  65.660  1.00  0.00    -0.134 C  
HETATM   31  CA  UNL     1      -9.100  10.117  65.611  1.00  0.00    -0.179 C  
HETATM   32  H   UNL     1      -7.999  11.263  67.648  1.00  0.00     0.000 HD 
HETATM   33  H   UNL     1     -11.670  15.535  64.045  1.00  0.00     0.000 HD 
HETATM   34  O   UNL     1      -9.714  10.789  63.354  1.00  0.00    -0.291 OA 
HETATM   35  C   UNL     1     -12.321  13.770  65.041  1.00  0.00    -0.428 C  
HETATM   36  C   UNL     1      -9.897  10.926  64.564  1.00  0.00    -0.300 C  
HETATM   37  H   UNL     1     -11.109  11.719  66.040  1.00  0.00     0.000 HD 
HETATM   38  C   UNL     1      -6.315  12.259  66.983  1.00  0.00    -0.050 C  
HETATM   39  O   UNL     1     -13.066  13.551  66.000  1.00  0.00    -0.142 OA 
HETATM   40  CA  UNL     1     -11.754  12.611  64.173  1.00  0.00    -0.400 C  
BRANCH  18  41
HETATM   41  N   UNL     1      -7.237  18.500  65.618  1.00  0.00    -0.184 N  
HETATM   42  H   UNL     1      -7.946  18.439  64.887  1.00  0.00     0.000 HD 
BRANCH  41  43
HETATM   43  C   UNL     1      -6.624  19.699  65.830  1.00  0.00    -0.233 C  
HETATM   44  H2  UNL     1      -6.777  20.115  63.779  1.00  0.00     0.000 HD 
HETATM   45  N   UNL     1      -6.467  20.431  64.698  1.00  0.00    -0.300 N  
HETATM   46  H1  UNL     1      -6.008  21.328  64.856  1.00  0.00     0.000 HD 
HETATM   47  O   UNL     1      -6.245  20.129  66.914  1.00  0.00    -0.180 OA 
ENDBRANCH  41  43
ENDBRANCH  18  41
BRANCH  28  48
HETATM   48  C   UNL     1     -10.086  14.341  66.625  1.00  0.00    -0.273 C  
HETATM   49  O   UNL     1      -9.070  14.026  65.661  1.00  0.00    -0.340 OA 
HETATM   50  H   UNL     1      -8.516  13.316  65.963  1.00  0.00     0.000 HD 
ENDBRANCH  28  48
BRANCH  40  51
HETATM   51  CB  UNL     1     -12.914  11.815  63.566  1.00  0.00    -0.082 C  
HETATM   52  O   UNL     1     -12.514  10.987  62.473  1.00  0.00    -0.268 OA 
HETATM   53  H   UNL     1     -13.233  10.493  62.096  1.00  0.00     0.000 HD 
ENDBRANCH  40  51
BRANCH  31  54
HETATM   54  N   UNL     1      -9.243   8.685  65.325  1.00  0.00    -0.434 N  
HETATM   55  H   UNL     1     -10.103   8.205  65.591  1.00  0.00     0.000 HD 
HETATM   56  O   UNL     1      -7.196   8.517  64.336  1.00  0.00    -0.086 OA 
HETATM   57  C   UNL     1      -8.237   7.975  64.701  1.00  0.00    -0.106 C  
BRANCH  57  58
HETATM   58  C   UNL     1      -8.549   6.495  64.501  1.00  0.00     0.247 C  
BRANCH  58  59
HETATM   59  C   UNL     1      -9.100   5.790  65.759  1.00  0.00    -0.109 C  
HETATM   60  H1  UNL     1     -10.565   4.419  66.229  1.00  0.00     0.000 HD 
HETATM   61  N   UNL     1     -10.201   4.885  65.397  1.00  0.00    -0.421 NA 
HETATM   62  H2  UNL     1      -9.923   4.217  64.678  1.00  0.00     0.000 HD 
BRANCH  59  63
HETATM   63  C   UNL     1      -8.036   4.942  66.496  1.00  0.00    -0.107 C  
BRANCH  63  64
HETATM   64  C   UNL     1      -7.295   5.708  67.597  1.00  0.00    -0.077 C  
BRANCH  64  65
HETATM   65  C   UNL     1      -8.150   6.831  68.187  1.00  0.00    -0.115 C  
HETATM   66  N   UNL     1      -7.506   7.354  69.387  1.00  0.00    -0.089 NA 
HETATM   67  H2  UNL     1      -6.547   7.652  69.211  1.00  0.00     0.000 HD 
HETATM   68  H1  UNL     1      -8.076   8.102  69.780  1.00  0.00     0.000 HD 
ENDBRANCH  64  65
ENDBRANCH  63  64
ENDBRANCH  59  63
ENDBRANCH  58  59
ENDBRANCH  57  58
ENDBRANCH  31  54
ENDBRANCH   1  14
TORSDOF 11
ENDMDL
MODEL       76
REMARK 921   NORMALIZED FREE ENERGY PREDICTED BY IDOCK:    6.11 KCAL/MOL
REMARK 922        TOTAL FREE ENERGY PREDICTED BY IDOCK:    8.08 KCAL/MOL
REMARK 923 INTER-LIGAND FREE ENERGY PREDICTED BY IDOCK:   -2.84 KCAL/MOL
REMARK 924 INTRA-LIGAND FREE ENERGY PREDICTED BY IDOCK:   10.91 KCAL/MOL
REMARK 927      BINDING AFFINITY PREDICTED BY RF-SCORE:    0.00 PKD
ROOT
HETATM    1  C   UNL     1      -9.993  10.022  70.188  1.00  0.00    -0.184 C  
HETATM    2  C   UNL     1     -11.420  10.640  70.281  1.00  0.00    -0.422 C  
HETATM    3  H1  UNL     1      -8.778   9.547  66.749  1.00  0.00     0.000 HD 
HETATM    4  H   UNL     1      -9.687   8.168  69.076  1.00  0.00     0.000 HD 
HETATM    5  C   UNL     1     -11.870  11.163  68.919  1.00  0.00    -0.337 C  
HETATM    6  H2  UNL     1     -10.127  10.437  66.067  1.00  0.00     0.000 HD 
HETATM    7  N   UNL     1     -11.740  10.100  67.962  1.00  0.00    -0.615 NA 
HETATM    8  O   UNL     1     -13.215  11.580  68.959  1.00  0.00     1.145 OA 
HETATM    9  N   UNL     1     -10.010   9.134  69.016  1.00  0.00    -0.178 NA 
HETATM   10  N   UNL     1      -9.737   9.886  66.831  1.00  0.00    -0.178 NA 
HETATM   11  H   UNL     1     -12.522   9.725  67.423  1.00  0.00     0.000 HD 
HETATM   12  C   UNL     1     -10.472   9.651  67.852  1.00  0.00    -0.246 C  
HETATM   13  H   UNL     1     -13.495  11.905  68.111  1.00  0.00     0.000 HD 
ENDROOT
BRANCH   1  14
HETATM   14  C   UNL     1      -8.825  11.064  70.128  1.00  0.00     1.741 C  
HETATM   15  N   UNL     1     -10.716  13.910  66.716  1.00  0.00    -0.280 N  
HETATM   16  O   UNL     1     -11.216  12.826  69.302  1.00  0.00    -0.242 OA 
HETATM   17  C   UNL     1     -10.066  13.017  68.928  1.00  0.00     0.046 C  
HETATM   18  C   UNL     1      -9.137  15.126  68.126  1.00  0.00    -0.176 C  
HETATM   19  N   UNL     1      -8.022   9.032  64.819  1.00  0.00    -0.121 N  
HETATM   20  H   UNL     1      -8.107  12.555  68.768  1.00  0.00     0.000 HD 
HETATM   21  N   UNL     1      -8.969  12.260  69.229  1.00  0.00     0.693 N  
HETATM   22  H   UNL     1     -11.732  13.957  66.804  1.00  0.00     0.000 HD 
HETATM   23  C   UNL     1      -9.893  14.058  67.850  1.00  0.00    -0.233 C  
HETATM   24  C   UNL     1     -10.120  13.697  65.463  1.00  0.00    -0.275 C  
HETATM   25  O   UNL     1      -6.416  11.035  69.764  1.00  0.00    -0.106 OA 
HETATM   26  O   UNL     1      -9.429  14.534  64.887  1.00  0.00     0.290 OA 
HETATM   27  N   UNL     1      -7.577   9.328  68.794  1.00  0.00    -0.079 N  
HETATM   28  CA  UNL     1     -10.284  12.233  64.932  1.00  0.00    -0.281 C  
HETATM   29  N   UNL     1      -9.482  11.866  63.743  1.00  0.00    -0.531 N  
HETATM   30  C   UNL     1      -6.461   8.791  68.011  1.00  0.00    -0.057 C  
HETATM   31  CA  UNL     1      -6.996   7.948  66.819  1.00  0.00    -0.073 C  
HETATM   32  H   UNL     1      -8.478   8.855  68.731  1.00  0.00     0.000 HD 
HETATM   33  H   UNL     1      -8.983  12.561  63.188  1.00  0.00     0.000 HD 
HETATM   34  O   UNL     1      -5.756   8.920  64.964  1.00  0.00    -0.053 OA 
HETATM   35  C   UNL     1      -9.455  10.499  63.429  1.00  0.00    -0.316 C  
HETATM   36  C   UNL     1      -6.853   8.706  65.480  1.00  0.00    -0.075 C  
HETATM   37  H   UNL     1      -8.906   8.729  65.229  1.00  0.00     0.000 HD 
HETATM   38  C   UNL     1      -7.482  10.436  69.613  1.00  0.00    -0.157 C  
HETATM   39  O   UNL     1     -10.501   9.847  63.387  1.00  0.00     1.171 OA 
HETATM   40  CA  UNL     1      -8.069   9.802  63.542  1.00  0.00    -0.150 C  
BRANCH  18  41
HETATM   41  N   UNL     1      -9.114  16.254  67.343  1.00  0.00    -0.194 N  
HETATM   42  H   UNL     1      -8.995  16.145  66.336  1.00  0.00     0.000 HD 
BRANCH  41  43
HETATM   43  C   UNL     1      -9.244  17.513  67.850  1.00  0.00    -0.265 C  
HETATM   44  H2  UNL     1     -10.924  16.878  68.937  1.00  0.00     0.000 HD 
HETATM   45  N   UNL     1     -10.294  17.645  68.701  1.00  0.00    -0.368 N  
HETATM   46  H1  UNL     1     -10.391  18.586  69.080  1.00  0.00     0.000 HD 
HETATM   47  O   UNL     1      -8.508  18.463  67.608  1.00  0.00    -0.251 OA 
ENDBRANCH  41  43
ENDBRANCH  18  41
BRANCH  28  48
HETATM   48  C   UNL     1      -9.811  11.319  66.080  1.00  0.00    -0.225 C  
HETATM   49  O   UNL     1      -8.415  11.508  66.355  1.00  0.00    -0.180 OA 
HETATM   50  H   UNL     1      -8.124  10.945  67.063  1.00  0.00     0.000 HD 
ENDBRANCH  28  48
BRANCH  40  51
HETATM   51  CB  UNL     1      -7.873   8.862  62.347  1.00  0.00    -0.127 C  
HETATM   52  O   UNL     1      -8.751   7.736  62.369  1.00  0.00    -0.406 OA 
HETATM   53  H   UNL     1      -8.629   7.154  61.627  1.00  0.00     0.000 HD 
ENDBRANCH  40  51
BRANCH  31  54
HETATM   54  N   UNL     1      -6.322   6.649  66.712  1.00  0.00    -0.040 N  
HETATM   55  H   UNL     1      -5.339   6.617  66.442  1.00  0.00     0.000 HD 
HETATM   56  O   UNL     1      -8.168   5.463  67.329  1.00  0.00    -0.104 OA 
HETATM   57  C   UNL     1      -6.992   5.471  66.971  1.00  0.00    -0.065 C  
BRANCH  57  58
HETATM   58  C   UNL     1      -6.142   4.216  66.792  1.00  0.00    -0.031 C  
BRANCH  58  59
HETATM   59  C   UNL     1      -6.706   3.214  65.762  1.00  0.00    -0.044 C  
HETATM   60  H1  UNL     1      -8.510   2.801  64.856  1.00  0.00     0.000 HD 
HETATM   61  N   UNL     1      -8.137   3.464  65.536  1.00  0.00    -0.092 NA 
HETATM   62  H2  UNL     1      -8.317   4.431  65.264  1.00  0.00     0.000 HD 
BRANCH  59  63
HETATM   63  C   UNL     1      -6.006   3.300  64.385  1.00  0.00    -0.018 C  
BRANCH  63  64
HETATM   64  C   UNL     1      -6.436   2.201  63.408  1.00  0.00    -0.014 C  
BRANCH  64  65
HETATM   65  C   UNL     1      -7.699   2.584  62.636  1.00  0.00    -0.058 C  
HETATM   66  N   UNL     1      -8.766   1.639  62.948  1.00  0.00    -0.075 NA 
HETATM   67  H2  UNL     1      -8.935   1.566  63.951  1.00  0.00     0.000 HD 
HETATM   68  H1  UNL     1      -9.608   1.895  62.433  1.00  0.00     0.000 HD 
ENDBRANCH  64  65
ENDBRANCH  63  64
ENDBRANCH  59  63
ENDBRANCH  58  59
ENDBRANCH  57  58
ENDBRANCH  31  54
ENDBRANCH   1  14
TORSDOF 11
ENDMDL
MODEL       77
REMARK 921   NORMALIZED FREE ENERGY PREDICTED BY IDOCK:    6.34 KCAL/MOL
REMARK 922        TOTAL FREE ENERGY PREDICTED BY IDOCK:    8.46 KCAL/MOL
REMARK 923 INTER-LIGAND FREE ENERGY PREDICTED BY IDOCK:   -4.19 KCAL/MOL
REMARK 924 INTRA-LIGAND FREE ENERGY PREDICTED BY IDOCK:   12.65 KCAL/MOL
REMARK 927      BINDING AFFINITY PREDICTED BY RF-SCORE:    0.00 PKD
ROOT
HETATM    1  C   UNL     1     -10.422   4.249  72.249  1.00  0.00    -0.094 C  
HETATM    2  C   UNL     1     -11.368   5.271  72.948  1.00  0.00    -0.368 C  
HETATM    3  H1  UNL     1      -9.202   5.337  68.954  1.00  0.00     0.000 HD 
HETATM    4  H   UNL     1     -10.930   3.485  70.268  1.00  0.00     0.000 HD 
HETATM    5  C   UNL     1     -11.345   6.612  72.219  1.00  0.00    -0.275 C  
HETATM    6  H2  UNL     1      -9.858   6.951  69.157  1.00  0.00     0.000 HD 
HETATM    7  N   UNL     1     -11.639   6.378  70.833  1.00  0.00    -0.345 NA 
HETATM    8  O   UNL     1     -12.312   7.490  72.748  1.00  0.00    -0.534 OA 
HETATM    9  N   UNL     1     -10.733   4.325  70.814  1.00  0.00     0.621 NA 
HETATM   10  N   UNL     1      -9.877   5.960  69.398  1.00  0.00    -0.153 NA 
HETATM   11  H   UNL     1     -12.436   6.789  70.346  1.00  0.00     0.000 HD 
HETATM   12  C   UNL     1     -10.746   5.554  70.245  1.00  0.00    -0.263 C  
HETATM   13  H   UNL     1     -12.297   8.325  72.294  1.00  0.00     0.000 HD 
ENDROOT
BRANCH   1  14
HETATM   14  C   UNL     1      -8.897   4.457  72.539  1.00  0.00    -0.112 C  
HETATM   15  N   UNL     1      -8.802   9.247  71.935  1.00  0.00     0.316 N  
HETATM   16  O   UNL     1     -10.034   7.173  73.451  1.00  0.00    -0.217 OA 
HETATM   17  C   UNL     1      -8.903   7.021  73.008  1.00  0.00    -0.126 C  
HETATM   18  C   UNL     1      -6.990   8.488  73.387  1.00  0.00    -0.024 C  
HETATM   19  N   UNL     1      -8.622   6.013  67.021  1.00  0.00    -0.108 N  
HETATM   20  H   UNL     1      -7.408   5.952  72.172  1.00  0.00     0.000 HD 
HETATM   21  N   UNL     1      -8.348   5.856  72.558  1.00  0.00    -0.117 N  
HETATM   22  H   UNL     1      -9.671   9.672  72.262  1.00  0.00     0.000 HD 
HETATM   23  C   UNL     1      -8.135   8.288  72.724  1.00  0.00    -0.146 C  
HETATM   24  C   UNL     1      -8.255   9.610  70.694  1.00  0.00    -0.007 C  
HETATM   25  O   UNL     1      -6.780   3.598  71.692  1.00  0.00    -0.025 OA 
HETATM   26  O   UNL     1      -7.189  10.208  70.571  1.00  0.00    -0.284 OA 
HETATM   27  N   UNL     1      -8.512   3.581  70.208  1.00  0.00    -0.055 N  
HETATM   28  CA  UNL     1      -9.050   9.044  69.470  1.00  0.00    -0.151 C  
HETATM   29  N   UNL     1      -8.406   9.177  68.144  1.00  0.00    -0.120 N  
HETATM   30  C   UNL     1      -7.720   3.215  69.031  1.00  0.00    -0.047 C  
HETATM   31  CA  UNL     1      -8.468   3.626  67.731  1.00  0.00    -0.095 C  
HETATM   32  H   UNL     1      -9.518   3.706  70.090  1.00  0.00     0.000 HD 
HETATM   33  H   UNL     1      -7.578   9.753  67.997  1.00  0.00     0.000 HD 
HETATM   34  O   UNL     1      -6.724   4.852  66.556  1.00  0.00    -0.051 OA 
HETATM   35  C   UNL     1      -9.011   8.458  67.102  1.00  0.00    -0.137 C  
HETATM   36  C   UNL     1      -7.835   4.880  67.086  1.00  0.00    -0.095 C  
HETATM   37  H   UNL     1      -9.580   5.952  67.367  1.00  0.00     0.000 HD 
HETATM   38  C   UNL     1      -7.980   3.767  71.468  1.00  0.00    -0.065 C  
HETATM   39  O   UNL     1     -10.231   8.516  66.930  1.00  0.00    -0.261 OA 
HETATM   40  CA  UNL     1      -8.156   7.320  66.474  1.00  0.00    -0.114 C  
BRANCH  18  41
HETATM   41  N   UNL     1      -6.342   9.698  73.419  1.00  0.00     0.707 N  
HETATM   42  H   UNL     1      -6.439  10.281  74.250  1.00  0.00     0.000 HD 
BRANCH  41  43
HETATM   43  C   UNL     1      -5.572  10.156  72.390  1.00  0.00     0.368 C  
HETATM   44  H2  UNL     1      -5.383   8.188  71.685  1.00  0.00     0.000 HD 
HETATM   45  N   UNL     1      -5.149   9.172  71.556  1.00  0.00    -0.037 N  
HETATM   46  H1  UNL     1      -4.574   9.515  70.786  1.00  0.00     0.000 HD 
HETATM   47  O   UNL     1      -5.274  11.327  72.184  1.00  0.00    -0.330 OA 
ENDBRANCH  41  43
ENDBRANCH  18  41
BRANCH  28  48
HETATM   48  C   UNL     1      -9.203   7.534  69.736  1.00  0.00    -0.147 C  
HETATM   49  O   UNL     1      -7.924   6.893  69.849  1.00  0.00    -0.115 OA 
HETATM   50  H   UNL     1      -8.018   5.962  70.013  1.00  0.00     0.000 HD 
ENDBRANCH  28  48
BRANCH  40  51
HETATM   51  CB  UNL     1      -8.314   7.348  64.950  1.00  0.00    -0.022 C  
HETATM   52  O   UNL     1      -9.018   8.498  64.479  1.00  0.00    -0.417 OA 
HETATM   53  H   UNL     1      -9.115   8.515  63.534  1.00  0.00     0.000 HD 
ENDBRANCH  40  51
BRANCH  31  54
HETATM   54  N   UNL     1      -8.500   2.540  66.744  1.00  0.00    -0.098 N  
HETATM   55  H   UNL     1      -8.043   1.654  66.960  1.00  0.00     0.000 HD 
HETATM   56  O   UNL     1      -9.724   3.734  65.237  1.00  0.00    -0.171 OA 
HETATM   57  C   UNL     1      -9.136   2.695  65.529  1.00  0.00    -0.127 C  
BRANCH  57  58
HETATM   58  C   UNL     1      -9.053   1.472  64.620  1.00  0.00    -0.122 C  
BRANCH  58  59
HETATM   59  C   UNL     1      -7.980   1.578  63.516  1.00  0.00    -0.060 C  
HETATM   60  H1  UNL     1      -7.730   2.542  61.711  1.00  0.00     0.000 HD 
HETATM   61  N   UNL     1      -8.439   2.471  62.441  1.00  0.00    -0.073 NA 
HETATM   62  H2  UNL     1      -8.710   3.388  62.798  1.00  0.00     0.000 HD 
BRANCH  59  63
HETATM   63  C   UNL     1      -6.632   2.139  64.030  1.00  0.00    -0.026 C  
BRANCH  63  64
HETATM   64  C   UNL     1      -5.827   2.881  62.958  1.00  0.00    -0.009 C  
BRANCH  64  65
HETATM   65  C   UNL     1      -5.625   4.355  63.312  1.00  0.00    -0.013 C  
HETATM   66  N   UNL     1      -6.924   4.998  63.481  1.00  0.00    -0.046 NA 
HETATM   67  H2  UNL     1      -7.508   4.514  64.163  1.00  0.00     0.000 HD 
HETATM   68  H1  UNL     1      -6.789   5.980  63.717  1.00  0.00     0.000 HD 
ENDBRANCH  64  65
ENDBRANCH  63  64
ENDBRANCH  59  63
ENDBRANCH  58  59
ENDBRANCH  57  58
ENDBRANCH  31  54
ENDBRANCH   1  14
TORSDOF 11
ENDMDL
MODEL       78
REMARK 921   NORMALIZED FREE ENERGY PREDICTED BY IDOCK:    6.66 KCAL/MOL
REMARK 922        TOTAL FREE ENERGY PREDICTED BY IDOCK:    8.99 KCAL/MOL
REMARK 923 INTER-LIGAND FREE ENERGY PREDICTED BY IDOCK:    7.81 KCAL/MOL
REMARK 924 INTRA-LIGAND FREE ENERGY PREDICTED BY IDOCK:    1.18 KCAL/MOL
REMARK 927      BINDING AFFINITY PREDICTED BY RF-SCORE:    0.00 PKD
ROOT
HETATM    1  C   UNL     1     -11.693  11.670  68.391  1.00  0.00    -0.307 C  
HETATM    2  C   UNL     1     -11.174  12.894  69.203  1.00  0.00    -0.293 C  
HETATM    3  H1  UNL     1     -13.671  12.563  65.421  1.00  0.00     0.000 HD 
HETATM    4  H   UNL     1     -13.834  11.434  68.038  1.00  0.00     0.000 HD 
HETATM    5  C   UNL     1     -11.376  14.187  68.417  1.00  0.00    -0.287 C  
HETATM    6  H2  UNL     1     -13.274  14.264  65.572  1.00  0.00     0.000 HD 
HETATM    7  N   UNL     1     -12.758  14.269  68.030  1.00  0.00    -0.004 NA 
HETATM    8  O   UNL     1     -11.057  15.311  69.205  1.00  0.00    -0.235 OA 
HETATM    9  N   UNL     1     -13.027  12.044  67.900  1.00  0.00     2.382 NA 
HETATM   10  N   UNL     1     -13.380  13.347  66.005  1.00  0.00     0.153 NA 
HETATM   11  H   UNL     1     -13.380  15.028  68.309  1.00  0.00     0.000 HD 
HETATM   12  C   UNL     1     -13.142  13.231  67.257  1.00  0.00     2.762 C  
HETATM   13  H   UNL     1     -11.182  16.116  68.715  1.00  0.00     0.000 HD 
ENDROOT
BRANCH   1  14
HETATM   14  C   UNL     1     -10.746  11.196  67.237  1.00  0.00    -0.258 C  
HETATM   15  N   UNL     1     -10.213   6.630  68.716  1.00  0.00    -0.161 N  
HETATM   16  O   UNL     1     -12.167   8.553  67.943  1.00  0.00     3.701 OA 
HETATM   17  C   UNL     1     -11.031   8.617  67.492  1.00  0.00     0.160 C  
HETATM   18  C   UNL     1      -9.839   6.845  66.312  1.00  0.00     0.061 C  
HETATM   19  N   UNL     1      -6.844  10.636  71.409  1.00  0.00     1.130 N  
HETATM   20  H   UNL     1      -9.372   9.592  66.879  1.00  0.00     0.000 HD 
HETATM   21  N   UNL     1     -10.332   9.751  67.189  1.00  0.00    -0.237 N  
HETATM   22  H   UNL     1     -11.072   6.284  69.143  1.00  0.00     0.000 HD 
HETATM   23  C   UNL     1     -10.253   7.325  67.491  1.00  0.00    -0.221 C  
HETATM   24  C   UNL     1      -8.973   6.421  69.342  1.00  0.00    -0.131 C  
HETATM   25  O   UNL     1      -8.614  11.877  66.274  1.00  0.00    -0.133 OA 
HETATM   26  O   UNL     1      -8.088   5.707  68.875  1.00  0.00    -0.098 OA 
HETATM   27  N   UNL     1      -8.917  12.412  68.470  1.00  0.00    -0.355 N  
HETATM   28  CA  UNL     1      -8.757   7.307  70.614  1.00  0.00    -0.147 C  
HETATM   29  N   UNL     1      -7.392   7.323  71.185  1.00  0.00    -0.073 N  
HETATM   30  C   UNL     1      -7.546  12.865  68.723  1.00  0.00    -0.025 C  
HETATM   31  CA  UNL     1      -7.232  12.808  70.244  1.00  0.00     1.803 C  
HETATM   32  H   UNL     1      -9.586  12.457  69.239  1.00  0.00     0.000 HD 
HETATM   33  H   UNL     1      -6.669   6.670  70.885  1.00  0.00     0.000 HD 
HETATM   34  O   UNL     1      -5.134  11.574  70.242  1.00  0.00    -0.070 OA 
HETATM   35  C   UNL     1      -7.157   8.298  72.167  1.00  0.00    -0.090 C  
HETATM   36  C   UNL     1      -6.315  11.613  70.588  1.00  0.00     0.466 C  
HETATM   37  H   UNL     1      -7.789  10.771  71.768  1.00  0.00     0.000 HD 
HETATM   38  C   UNL     1      -9.357  11.927  67.255  1.00  0.00    -0.177 C  
HETATM   39  O   UNL     1      -7.951   8.449  73.099  1.00  0.00    -0.289 OA 
HETATM   40  CA  UNL     1      -6.116   9.395  71.803  1.00  0.00     0.025 C  
BRANCH  18  41
HETATM   41  N   UNL     1      -9.361   5.568  66.146  1.00  0.00    -0.157 N  
HETATM   42  H   UNL     1      -9.890   4.794  66.550  1.00  0.00     0.000 HD 
BRANCH  41  43
HETATM   43  C   UNL     1      -8.214   5.287  65.466  1.00  0.00    -0.124 C  
HETATM   44  H2  UNL     1      -7.481   7.191  65.959  1.00  0.00     0.000 HD 
HETATM   45  N   UNL     1      -7.315   6.304  65.484  1.00  0.00    -0.077 N  
HETATM   46  H1  UNL     1      -6.456   6.094  64.976  1.00  0.00     0.000 HD 
HETATM   47  O   UNL     1      -7.960   4.234  64.892  1.00  0.00    -0.091 OA 
ENDBRANCH  41  43
ENDBRANCH  18  41
BRANCH  28  48
HETATM   48  C   UNL     1      -9.067   8.751  70.173  1.00  0.00    -0.167 C  
HETATM   49  O   UNL     1     -10.292   9.222  70.756  1.00  0.00    -0.236 OA 
HETATM   50  H   UNL     1     -10.483  10.112  70.484  1.00  0.00     0.000 HD 
ENDBRANCH  28  48
BRANCH  40  51
HETATM   51  CB  UNL     1      -5.217   9.666  73.015  1.00  0.00    -0.024 C  
HETATM   52  O   UNL     1      -5.925  10.220  74.125  1.00  0.00     0.026 OA 
HETATM   53  H   UNL     1      -5.368  10.388  74.876  1.00  0.00     0.000 HD 
ENDBRANCH  40  51
BRANCH  31  54
HETATM   54  N   UNL     1      -6.612  14.047  70.729  1.00  0.00    -0.397 N  
HETATM   55  H   UNL     1      -6.660  14.888  70.154  1.00  0.00     0.000 HD 
HETATM   56  O   UNL     1      -5.907  13.115  72.686  1.00  0.00     0.015 OA 
HETATM   57  C   UNL     1      -5.965  14.096  71.947  1.00  0.00     0.102 C  
BRANCH  57  58
HETATM   58  C   UNL     1      -5.363  15.457  72.280  1.00  0.00     0.236 C  
BRANCH  58  59
HETATM   59  C   UNL     1      -5.890  16.612  71.403  1.00  0.00     1.001 C  
HETATM   60  H1  UNL     1      -5.620  18.648  71.226  1.00  0.00     0.000 HD 
HETATM   61  N   UNL     1      -5.271  17.884  71.805  1.00  0.00    -0.400 NA 
HETATM   62  H2  UNL     1      -4.252  17.832  71.794  1.00  0.00     0.000 HD 
BRANCH  59  63
HETATM   63  C   UNL     1      -5.592  16.417  69.897  1.00  0.00    -0.185 C  
BRANCH  63  64
HETATM   64  C   UNL     1      -6.486  17.259  68.980  1.00  0.00    -0.221 C  
BRANCH  64  65
HETATM   65  C   UNL     1      -6.075  18.732  68.978  1.00  0.00    -0.228 C  
HETATM   66  N   UNL     1      -7.222  19.558  69.339  1.00  0.00    -0.316 NA 
HETATM   67  H2  UNL     1      -7.636  19.275  70.228  1.00  0.00     0.000 HD 
HETATM   68  H1  UNL     1      -6.948  20.540  69.338  1.00  0.00     0.000 HD 
ENDBRANCH  64  65
ENDBRANCH  63  64
ENDBRANCH  59  63
ENDBRANCH  58  59
ENDBRANCH  57  58
ENDBRANCH  31  54
ENDBRANCH   1  14
TORSDOF 11
ENDMDL
MODEL       79
REMARK 921   NORMALIZED FREE ENERGY PREDICTED BY IDOCK:    6.70 KCAL/MOL
REMARK 922        TOTAL FREE ENERGY PREDICTED BY IDOCK:    9.05 KCAL/MOL
REMARK 923 INTER-LIGAND FREE ENERGY PREDICTED BY IDOCK:    0.21 KCAL/MOL
REMARK 924 INTRA-LIGAND FREE ENERGY PREDICTED BY IDOCK:    8.84 KCAL/MOL
REMARK 927      BINDING AFFINITY PREDICTED BY RF-SCORE:    0.00 PKD
ROOT
HETATM    1  C   UNL     1     -10.582  12.109  65.736  1.00  0.00    -0.260 C  
HETATM    2  C   UNL     1     -11.805  12.510  66.614  1.00  0.00    -0.422 C  
HETATM    3  H1  UNL     1      -8.176  14.833  65.171  1.00  0.00     0.000 HD 
HETATM    4  H   UNL     1     -10.157  13.216  63.903  1.00  0.00     0.000 HD 
HETATM    5  C   UNL     1     -11.575  13.871  67.267  1.00  0.00    -0.365 C  
HETATM    6  H2  UNL     1      -8.970  15.881  66.330  1.00  0.00     0.000 HD 
HETATM    7  N   UNL     1     -11.243  14.816  66.237  1.00  0.00    -0.342 NA 
HETATM    8  O   UNL     1     -12.735  14.312  67.934  1.00  0.00    -0.294 OA 
HETATM    9  N   UNL     1     -10.267  13.288  64.915  1.00  0.00    -0.318 NA 
HETATM   10  N   UNL     1      -9.017  15.093  65.685  1.00  0.00     0.247 NA 
HETATM   11  H   UNL     1     -11.790  15.656  66.042  1.00  0.00     0.000 HD 
HETATM   12  C   UNL     1     -10.129  14.473  65.557  1.00  0.00    -0.366 C  
HETATM   13  H   UNL     1     -12.592  15.159  68.341  1.00  0.00     0.000 HD 
ENDROOT
BRANCH   1  14
HETATM   14  C   UNL     1      -9.338  11.591  66.534  1.00  0.00    -0.197 C  
HETATM   15  N   UNL     1     -11.698   8.541  69.440  1.00  0.00     0.146 N  
HETATM   16  O   UNL     1     -11.196   9.136  66.700  1.00  0.00     0.444 OA 
HETATM   17  C   UNL     1     -10.365   9.423  67.553  1.00  0.00    -0.255 C  
HETATM   18  C   UNL     1      -9.360   7.893  69.166  1.00  0.00    -0.154 C  
HETATM   19  N   UNL     1     -11.804  14.214  71.005  1.00  0.00    -0.495 N  
HETATM   20  H   UNL     1      -8.955  10.599  68.393  1.00  0.00     0.000 HD 
HETATM   21  N   UNL     1      -9.536  10.508  67.558  1.00  0.00    -0.149 N  
HETATM   22  H   UNL     1     -12.484   8.109  68.952  1.00  0.00     0.000 HD 
HETATM   23  C   UNL     1     -10.432   8.618  68.827  1.00  0.00    -0.185 C  
HETATM   24  C   UNL     1     -11.866   9.067  70.731  1.00  0.00    -0.206 C  
HETATM   25  O   UNL     1      -7.525  12.553  67.847  1.00  0.00    -0.097 OA 
HETATM   26  O   UNL     1     -11.322   8.602  71.730  1.00  0.00    -0.278 OA 
HETATM   27  N   UNL     1      -9.450  13.774  67.787  1.00  0.00    -0.209 N  
HETATM   28  CA  UNL     1     -12.684  10.401  70.762  1.00  0.00    -0.371 C  
HETATM   29  N   UNL     1     -12.696  11.141  72.044  1.00  0.00    -0.184 N  
HETATM   30  C   UNL     1      -9.058  14.755  68.803  1.00  0.00    -0.191 C  
HETATM   31  CA  UNL     1     -10.318  15.432  69.413  1.00  0.00    -0.258 C  
HETATM   32  H   UNL     1     -10.366  13.877  67.350  1.00  0.00     0.000 HD 
HETATM   33  H   UNL     1     -12.344  10.734  72.910  1.00  0.00     0.000 HD 
HETATM   34  O   UNL     1      -9.891  15.156  71.793  1.00  0.00     1.700 OA 
HETATM   35  C   UNL     1     -13.224  12.440  71.990  1.00  0.00    -0.409 C  
HETATM   36  C   UNL     1     -10.616  14.899  70.832  1.00  0.00     0.328 C  
HETATM   37  H   UNL     1     -12.429  14.128  70.203  1.00  0.00     0.000 HD 
HETATM   38  C   UNL     1      -8.656  12.718  67.387  1.00  0.00    -0.194 C  
HETATM   39  O   UNL     1     -14.302  12.652  71.429  1.00  0.00     1.447 OA 
HETATM   40  CA  UNL     1     -12.227  13.594  72.294  1.00  0.00     0.501 C  
BRANCH  18  41
HETATM   41  N   UNL     1      -9.384   6.926  70.141  1.00  0.00    -0.159 N  
HETATM   42  H   UNL     1     -10.031   7.038  70.922  1.00  0.00     0.000 HD 
BRANCH  41  43
HETATM   43  C   UNL     1      -8.583   5.823  70.114  1.00  0.00    -0.128 C  
HETATM   44  H2  UNL     1      -8.244   6.046  72.174  1.00  0.00     0.000 HD 
HETATM   45  N   UNL     1      -8.058   5.510  71.326  1.00  0.00    -0.111 N  
HETATM   46  H1  UNL     1      -7.458   4.685  71.306  1.00  0.00     0.000 HD 
HETATM   47  O   UNL     1      -8.339   5.139  69.127  1.00  0.00    -0.086 OA 
ENDBRANCH  41  43
ENDBRANCH  18  41
BRANCH  28  48
HETATM   48  C   UNL     1     -12.013  11.325  69.727  1.00  0.00    -0.360 C  
HETATM   49  O   UNL     1     -12.638  11.207  68.440  1.00  0.00    -0.337 OA 
HETATM   50  H   UNL     1     -12.224  11.777  67.802  1.00  0.00     0.000 HD 
ENDBRANCH  28  48
BRANCH  40  51
HETATM   51  CB  UNL     1     -12.911  14.635  73.187  1.00  0.00    -0.481 C  
HETATM   52  O   UNL     1     -12.013  15.262  74.105  1.00  0.00    -0.533 OA 
HETATM   53  H   UNL     1     -12.438  15.908  74.658  1.00  0.00     0.000 HD 
ENDBRANCH  40  51
BRANCH  31  54
HETATM   54  N   UNL     1     -10.192  16.893  69.463  1.00  0.00    -0.199 N  
HETATM   55  H   UNL     1      -9.696  17.378  68.715  1.00  0.00     0.000 HD 
HETATM   56  O   UNL     1     -11.363  17.085  71.409  1.00  0.00     0.173 OA 
HETATM   57  C   UNL     1     -10.732  17.623  70.502  1.00  0.00     1.490 C  
BRANCH  57  58
HETATM   58  C   UNL     1     -10.488  19.126  70.402  1.00  0.00     1.620 C  
BRANCH  58  59
HETATM   59  C   UNL     1     -10.652  19.698  68.977  1.00  0.00     0.307 C  
HETATM   60  H1  UNL     1     -10.868  21.542  68.083  1.00  0.00     0.000 HD 
HETATM   61  N   UNL     1     -10.759  21.164  69.024  1.00  0.00     0.787 NA 
HETATM   62  H2  UNL     1      -9.973  21.588  69.517  1.00  0.00     0.000 HD 
BRANCH  59  63
HETATM   63  C   UNL     1      -9.464  19.358  68.046  1.00  0.00    -0.413 C  
BRANCH  63  64
HETATM   64  C   UNL     1      -9.827  18.387  66.918  1.00  0.00    -0.347 C  
BRANCH  64  65
HETATM   65  C   UNL     1      -8.914  18.556  65.702  1.00  0.00     0.762 C  
HETATM   66  N   UNL     1      -8.067  19.729  65.889  1.00  0.00    -0.388 NA 
HETATM   67  H2  UNL     1      -7.542  19.691  66.762  1.00  0.00     0.000 HD 
HETATM   68  H1  UNL     1      -7.458  19.842  65.078  1.00  0.00     0.000 HD 
ENDBRANCH  64  65
ENDBRANCH  63  64
ENDBRANCH  59  63
ENDBRANCH  58  59
ENDBRANCH  57  58
ENDBRANCH  31  54
ENDBRANCH   1  14
TORSDOF 11
ENDMDL
MODEL       80
REMARK 921   NORMALIZED FREE ENERGY PREDICTED BY IDOCK:    7.06 KCAL/MOL
REMARK 922        TOTAL FREE ENERGY PREDICTED BY IDOCK:    9.64 KCAL/MOL
REMARK 923 INTER-LIGAND FREE ENERGY PREDICTED BY IDOCK:    5.81 KCAL/MOL
REMARK 924 INTRA-LIGAND FREE ENERGY PREDICTED BY IDOCK:    3.83 KCAL/MOL
REMARK 927      BINDING AFFINITY PREDICTED BY RF-SCORE:    0.00 PKD
ROOT
HETATM    1  C   UNL     1      -5.871   9.600  72.783  1.00  0.00     0.331 C  
HETATM    2  C   UNL     1      -7.397   9.712  73.074  1.00  0.00     2.090 C  
HETATM    3  H1  UNL     1      -4.588   6.153  72.780  1.00  0.00     0.000 HD 
HETATM    4  H   UNL     1      -4.564   8.614  74.227  1.00  0.00     0.000 HD 
HETATM    5  C   UNL     1      -8.059   8.338  73.015  1.00  0.00    -0.149 C  
HETATM    6  H2  UNL     1      -6.200   5.470  72.870  1.00  0.00     0.000 HD 
HETATM    7  N   UNL     1      -7.346   7.455  73.897  1.00  0.00    -0.096 NA 
HETATM    8  O   UNL     1      -9.404   8.407  73.431  1.00  0.00    -0.183 OA 
HETATM    9  N   UNL     1      -5.377   8.497  73.621  1.00  0.00    -0.068 NA 
HETATM   10  N   UNL     1      -5.570   6.254  73.037  1.00  0.00    -0.037 NA 
HETATM   11  H   UNL     1      -7.775   6.981  74.692  1.00  0.00     0.000 HD 
HETATM   12  C   UNL     1      -6.046   7.321  73.558  1.00  0.00    -0.057 C  
HETATM   13  H   UNL     1      -9.815   7.552  73.394  1.00  0.00     0.000 HD 
ENDROOT
BRANCH   1  14
HETATM   14  C   UNL     1      -5.500   9.411  71.273  1.00  0.00    -0.060 C  
HETATM   15  N   UNL     1      -7.830  13.285  69.577  1.00  0.00     0.088 N  
HETATM   16  O   UNL     1      -5.810  12.475  71.414  1.00  0.00    -0.329 OA 
HETATM   17  C   UNL     1      -6.025  11.813  70.407  1.00  0.00    -0.123 C  
HETATM   18  C   UNL     1      -5.996  12.626  68.106  1.00  0.00    -0.081 C  
HETATM   19  N   UNL     1     -11.125   8.510  70.570  1.00  0.00    -0.246 N  
HETATM   20  H   UNL     1      -6.217  10.090  69.373  1.00  0.00     0.000 HD 
HETATM   21  N   UNL     1      -5.939  10.455  70.284  1.00  0.00    -0.082 N  
HETATM   22  H   UNL     1      -7.792  14.054  70.247  1.00  0.00     0.000 HD 
HETATM   23  C   UNL     1      -6.667  12.555  69.262  1.00  0.00    -0.060 C  
HETATM   24  C   UNL     1      -9.042  12.941  68.958  1.00  0.00     0.514 C  
HETATM   25  O   UNL     1      -5.706   7.669  69.582  1.00  0.00    -0.023 OA 
HETATM   26  O   UNL     1      -9.252  13.073  67.754  1.00  0.00    -0.183 OA 
HETATM   27  N   UNL     1      -7.271   7.621  71.240  1.00  0.00    -0.061 N  
HETATM   28  CA  UNL     1     -10.053  12.224  69.915  1.00  0.00     1.834 C  
HETATM   29  N   UNL     1     -11.245  11.616  69.282  1.00  0.00    -0.268 N  
HETATM   30  C   UNL     1      -8.124   6.593  70.635  1.00  0.00    -0.112 C  
HETATM   31  CA  UNL     1      -9.562   6.675  71.219  1.00  0.00    -0.169 C  
HETATM   32  H   UNL     1      -7.547   8.000  72.146  1.00  0.00     0.000 HD 
HETATM   33  H   UNL     1     -11.496  11.795  68.311  1.00  0.00     0.000 HD 
HETATM   34  O   UNL     1     -10.892   6.725  69.181  1.00  0.00    -0.238 OA 
HETATM   35  C   UNL     1     -12.008  10.777  70.109  1.00  0.00    -0.349 C  
HETATM   36  C   UNL     1     -10.547   7.307  70.210  1.00  0.00    -0.229 C  
HETATM   37  H   UNL     1     -10.898   8.895  71.487  1.00  0.00     0.000 HD 
HETATM   38  C   UNL     1      -6.118   8.107  70.658  1.00  0.00    -0.032 C  
HETATM   39  O   UNL     1     -12.334  11.145  71.241  1.00  0.00    -0.347 OA 
HETATM   40  CA  UNL     1     -12.060   9.278  69.698  1.00  0.00     0.845 C  
BRANCH  18  41
HETATM   41  N   UNL     1      -6.340  13.480  67.088  1.00  0.00    -0.005 N  
HETATM   42  H   UNL     1      -6.441  13.099  66.147  1.00  0.00     0.000 HD 
BRANCH  41  43
HETATM   43  C   UNL     1      -6.554  14.813  67.276  1.00  0.00     0.194 C  
HETATM   44  H2  UNL     1      -8.484  14.593  66.479  1.00  0.00     0.000 HD 
HETATM   45  N   UNL     1      -7.787  15.221  66.879  1.00  0.00    -0.279 N  
HETATM   46  H1  UNL     1      -7.947  16.219  67.020  1.00  0.00     0.000 HD 
HETATM   47  O   UNL     1      -5.756  15.605  67.763  1.00  0.00    -0.131 OA 
ENDBRANCH  41  43
ENDBRANCH  18  41
BRANCH  28  48
HETATM   48  C   UNL     1      -9.263  11.070  70.564  1.00  0.00     3.003 C  
HETATM   49  O   UNL     1      -8.837  10.113  69.583  1.00  0.00    -0.227 OA 
HETATM   50  H   UNL     1      -8.350   9.402  69.983  1.00  0.00     0.000 HD 
ENDBRANCH  28  48
BRANCH  40  51
HETATM   51  CB  UNL     1     -13.491   8.755  69.859  1.00  0.00     2.932 C  
HETATM   52  O   UNL     1     -14.101   9.160  71.086  1.00  0.00    -0.493 OA 
HETATM   53  H   UNL     1     -14.988   8.835  71.186  1.00  0.00     0.000 HD 
ENDBRANCH  40  51
BRANCH  31  54
HETATM   54  N   UNL     1     -10.069   5.361  71.629  1.00  0.00    -0.195 N  
HETATM   55  H   UNL     1     -10.018   4.579  70.976  1.00  0.00     0.000 HD 
HETATM   56  O   UNL     1     -10.669   6.066  73.712  1.00  0.00    -0.261 OA 
HETATM   57  C   UNL     1     -10.613   5.161  72.882  1.00  0.00    -0.232 C  
BRANCH  57  58
HETATM   58  C   UNL     1     -11.106   3.739  73.130  1.00  0.00    -0.201 C  
BRANCH  58  59
HETATM   59  C   UNL     1     -10.040   2.650  72.887  1.00  0.00    -0.142 C  
HETATM   60  H1  UNL     1      -8.776   2.055  71.372  1.00  0.00     0.000 HD 
HETATM   61  N   UNL     1      -9.480   2.776  71.532  1.00  0.00    -0.131 NA 
HETATM   62  H2  UNL     1      -9.115   3.712  71.357  1.00  0.00     0.000 HD 
BRANCH  59  63
HETATM   63  C   UNL     1      -8.855   2.727  73.878  1.00  0.00    -0.075 C  
BRANCH  63  64
HETATM   64  C   UNL     1      -7.495   2.905  73.196  1.00  0.00    -0.046 C  
BRANCH  64  65
HETATM   65  C   UNL     1      -6.342   2.447  74.092  1.00  0.00    -0.016 C  
HETATM   66  N   UNL     1      -5.313   3.480  74.127  1.00  0.00     0.000 NA 
HETATM   67  H2  UNL     1      -5.685   4.386  74.411  1.00  0.00     0.000 HD 
HETATM   68  H1  UNL     1      -4.544   3.175  74.724  1.00  0.00     0.000 HD 
ENDBRANCH  64  65
ENDBRANCH  63  64
ENDBRANCH  59  63
ENDBRANCH  58  59
ENDBRANCH  57  58
ENDBRANCH  31  54
ENDBRANCH   1  14
TORSDOF 11
ENDMDL
MODEL       81
REMARK 921   NORMALIZED FREE ENERGY PREDICTED BY IDOCK:    7.40 KCAL/MOL
REMARK 922        TOTAL FREE ENERGY PREDICTED BY IDOCK:   10.20 KCAL/MOL
REMARK 923 INTER-LIGAND FREE ENERGY PREDICTED BY IDOCK:   -3.02 KCAL/MOL
REMARK 924 INTRA-LIGAND FREE ENERGY PREDICTED BY IDOCK:   13.23 KCAL/MOL
REMARK 927      BINDING AFFINITY PREDICTED BY RF-SCORE:    0.00 PKD
ROOT
HETATM    1  C   UNL     1     -10.220  14.736  70.662  1.00  0.00     0.719 C  
HETATM    2  C   UNL     1     -11.434  15.614  71.089  1.00  0.00    -0.463 C  
HETATM    3  H1  UNL     1     -11.000  12.250  68.065  1.00  0.00     0.000 HD 
HETATM    4  H   UNL     1     -10.345  12.562  70.826  1.00  0.00     0.000 HD 
HETATM    5  C   UNL     1     -12.603  15.421  70.127  1.00  0.00    -0.293 C  
HETATM    6  H2  UNL     1     -12.597  12.921  67.792  1.00  0.00     0.000 HD 
HETATM    7  N   UNL     1     -12.885  14.015  70.035  1.00  0.00    -0.328 NA 
HETATM    8  O   UNL     1     -13.754  16.087  70.593  1.00  0.00    -0.460 OA 
HETATM    9  N   UNL     1     -10.761  13.393  70.403  1.00  0.00     1.339 NA 
HETATM   10  N   UNL     1     -11.795  12.788  68.409  1.00  0.00    -0.327 NA 
HETATM   11  H   UNL     1     -13.783  13.601  70.285  1.00  0.00     0.000 HD 
HETATM   12  C   UNL     1     -11.833  13.303  69.579  1.00  0.00    -0.327 C  
HETATM   13  H   UNL     1     -14.482  15.968  69.994  1.00  0.00     0.000 HD 
ENDROOT
BRANCH   1  14
HETATM   14  C   UNL     1      -9.400  15.291  69.448  1.00  0.00    -0.228 C  
HETATM   15  N   UNL     1     -12.246  13.574  65.946  1.00  0.00    -0.442 N  
HETATM   16  O   UNL     1     -12.241  15.244  68.253  1.00  0.00    -0.106 OA 
HETATM   17  C   UNL     1     -11.221  15.108  67.591  1.00  0.00    -0.327 C  
HETATM   18  C   UNL     1     -10.980  15.524  65.199  1.00  0.00    -0.409 C  
HETATM   19  N   UNL     1      -8.425   9.755  68.282  1.00  0.00    -0.114 N  
HETATM   20  H   UNL     1      -9.227  14.903  67.349  1.00  0.00     0.000 HD 
HETATM   21  N   UNL     1      -9.937  15.087  68.058  1.00  0.00    -0.217 N  
HETATM   22  H   UNL     1     -13.226  13.590  66.232  1.00  0.00     0.000 HD 
HETATM   23  C   UNL     1     -11.422  14.698  66.154  1.00  0.00    -0.339 C  
HETATM   24  C   UNL     1     -11.702  12.431  65.338  1.00  0.00    -0.402 C  
HETATM   25  O   UNL     1      -7.111  15.159  68.623  1.00  0.00    -0.108 OA 
HETATM   26  O   UNL     1     -11.316  12.401  64.171  1.00  0.00    -0.327 OA 
HETATM   27  N   UNL     1      -7.809  13.385  69.874  1.00  0.00     0.710 N  
HETATM   28  CA  UNL     1     -11.483  11.239  66.329  1.00  0.00     0.156 C  
HETATM   29  N   UNL     1     -10.695  10.094  65.822  1.00  0.00     0.059 N  
HETATM   30  C   UNL     1      -6.643  12.533  69.621  1.00  0.00     0.002 C  
HETATM   31  CA  UNL     1      -7.001  11.042  69.877  1.00  0.00    -0.049 C  
HETATM   32  H   UNL     1      -8.543  13.023  70.484  1.00  0.00     0.000 HD 
HETATM   33  H   UNL     1     -10.451   9.994  64.837  1.00  0.00     0.000 HD 
HETATM   34  O   UNL     1      -6.216  10.012  67.817  1.00  0.00    -0.054 OA 
HETATM   35  C   UNL     1     -10.306   9.152  66.787  1.00  0.00    -0.238 C  
HETATM   36  C   UNL     1      -7.169  10.264  68.552  1.00  0.00    -0.080 C  
HETATM   37  H   UNL     1      -9.157   9.889  68.980  1.00  0.00     0.000 HD 
HETATM   38  C   UNL     1      -7.973  14.646  69.338  1.00  0.00    -0.003 C  
HETATM   39  O   UNL     1     -11.126   8.710  67.594  1.00  0.00     0.027 OA 
HETATM   40  CA  UNL     1      -8.775   9.021  67.032  1.00  0.00    -0.116 C  
BRANCH  18  41
HETATM   41  N   UNL     1     -11.330  15.401  63.877  1.00  0.00    -0.424 N  
HETATM   42  H   UNL     1     -10.601  15.497  63.169  1.00  0.00     0.000 HD 
BRANCH  41  43
HETATM   43  C   UNL     1     -12.606  15.155  63.466  1.00  0.00     1.181 C  
HETATM   44  H2  UNL     1     -11.939  13.406  62.515  1.00  0.00     0.000 HD 
HETATM   45  N   UNL     1     -12.726  14.017  62.735  1.00  0.00    -0.256 N  
HETATM   46  H1  UNL     1     -13.681  13.832  62.428  1.00  0.00     0.000 HD 
HETATM   47  O   UNL     1     -13.586  15.848  63.714  1.00  0.00     0.728 OA 
ENDBRANCH  41  43
ENDBRANCH  18  41
BRANCH  28  48
HETATM   48  C   UNL     1     -10.695  11.825  67.516  1.00  0.00    -0.221 C  
HETATM   49  O   UNL     1      -9.339  12.117  67.148  1.00  0.00    -0.184 OA 
HETATM   50  H   UNL     1      -8.853  12.479  67.880  1.00  0.00     0.000 HD 
ENDBRANCH  28  48
BRANCH  40  51
HETATM   51  CB  UNL     1      -8.405   7.540  67.162  1.00  0.00    -0.121 C  
HETATM   52  O   UNL     1      -9.192   6.690  66.325  1.00  0.00    -0.159 OA 
HETATM   53  H   UNL     1      -8.962   5.771  66.406  1.00  0.00     0.000 HD 
ENDBRANCH  40  51
BRANCH  31  54
HETATM   54  N   UNL     1      -5.997  10.366  70.708  1.00  0.00    -0.099 N  
HETATM   55  H   UNL     1      -5.050  10.742  70.752  1.00  0.00     0.000 HD 
HETATM   56  O   UNL     1      -7.445   8.762  71.431  1.00  0.00    -0.101 OA 
HETATM   57  C   UNL     1      -6.310   9.233  71.431  1.00  0.00    -0.053 C  
BRANCH  57  58
HETATM   58  C   UNL     1      -5.141   8.654  72.222  1.00  0.00    -0.041 C  
BRANCH  58  59
HETATM   59  C   UNL     1      -5.300   8.763  73.753  1.00  0.00    -0.103 C  
HETATM   60  H1  UNL     1      -6.502   9.754  75.102  1.00  0.00     0.000 HD 
HETATM   61  N   UNL     1      -6.398   9.682  74.090  1.00  0.00    -0.094 NA 
HETATM   62  H2  UNL     1      -7.271   9.414  73.635  1.00  0.00     0.000 HD 
BRANCH  59  63
HETATM   63  C   UNL     1      -5.616   7.408  74.429  1.00  0.00    -0.066 C  
BRANCH  63  64
HETATM   64  C   UNL     1      -6.110   6.335  73.453  1.00  0.00    -0.062 C  
BRANCH  64  65
HETATM   65  C   UNL     1      -7.628   6.158  73.518  1.00  0.00    -0.095 C  
HETATM   66  N   UNL     1      -8.125   5.740  72.212  1.00  0.00    -0.107 NA 
HETATM   67  H2  UNL     1      -7.654   4.903  71.869  1.00  0.00     0.000 HD 
HETATM   68  H1  UNL     1      -9.137   5.622  72.255  1.00  0.00     0.000 HD 
ENDBRANCH  64  65
ENDBRANCH  63  64
ENDBRANCH  59  63
ENDBRANCH  58  59
ENDBRANCH  57  58
ENDBRANCH  31  54
ENDBRANCH   1  14
TORSDOF 11
ENDMDL
MODEL       82
REMARK 921   NORMALIZED FREE ENERGY PREDICTED BY IDOCK:    7.76 KCAL/MOL
REMARK 922        TOTAL FREE ENERGY PREDICTED BY IDOCK:   10.78 KCAL/MOL
REMARK 923 INTER-LIGAND FREE ENERGY PREDICTED BY IDOCK:   -5.06 KCAL/MOL
REMARK 924 INTRA-LIGAND FREE ENERGY PREDICTED BY IDOCK:   15.84 KCAL/MOL
REMARK 927      BINDING AFFINITY PREDICTED BY RF-SCORE:    0.00 PKD
ROOT
HETATM    1  C   UNL     1     -11.698   8.278  71.430  1.00  0.00    -0.287 C  
HETATM    2  C   UNL     1     -12.256   7.245  72.455  1.00  0.00    -0.104 C  
HETATM    3  H1  UNL     1      -8.027   8.487  71.348  1.00  0.00     0.000 HD 
HETATM    4  H   UNL     1     -10.392   9.887  72.117  1.00  0.00     0.000 HD 
HETATM    5  C   UNL     1     -11.134   6.359  72.990  1.00  0.00    -0.200 C  
HETATM    6  H2  UNL     1      -7.846   7.086  72.387  1.00  0.00     0.000 HD 
HETATM    7  N   UNL     1     -10.093   7.207  73.502  1.00  0.00    -0.294 NA 
HETATM    8  O   UNL     1     -11.599   5.530  74.030  1.00  0.00    -0.041 OA 
HETATM    9  N   UNL     1     -10.511   8.875  72.060  1.00  0.00    -0.340 NA 
HETATM   10  N   UNL     1      -8.414   7.868  72.060  1.00  0.00    -0.122 NA 
HETATM   11  H   UNL     1      -9.776   7.191  74.472  1.00  0.00     0.000 HD 
HETATM   12  C   UNL     1      -9.581   8.027  72.560  1.00  0.00    -0.240 C  
HETATM   13  H   UNL     1     -10.901   4.978  74.363  1.00  0.00     0.000 HD 
ENDROOT
BRANCH   1  14
HETATM   14  C   UNL     1     -11.389   7.696  70.009  1.00  0.00    -0.067 C  
HETATM   15  N   UNL     1      -6.945   6.066  70.966  1.00  0.00    -0.066 N  
HETATM   16  O   UNL     1      -9.667   5.849  71.778  1.00  0.00    -0.155 OA 
HETATM   17  C   UNL     1      -9.393   6.135  70.620  1.00  0.00    -0.165 C  
HETATM   18  C   UNL     1      -7.968   4.851  69.111  1.00  0.00    -0.075 C  
HETATM   19  N   UNL     1      -7.398  11.817  69.796  1.00  0.00    -0.218 N  
HETATM   20  H   UNL     1      -9.662   7.122  68.879  1.00  0.00     0.000 HD 
HETATM   21  N   UNL     1     -10.091   6.968  69.793  1.00  0.00    -0.186 N  
HETATM   22  H   UNL     1      -6.883   5.721  71.925  1.00  0.00     0.000 HD 
HETATM   23  C   UNL     1      -8.029   5.699  70.144  1.00  0.00    -0.099 C  
HETATM   24  C   UNL     1      -5.951   6.913  70.449  1.00  0.00    -0.024 C  
HETATM   25  O   UNL     1     -11.362   8.504  67.711  1.00  0.00     0.458 OA 
HETATM   26  O   UNL     1      -5.190   6.590  69.540  1.00  0.00    -0.012 OA 
HETATM   27  N   UNL     1     -10.982  10.083  69.311  1.00  0.00    -0.229 N  
HETATM   28  CA  UNL     1      -6.004   8.366  71.029  1.00  0.00    -0.034 C  
HETATM   29  N   UNL     1      -5.152   9.376  70.361  1.00  0.00    -0.027 N  
HETATM   30  C   UNL     1     -10.606  11.163  68.395  1.00  0.00    -0.193 C  
HETATM   31  CA  UNL     1      -9.769  12.238  69.144  1.00  0.00     0.456 C  
HETATM   32  H   UNL     1     -10.994  10.285  70.311  1.00  0.00     0.000 HD 
HETATM   33  H   UNL     1      -4.440   9.120  69.677  1.00  0.00     0.000 HD 
HETATM   34  O   UNL     1      -7.852  12.456  67.663  1.00  0.00    -0.139 OA 
HETATM   35  C   UNL     1      -5.389  10.708  70.730  1.00  0.00    -0.097 C  
HETATM   36  C   UNL     1      -8.271  12.147  68.778  1.00  0.00     0.055 C  
HETATM   37  H   UNL     1      -7.781  11.686  70.733  1.00  0.00     0.000 HD 
HETATM   38  C   UNL     1     -11.321   8.808  68.904  1.00  0.00     0.563 C  
HETATM   39  O   UNL     1      -5.471  11.021  71.921  1.00  0.00    -0.328 OA 
HETATM   40  CA  UNL     1      -5.928  11.641  69.608  1.00  0.00    -0.106 C  
BRANCH  18  41
HETATM   41  N   UNL     1      -6.823   4.181  68.755  1.00  0.00    -0.046 N  
HETATM   42  H   UNL     1      -6.337   4.465  67.904  1.00  0.00     0.000 HD 
BRANCH  41  43
HETATM   43  C   UNL     1      -6.305   3.155  69.488  1.00  0.00    -0.029 C  
HETATM   44  H2  UNL     1      -5.464   2.358  67.737  1.00  0.00     0.000 HD 
HETATM   45  N   UNL     1      -5.596   2.267  68.745  1.00  0.00    -0.017 N  
HETATM   46  H1  UNL     1      -5.208   1.500  69.293  1.00  0.00     0.000 HD 
HETATM   47  O   UNL     1      -6.424   3.007  70.699  1.00  0.00    -0.026 OA 
ENDBRANCH  41  43
ENDBRANCH  18  41
BRANCH  28  48
HETATM   48  C   UNL     1      -7.462   8.832  70.851  1.00  0.00    -0.091 C  
HETATM   49  O   UNL     1      -7.600   9.684  69.703  1.00  0.00    -0.088 OA 
HETATM   50  H   UNL     1      -8.499   9.971  69.593  1.00  0.00     0.000 HD 
ENDBRANCH  28  48
BRANCH  40  51
HETATM   51  CB  UNL     1      -5.215  12.996  69.686  1.00  0.00    -0.083 C  
HETATM   52  O   UNL     1      -5.968  13.986  70.389  1.00  0.00    -0.142 OA 
HETATM   53  H   UNL     1      -5.525  14.825  70.437  1.00  0.00     0.000 HD 
ENDBRANCH  40  51
BRANCH  31  54
HETATM   54  N   UNL     1     -10.250  13.599  68.877  1.00  0.00    -0.409 N  
HETATM   55  H   UNL     1     -11.130  13.729  68.379  1.00  0.00     0.000 HD 
HETATM   56  O   UNL     1      -8.483  14.596  69.917  1.00  0.00     0.256 OA 
HETATM   57  C   UNL     1      -9.534  14.705  69.288  1.00  0.00     0.006 C  
BRANCH  57  58
HETATM   58  C   UNL     1     -10.171  16.038  68.908  1.00  0.00    -0.231 C  
BRANCH  58  59
HETATM   59  C   UNL     1     -11.523  16.311  69.601  1.00  0.00    -0.213 C  
HETATM   60  H1  UNL     1     -13.495  15.754  69.386  1.00  0.00     0.000 HD 
HETATM   61  N   UNL     1     -12.602  15.573  68.928  1.00  0.00    -0.326 NA 
HETATM   62  H2  UNL     1     -12.400  14.575  68.868  1.00  0.00     0.000 HD 
BRANCH  59  63
HETATM   63  C   UNL     1     -11.540  15.886  71.089  1.00  0.00    -0.481 C  
BRANCH  63  64
HETATM   64  C   UNL     1     -12.946  15.835  71.697  1.00  0.00    -0.509 C  
BRANCH  64  65
HETATM   65  C   UNL     1     -13.330  14.419  72.130  1.00  0.00    -0.398 C  
HETATM   66  N   UNL     1     -13.508  13.580  70.950  1.00  0.00     0.084 NA 
HETATM   67  H2  UNL     1     -12.688  13.588  70.344  1.00  0.00     0.000 HD 
HETATM   68  H1  UNL     1     -13.764  12.636  71.239  1.00  0.00     0.000 HD 
ENDBRANCH  64  65
ENDBRANCH  63  64
ENDBRANCH  59  63
ENDBRANCH  58  59
ENDBRANCH  57  58
ENDBRANCH  31  54
ENDBRANCH   1  14
TORSDOF 11
ENDMDL
MODEL       83
REMARK 921   NORMALIZED FREE ENERGY PREDICTED BY IDOCK:    8.05 KCAL/MOL
REMARK 922        TOTAL FREE ENERGY PREDICTED BY IDOCK:   11.27 KCAL/MOL
REMARK 923 INTER-LIGAND FREE ENERGY PREDICTED BY IDOCK:   -0.18 KCAL/MOL
REMARK 924 INTRA-LIGAND FREE ENERGY PREDICTED BY IDOCK:   11.44 KCAL/MOL
REMARK 927      BINDING AFFINITY PREDICTED BY RF-SCORE:    0.00 PKD
ROOT
HETATM    1  C   UNL     1     -10.163  11.335  70.330  1.00  0.00     1.514 C  
HETATM    2  C   UNL     1     -11.567  11.988  70.502  1.00  0.00     0.142 C  
HETATM    3  H1  UNL     1      -9.157  10.827  66.828  1.00  0.00     0.000 HD 
HETATM    4  H   UNL     1      -9.965   9.473  69.207  1.00  0.00     0.000 HD 
HETATM    5  C   UNL     1     -12.081  12.520  69.167  1.00  0.00    -0.138 C  
HETATM    6  H2  UNL     1     -10.520  11.748  66.221  1.00  0.00     0.000 HD 
HETATM    7  N   UNL     1     -12.031  11.452  68.206  1.00  0.00    -0.610 NA 
HETATM    8  O   UNL     1     -13.411  12.969  69.281  1.00  0.00     2.116 OA 
HETATM    9  N   UNL     1     -10.268  10.446  69.163  1.00  0.00    -0.210 NA 
HETATM   10  N   UNL     1     -10.101  11.189  66.964  1.00  0.00    -0.195 NA 
HETATM   11  H   UNL     1     -12.851  11.095  67.714  1.00  0.00     0.000 HD 
HETATM   12  C   UNL     1     -10.782  10.973  68.026  1.00  0.00    -0.217 C  
HETATM   13  H   UNL     1     -13.731  13.300  68.450  1.00  0.00     0.000 HD 
ENDROOT
BRANCH   1  14
HETATM   14  C   UNL     1      -8.976  12.348  70.200  1.00  0.00     4.228 C  
HETATM   15  N   UNL     1     -11.020  15.280  66.953  1.00  0.00    -0.322 N  
HETATM   16  O   UNL     1     -11.371  14.178  69.556  1.00  0.00    -0.257 OA 
HETATM   17  C   UNL     1     -10.245  14.346  69.108  1.00  0.00    -0.127 C  
HETATM   18  C   UNL     1      -9.319  16.440  68.265  1.00  0.00    -0.210 C  
HETATM   19  N   UNL     1      -8.585  10.359  64.830  1.00  0.00    -0.179 N  
HETATM   20  H   UNL     1      -8.314  13.837  68.810  1.00  0.00     0.000 HD 
HETATM   21  N   UNL     1      -9.150  13.559  69.325  1.00  0.00     0.580 N  
HETATM   22  H   UNL     1     -12.026  15.351  67.110  1.00  0.00     0.000 HD 
HETATM   23  C   UNL     1     -10.119  15.394  68.031  1.00  0.00    -0.226 C  
HETATM   24  C   UNL     1     -10.516  15.066  65.660  1.00  0.00    -0.350 C  
HETATM   25  O   UNL     1      -6.598  12.264  69.674  1.00  0.00    -0.103 OA 
HETATM   26  O   UNL     1      -9.844  15.894  65.048  1.00  0.00    -0.339 OA 
HETATM   27  N   UNL     1      -7.865  10.598  68.768  1.00  0.00    -0.116 N  
HETATM   28  CA  UNL     1     -10.752  13.613  65.128  1.00  0.00    -0.353 C  
HETATM   29  N   UNL     1     -10.043  13.241  63.884  1.00  0.00    -0.455 N  
HETATM   30  C   UNL     1      -6.818  10.043  67.906  1.00  0.00    -0.075 C  
HETATM   31  CA  UNL     1      -7.455   9.227  66.745  1.00  0.00    -0.087 C  
HETATM   32  H   UNL     1      -8.780  10.148  68.762  1.00  0.00     0.000 HD 
HETATM   33  H   UNL     1      -9.565  13.929  63.303  1.00  0.00     0.000 HD 
HETATM   34  O   UNL     1      -6.319  10.190  64.820  1.00  0.00    -0.120 OA 
HETATM   35  C   UNL     1     -10.071  11.877  63.555  1.00  0.00    -0.441 C  
HETATM   36  C   UNL     1      -7.383   9.997  65.407  1.00  0.00    -0.139 C  
HETATM   37  H   UNL     1      -9.447  10.073  65.296  1.00  0.00     0.000 HD 
HETATM   38  C   UNL     1      -7.687  11.694  69.589  1.00  0.00     0.643 C  
HETATM   39  O   UNL     1     -11.134  11.252  63.578  1.00  0.00    -0.367 OA 
HETATM   40  CA  UNL     1      -8.699  11.144  63.566  1.00  0.00     0.100 C  
BRANCH  18  41
HETATM   41  N   UNL     1      -9.320  17.576  67.493  1.00  0.00    -0.244 N  
HETATM   42  H   UNL     1      -9.024  17.504  66.520  1.00  0.00     0.000 HD 
BRANCH  41  43
HETATM   43  C   UNL     1      -9.701  18.796  67.969  1.00  0.00    -0.325 C  
HETATM   44  H2  UNL     1     -10.575  19.223  66.108  1.00  0.00     0.000 HD 
HETATM   45  N   UNL     1     -10.374  19.543  67.056  1.00  0.00    -0.420 N  
HETATM   46  H1  UNL     1     -10.658  20.455  67.411  1.00  0.00     0.000 HD 
HETATM   47  O   UNL     1      -9.495  19.221  69.100  1.00  0.00    -0.343 OA 
ENDBRANCH  41  43
ENDBRANCH  18  41
BRANCH  28  48
HETATM   48  C   UNL     1     -10.227  12.675  66.232  1.00  0.00    -0.251 C  
HETATM   49  O   UNL     1      -8.814  12.839  66.426  1.00  0.00    -0.413 OA 
HETATM   50  H   UNL     1      -8.490  12.261  67.107  1.00  0.00     0.000 HD 
ENDBRANCH  28  48
BRANCH  40  51
HETATM   51  CB  UNL     1      -8.608  10.215  62.351  1.00  0.00    -0.196 C  
HETATM   52  O   UNL     1      -8.957   8.863  62.653  1.00  0.00    -0.425 OA 
HETATM   53  H   UNL     1      -8.901   8.287  61.899  1.00  0.00     0.000 HD 
ENDBRANCH  40  51
BRANCH  31  54
HETATM   54  N   UNL     1      -6.823   7.913  66.580  1.00  0.00    -0.069 N  
HETATM   55  H   UNL     1      -6.296   7.716  65.729  1.00  0.00     0.000 HD 
HETATM   56  O   UNL     1      -7.527   7.143  68.606  1.00  0.00    -0.097 OA 
HETATM   57  C   UNL     1      -6.927   6.940  67.553  1.00  0.00    -0.083 C  
BRANCH  57  58
HETATM   58  C   UNL     1      -6.226   5.631  67.205  1.00  0.00    -0.034 C  
BRANCH  58  59
HETATM   59  C   UNL     1      -7.106   4.376  67.384  1.00  0.00    -0.064 C  
HETATM   60  H1  UNL     1      -8.497   3.660  68.726  1.00  0.00     0.000 HD 
HETATM   61  N   UNL     1      -7.915   4.490  68.607  1.00  0.00    -0.078 NA 
HETATM   62  H2  UNL     1      -8.467   5.347  68.620  1.00  0.00     0.000 HD 
BRANCH  59  63
HETATM   63  C   UNL     1      -8.087   4.148  66.210  1.00  0.00    -0.098 C  
BRANCH  63  64
HETATM   64  C   UNL     1      -9.541   3.956  66.652  1.00  0.00    -0.215 C  
BRANCH  64  65
HETATM   65  C   UNL     1     -10.141   5.244  67.221  1.00  0.00    -0.195 C  
HETATM   66  N   UNL     1      -9.682   6.383  66.433  1.00  0.00    -0.318 NA 
HETATM   67  H2  UNL     1      -9.882   6.271  65.440  1.00  0.00     0.000 HD 
HETATM   68  H1  UNL     1     -10.082   7.242  66.812  1.00  0.00     0.000 HD 
ENDBRANCH  64  65
ENDBRANCH  63  64
ENDBRANCH  59  63
ENDBRANCH  58  59
ENDBRANCH  57  58
ENDBRANCH  31  54
ENDBRANCH   1  14
TORSDOF 11
ENDMDL
MODEL       84
REMARK 921   NORMALIZED FREE ENERGY PREDICTED BY IDOCK:    8.19 KCAL/MOL
REMARK 922        TOTAL FREE ENERGY PREDICTED BY IDOCK:   11.49 KCAL/MOL
REMARK 923 INTER-LIGAND FREE ENERGY PREDICTED BY IDOCK:   -5.20 KCAL/MOL
REMARK 924 INTRA-LIGAND FREE ENERGY PREDICTED BY IDOCK:   16.69 KCAL/MOL
REMARK 927      BINDING AFFINITY PREDICTED BY RF-SCORE:    0.00 PKD
ROOT
HETATM    1  C   UNL     1      -9.903   8.134  72.948  1.00  0.00    -0.268 C  
HETATM    2  C   UNL     1      -9.106   7.383  74.056  1.00  0.00    -0.289 C  
HETATM    3  H1  UNL     1      -8.015   8.674  69.838  1.00  0.00     0.000 HD 
HETATM    4  H   UNL     1      -9.114   9.993  72.119  1.00  0.00     0.000 HD 
HETATM    5  C   UNL     1      -7.814   6.800  73.488  1.00  0.00    -0.091 C  
HETATM    6  H2  UNL     1      -6.695   7.650  70.369  1.00  0.00     0.000 HD 
HETATM    7  N   UNL     1      -7.087   7.857  72.841  1.00  0.00    -0.083 NA 
HETATM    8  O   UNL     1      -7.013   6.256  74.512  1.00  0.00    -0.089 OA 
HETATM    9  N   UNL     1      -8.930   8.999  72.264  1.00  0.00    -0.281 NA 
HETATM   10  N   UNL     1      -7.489   8.246  70.600  1.00  0.00    -0.059 NA 
HETATM   11  H   UNL     1      -6.148   8.147  73.114  1.00  0.00     0.000 HD 
HETATM   12  C   UNL     1      -7.782   8.424  71.833  1.00  0.00    -0.121 C  
HETATM   13  H   UNL     1      -6.209   5.893  74.159  1.00  0.00     0.000 HD 
ENDROOT
BRANCH   1  14
HETATM   14  C   UNL     1     -10.680   7.208  71.952  1.00  0.00    -0.216 C  
HETATM   15  N   UNL     1      -7.093   6.569  68.782  1.00  0.00    -0.080 N  
HETATM   16  O   UNL     1      -7.790   6.224  71.523  1.00  0.00    -0.099 OA 
HETATM   17  C   UNL     1      -8.658   6.190  70.660  1.00  0.00    -0.135 C  
HETATM   18  C   UNL     1      -8.699   4.730  68.705  1.00  0.00    -0.097 C  
HETATM   19  N   UNL     1     -10.115  11.597  68.295  1.00  0.00    -0.196 N  
HETATM   20  H   UNL     1     -10.495   6.573  69.915  1.00  0.00     0.000 HD 
HETATM   21  N   UNL     1      -9.944   6.637  70.772  1.00  0.00    -0.184 N  
HETATM   22  H   UNL     1      -6.191   6.534  69.257  1.00  0.00     0.000 HD 
HETATM   23  C   UNL     1      -8.188   5.828  69.273  1.00  0.00    -0.105 C  
HETATM   24  C   UNL     1      -7.262   7.355  67.631  1.00  0.00    -0.094 C  
HETATM   25  O   UNL     1     -12.748   7.297  70.667  1.00  0.00    -0.139 OA 
HETATM   26  O   UNL     1      -7.483   6.888  66.516  1.00  0.00    -0.072 OA 
HETATM   27  N   UNL     1     -11.794   9.315  71.134  1.00  0.00    -0.306 N  
HETATM   28  CA  UNL     1      -7.300   8.893  67.924  1.00  0.00    -0.084 C  
HETATM   29  N   UNL     1      -7.715   9.769  66.805  1.00  0.00    -0.098 N  
HETATM   30  C   UNL     1     -12.674  10.118  70.281  1.00  0.00    -0.043 C  
HETATM   31  CA  UNL     1     -11.995  11.472  69.931  1.00  0.00    -0.351 C  
HETATM   32  H   UNL     1     -11.073   9.800  71.670  1.00  0.00     0.000 HD 
HETATM   33  H   UNL     1      -7.805   9.425  65.849  1.00  0.00     0.000 HD 
HETATM   34  O   UNL     1     -12.246  11.508  67.510  1.00  0.00    -0.463 OA 
HETATM   35  C   UNL     1      -7.976  11.104  67.146  1.00  0.00    -0.139 C  
HETATM   36  C   UNL     1     -11.480  11.487  68.474  1.00  0.00    -0.292 C  
HETATM   37  H   UNL     1      -9.529  11.696  69.125  1.00  0.00     0.000 HD 
HETATM   38  C   UNL     1     -11.880   7.943  71.257  1.00  0.00    -0.296 C  
HETATM   39  O   UNL     1      -7.177  11.739  67.839  1.00  0.00    -0.082 OA 
HETATM   40  CA  UNL     1      -9.445  11.580  66.962  1.00  0.00    -0.183 C  
BRANCH  18  41
HETATM   41  N   UNL     1      -8.171   4.152  67.577  1.00  0.00    -0.098 N  
HETATM   42  H   UNL     1      -7.707   4.751  66.894  1.00  0.00     0.000 HD 
BRANCH  41  43
HETATM   43  C   UNL     1      -8.239   2.813  67.327  1.00  0.00    -0.079 C  
HETATM   44  H2  UNL     1      -9.898   2.682  68.608  1.00  0.00     0.000 HD 
HETATM   45  N   UNL     1      -9.252   2.194  67.987  1.00  0.00    -0.181 N  
HETATM   46  H1  UNL     1      -9.302   1.193  67.800  1.00  0.00     0.000 HD 
HETATM   47  O   UNL     1      -7.497   2.184  66.582  1.00  0.00    -0.063 OA 
ENDBRANCH  41  43
ENDBRANCH  18  41
BRANCH  28  48
HETATM   48  C   UNL     1      -8.347   9.078  69.040  1.00  0.00    -0.124 C  
HETATM   49  O   UNL     1      -9.653   8.673  68.601  1.00  0.00    -0.152 OA 
HETATM   50  H   UNL     1     -10.298   8.786  69.289  1.00  0.00     0.000 HD 
ENDBRANCH  28  48
BRANCH  40  51
HETATM   51  CB  UNL     1      -9.453  12.983  66.344  1.00  0.00    -0.224 C  
HETATM   52  O   UNL     1      -8.214  13.674  66.510  1.00  0.00    -0.341 OA 
HETATM   53  H   UNL     1      -8.219  14.544  66.126  1.00  0.00     0.000 HD 
ENDBRANCH  40  51
BRANCH  31  54
HETATM   54  N   UNL     1     -12.896  12.613  70.135  1.00  0.00     0.288 N  
HETATM   55  H   UNL     1     -13.861  12.552  69.812  1.00  0.00     0.000 HD 
HETATM   56  O   UNL     1     -11.316  13.873  71.190  1.00  0.00     0.393 OA 
HETATM   57  C   UNL     1     -12.462  13.765  70.758  1.00  0.00    -0.370 C  
BRANCH  57  58
HETATM   58  C   UNL     1     -13.525  14.854  70.867  1.00  0.00    -0.356 C  
BRANCH  58  59
HETATM   59  C   UNL     1     -13.505  15.623  72.206  1.00  0.00    -0.495 C  
HETATM   60  H1  UNL     1     -12.938  15.285  74.158  1.00  0.00     0.000 HD 
HETATM   61  N   UNL     1     -12.951  14.777  73.273  1.00  0.00    -0.521 NA 
HETATM   62  H2  UNL     1     -12.029  14.412  73.030  1.00  0.00     0.000 HD 
BRANCH  59  63
HETATM   63  C   UNL     1     -12.649  16.911  72.154  1.00  0.00     1.888 C  
BRANCH  63  64
HETATM   64  C   UNL     1     -11.530  16.863  71.108  1.00  0.00     0.609 C  
BRANCH  64  65
HETATM   65  C   UNL     1     -11.982  16.175  69.818  1.00  0.00    -0.052 C  
HETATM   66  N   UNL     1     -10.870  16.127  68.876  1.00  0.00    -0.284 NA 
HETATM   67  H2  UNL     1     -10.043  15.685  69.279  1.00  0.00     0.000 HD 
HETATM   68  H1  UNL     1     -11.171  15.668  68.017  1.00  0.00     0.000 HD 
ENDBRANCH  64  65
ENDBRANCH  63  64
ENDBRANCH  59  63
ENDBRANCH  58  59
ENDBRANCH  57  58
ENDBRANCH  31  54
ENDBRANCH   1  14
TORSDOF 11
ENDMDL
MODEL       85
REMARK 921   NORMALIZED FREE ENERGY PREDICTED BY IDOCK:   11.15 KCAL/MOL
REMARK 922        TOTAL FREE ENERGY PREDICTED BY IDOCK:   16.37 KCAL/MOL
REMARK 923 INTER-LIGAND FREE ENERGY PREDICTED BY IDOCK:    9.05 KCAL/MOL
REMARK 924 INTRA-LIGAND FREE ENERGY PREDICTED BY IDOCK:    7.32 KCAL/MOL
REMARK 927      BINDING AFFINITY PREDICTED BY RF-SCORE:    0.00 PKD
ROOT
HETATM    1  C   UNL     1     -12.427  15.782  66.418  1.00  0.00     1.898 C  
HETATM    2  C   UNL     1     -11.007  15.688  65.783  1.00  0.00    -0.250 C  
HETATM    3  H1  UNL     1     -13.676  12.606  67.790  1.00  0.00     0.000 HD 
HETATM    4  H   UNL     1     -14.029  14.496  65.680  1.00  0.00     0.000 HD 
HETATM    5  C   UNL     1     -10.350  14.354  66.129  1.00  0.00    -0.298 C  
HETATM    6  H2  UNL     1     -12.128  11.813  67.574  1.00  0.00     0.000 HD 
HETATM    7  N   UNL     1     -11.246  13.297  65.749  1.00  0.00    -0.292 NA 
HETATM    8  O   UNL     1      -9.135  14.194  65.433  1.00  0.00    -0.097 OA 
HETATM    9  N   UNL     1     -13.099  14.513  66.099  1.00  0.00     0.383 NA 
HETATM   10  N   UNL     1     -12.779  12.551  67.308  1.00  0.00     0.807 NA 
HETATM   11  H   UNL     1     -11.010  12.571  65.072  1.00  0.00     0.000 HD 
HETATM   12  C   UNL     1     -12.434  13.368  66.386  1.00  0.00    -0.236 C  
HETATM   13  H   UNL     1      -8.726  13.364  65.649  1.00  0.00     0.000 HD 
ENDROOT
BRANCH   1  14
HETATM   14  C   UNL     1     -12.444  16.095  67.952  1.00  0.00     1.664 C  
HETATM   15  N   UNL     1      -8.529  18.920  68.048  1.00  0.00    -0.286 N  
HETATM   16  O   UNL     1     -11.102  18.645  66.857  1.00  0.00    -0.151 OA 
HETATM   17  C   UNL     1     -10.890  18.188  67.972  1.00  0.00    -0.166 C  
HETATM   18  C   UNL     1     -10.040  19.415  69.902  1.00  0.00     0.486 C  
HETATM   19  N   UNL     1      -7.536  13.119  68.056  1.00  0.00    -0.129 N  
HETATM   20  H   UNL     1     -11.072  16.808  69.435  1.00  0.00     0.000 HD 
HETATM   21  N   UNL     1     -11.423  17.049  68.507  1.00  0.00     0.114 N  
HETATM   22  H   UNL     1      -8.458  19.471  67.192  1.00  0.00     0.000 HD 
HETATM   23  C   UNL     1      -9.756  18.825  68.735  1.00  0.00    -0.384 C  
HETATM   24  C   UNL     1      -7.407  18.248  68.556  1.00  0.00    -0.286 C  
HETATM   25  O   UNL     1     -12.453  14.834  70.037  1.00  0.00    -0.324 OA 
HETATM   26  O   UNL     1      -6.865  18.537  69.620  1.00  0.00    -0.141 OA 
HETATM   27  N   UNL     1     -11.487  13.785  68.259  1.00  0.00    -0.292 N  
HETATM   28  CA  UNL     1      -7.000  16.988  67.720  1.00  0.00    -0.145 C  
HETATM   29  N   UNL     1      -5.986  16.093  68.322  1.00  0.00    -0.105 N  
HETATM   30  C   UNL     1     -10.936  12.654  69.011  1.00  0.00    -0.191 C  
HETATM   31  CA  UNL     1      -9.763  12.004  68.224  1.00  0.00    -0.205 C  
HETATM   32  H   UNL     1     -11.333  13.810  67.250  1.00  0.00     0.000 HD 
HETATM   33  H   UNL     1      -5.449  16.357  69.147  1.00  0.00     0.000 HD 
HETATM   34  O   UNL     1      -8.032  11.938  69.933  1.00  0.00     1.085 OA 
HETATM   35  C   UNL     1      -5.812  14.857  67.681  1.00  0.00    -0.028 C  
HETATM   36  C   UNL     1      -8.395  12.372  68.840  1.00  0.00     0.248 C  
HETATM   37  H   UNL     1      -7.835  13.355  67.109  1.00  0.00     0.000 HD 
HETATM   38  C   UNL     1     -12.200  14.818  68.832  1.00  0.00    -0.121 C  
HETATM   39  O   UNL     1      -5.675  14.803  66.456  1.00  0.00     1.597 OA 
HETATM   40  CA  UNL     1      -6.199  13.599  68.510  1.00  0.00    -0.091 C  
BRANCH  18  41
HETATM   41  N   UNL     1      -9.165  20.247  70.556  1.00  0.00     1.114 N  
HETATM   42  H   UNL     1      -8.809  21.065  70.061  1.00  0.00     0.000 HD 
BRANCH  41  43
HETATM   43  C   UNL     1      -8.750  20.030  71.837  1.00  0.00     2.786 C  
HETATM   44  H2  UNL     1      -6.758  20.183  71.194  1.00  0.00     0.000 HD 
HETATM   45  N   UNL     1      -7.400  20.034  71.973  1.00  0.00     0.686 N  
HETATM   46  H1  UNL     1      -7.090  19.872  72.931  1.00  0.00     0.000 HD 
HETATM   47  O   UNL     1      -9.479  19.859  72.807  1.00  0.00     2.225 OA 
ENDBRANCH  41  43
ENDBRANCH  18  41
BRANCH  28  48
HETATM   48  C   UNL     1      -8.289  16.155  67.569  1.00  0.00    -0.159 C  
HETATM   49  O   UNL     1      -8.757  15.686  68.842  1.00  0.00    -0.182 OA 
HETATM   50  H   UNL     1      -9.551  15.173  68.750  1.00  0.00     0.000 HD 
ENDBRANCH  28  48
BRANCH  40  51
HETATM   51  CB  UNL     1      -5.142  12.509  68.303  1.00  0.00    -0.062 C  
HETATM   52  O   UNL     1      -5.506  11.559  67.300  1.00  0.00    -0.056 OA 
HETATM   53  H   UNL     1      -4.851  10.883  67.172  1.00  0.00     0.000 HD 
ENDBRANCH  40  51
BRANCH  31  54
HETATM   54  N   UNL     1      -9.884  10.543  68.156  1.00  0.00    -0.150 N  
HETATM   55  H   UNL     1     -10.485  10.060  68.823  1.00  0.00     0.000 HD 
HETATM   56  O   UNL     1      -8.486  10.353  66.365  1.00  0.00    -0.131 OA 
HETATM   57  C   UNL     1      -9.200   9.811  67.207  1.00  0.00    -0.134 C  
BRANCH  57  58
HETATM   58  C   UNL     1      -9.428   8.305  67.295  1.00  0.00    -0.193 C  
BRANCH  58  59
HETATM   59  C   UNL     1      -8.133   7.467  67.244  1.00  0.00    -0.112 C  
HETATM   60  H1  UNL     1      -6.414   7.371  66.111  1.00  0.00     0.000 HD 
HETATM   61  N   UNL     1      -7.270   7.926  66.145  1.00  0.00    -0.072 NA 
HETATM   62  H2  UNL     1      -7.074   8.925  66.207  1.00  0.00     0.000 HD 
BRANCH  59  63
HETATM   63  C   UNL     1      -7.300   7.555  68.545  1.00  0.00    -0.099 C  
BRANCH  63  64
HETATM   64  C   UNL     1      -8.124   7.334  69.818  1.00  0.00    -0.128 C  
BRANCH  64  65
HETATM   65  C   UNL     1      -8.066   8.543  70.753  1.00  0.00    -0.120 C  
HETATM   66  N   UNL     1      -9.305   8.627  71.517  1.00  0.00    -0.224 NA 
HETATM   67  H2  UNL     1      -9.509   7.762  72.018  1.00  0.00     0.000 HD 
HETATM   68  H1  UNL     1      -9.267   9.433  72.141  1.00  0.00     0.000 HD 
ENDBRANCH  64  65
ENDBRANCH  63  64
ENDBRANCH  59  63
ENDBRANCH  58  59
ENDBRANCH  57  58
ENDBRANCH  31  54
ENDBRANCH   1  14
TORSDOF 11
ENDMDL
MODEL       86
REMARK 921   NORMALIZED FREE ENERGY PREDICTED BY IDOCK:   11.21 KCAL/MOL
REMARK 922        TOTAL FREE ENERGY PREDICTED BY IDOCK:   16.46 KCAL/MOL
REMARK 923 INTER-LIGAND FREE ENERGY PREDICTED BY IDOCK:    5.82 KCAL/MOL
REMARK 924 INTRA-LIGAND FREE ENERGY PREDICTED BY IDOCK:   10.64 KCAL/MOL
REMARK 927      BINDING AFFINITY PREDICTED BY RF-SCORE:    0.00 PKD
ROOT
HETATM    1  C   UNL     1     -13.062   9.818  71.441  1.00  0.00    -0.400 C  
HETATM    2  C   UNL     1     -12.957   9.122  70.051  1.00  0.00     1.445 C  
HETATM    3  H1  UNL     1     -11.826   7.781  74.243  1.00  0.00     0.000 HD 
HETATM    4  H   UNL     1     -14.184   8.860  73.050  1.00  0.00     0.000 HD 
HETATM    5  C   UNL     1     -12.106   7.858  70.145  1.00  0.00     0.507 C  
HETATM    6  H2  UNL     1     -11.165   6.563  73.168  1.00  0.00     0.000 HD 
HETATM    7  N   UNL     1     -12.640   7.030  71.190  1.00  0.00    -0.447 NA 
HETATM    8  O   UNL     1     -12.135   7.140  68.933  1.00  0.00     0.459 OA 
HETATM    9  N   UNL     1     -13.402   8.758  72.402  1.00  0.00    -0.407 NA 
HETATM   10  N   UNL     1     -11.831   7.318  73.334  1.00  0.00     0.498 NA 
HETATM   11  H   UNL     1     -12.987   6.082  71.039  1.00  0.00     0.000 HD 
HETATM   12  C   UNL     1     -12.634   7.642  72.393  1.00  0.00    -0.024 C  
HETATM   13  H   UNL     1     -11.605   6.354  68.991  1.00  0.00     0.000 HD 
ENDROOT
BRANCH   1  14
HETATM   14  C   UNL     1     -11.791  10.626  71.872  1.00  0.00     0.858 C  
HETATM   15  N   UNL     1     -12.166  14.156  68.598  1.00  0.00    -0.554 N  
HETATM   16  O   UNL     1     -13.554  12.885  70.736  1.00  0.00     0.507 OA 
HETATM   17  C   UNL     1     -12.331  12.903  70.724  1.00  0.00    -0.299 C  
HETATM   18  C   UNL     1     -10.914  14.884  70.564  1.00  0.00    -0.100 C  
HETATM   19  N   UNL     1      -9.763   9.123  66.716  1.00  0.00    -0.191 N  
HETATM   20  H   UNL     1     -10.499  12.109  71.023  1.00  0.00     0.000 HD 
HETATM   21  N   UNL     1     -11.491  11.926  71.179  1.00  0.00     1.297 N  
HETATM   22  H   UNL     1     -13.145  14.380  68.416  1.00  0.00     0.000 HD 
HETATM   23  C   UNL     1     -11.701  14.014  69.921  1.00  0.00    -0.303 C  
HETATM   24  C   UNL     1     -11.265  13.986  67.535  1.00  0.00    -0.309 C  
HETATM   25  O   UNL     1      -9.412  10.195  72.172  1.00  0.00     2.968 OA 
HETATM   26  O   UNL     1     -10.323  14.743  67.315  1.00  0.00    -0.244 OA 
HETATM   27  N   UNL     1     -10.469   8.860  70.655  1.00  0.00    -0.208 N  
HETATM   28  CA  UNL     1     -11.475  12.651  66.745  1.00  0.00    -0.351 C  
HETATM   29  N   UNL     1     -10.420  12.285  65.772  1.00  0.00    -0.248 N  
HETATM   30  C   UNL     1      -9.261   8.221  70.124  1.00  0.00    -0.155 C  
HETATM   31  CA  UNL     1      -9.538   7.639  68.709  1.00  0.00    -0.153 C  
HETATM   32  H   UNL     1     -11.370   8.572  70.273  1.00  0.00     0.000 HD 
HETATM   33  H   UNL     1      -9.686  12.936  65.496  1.00  0.00     0.000 HD 
HETATM   34  O   UNL     1      -7.682   8.577  67.446  1.00  0.00    -0.096 OA 
HETATM   35  C   UNL     1     -10.499  10.983  65.254  1.00  0.00    -0.251 C  
HETATM   36  C   UNL     1      -8.900   8.510  67.604  1.00  0.00    -0.136 C  
HETATM   37  H   UNL     1     -10.763   8.942  66.815  1.00  0.00     0.000 HD 
HETATM   38  C   UNL     1     -10.460   9.826  71.641  1.00  0.00     0.537 C  
HETATM   39  O   UNL     1     -11.569  10.546  64.824  1.00  0.00     1.187 OA 
HETATM   40  CA  UNL     1      -9.322  10.033  65.619  1.00  0.00    -0.204 C  
BRANCH  18  41
HETATM   41  N   UNL     1     -10.500  16.072  70.015  1.00  0.00    -0.287 N  
HETATM   42  H   UNL     1     -11.185  16.818  69.896  1.00  0.00     0.000 HD 
BRANCH  41  43
HETATM   43  C   UNL     1      -9.214  16.301  69.622  1.00  0.00     0.159 C  
HETATM   44  H2  UNL     1      -9.656  15.446  67.757  1.00  0.00     0.000 HD 
HETATM   45  N   UNL     1      -8.957  15.886  68.356  1.00  0.00    -0.183 N  
HETATM   46  H1  UNL     1      -7.996  16.057  68.062  1.00  0.00     0.000 HD 
HETATM   47  O   UNL     1      -8.343  16.837  70.297  1.00  0.00     1.762 OA 
ENDBRANCH  41  43
ENDBRANCH  18  41
BRANCH  28  48
HETATM   48  C   UNL     1     -11.497  11.536  67.809  1.00  0.00    -0.286 C  
HETATM   49  O   UNL     1     -12.604  10.646  67.608  1.00  0.00     1.232 OA 
HETATM   50  H   UNL     1     -12.618   9.959  68.264  1.00  0.00     0.000 HD 
ENDBRANCH  28  48
BRANCH  40  51
HETATM   51  CB  UNL     1      -8.920   9.222  64.382  1.00  0.00    -0.116 C  
HETATM   52  O   UNL     1      -8.304   7.975  64.706  1.00  0.00    -0.242 OA 
HETATM   53  H   UNL     1      -8.055   7.472  63.939  1.00  0.00     0.000 HD 
ENDBRANCH  40  51
BRANCH  31  54
HETATM   54  N   UNL     1      -9.056   6.260  68.574  1.00  0.00    -0.126 N  
HETATM   55  H   UNL     1      -8.154   6.087  68.130  1.00  0.00     0.000 HD 
HETATM   56  O   UNL     1     -10.878   5.355  69.601  1.00  0.00    -0.289 OA 
HETATM   57  C   UNL     1      -9.800   5.192  69.035  1.00  0.00    -0.176 C  
BRANCH  57  58
HETATM   58  C   UNL     1      -9.155   3.831  68.793  1.00  0.00    -0.199 C  
BRANCH  58  59
HETATM   59  C   UNL     1      -9.214   3.357  67.325  1.00  0.00    -0.193 C  
HETATM   60  H1  UNL     1      -9.872   4.075  65.509  1.00  0.00     0.000 HD 
HETATM   61  N   UNL     1      -9.832   4.389  66.479  1.00  0.00    -0.215 NA 
HETATM   62  H2  UNL     1      -9.359   5.288  66.569  1.00  0.00     0.000 HD 
BRANCH  59  63
HETATM   63  C   UNL     1      -7.820   3.052  66.728  1.00  0.00    -0.076 C  
BRANCH  63  64
HETATM   64  C   UNL     1      -6.710   2.954  67.779  1.00  0.00    -0.040 C  
BRANCH  64  65
HETATM   65  C   UNL     1      -7.024   1.903  68.845  1.00  0.00    -0.036 C  
HETATM   66  N   UNL     1      -8.453   1.916  69.136  1.00  0.00    -0.052 NA 
HETATM   67  H2  UNL     1      -9.019   1.793  68.296  1.00  0.00     0.000 HD 
HETATM   68  H1  UNL     1      -8.663   1.215  69.847  1.00  0.00     0.000 HD 
ENDBRANCH  64  65
ENDBRANCH  63  64
ENDBRANCH  59  63
ENDBRANCH  58  59
ENDBRANCH  57  58
ENDBRANCH  31  54
ENDBRANCH   1  14
TORSDOF 11
ENDMDL
MODEL       87
REMARK 921   NORMALIZED FREE ENERGY PREDICTED BY IDOCK:   12.02 KCAL/MOL
REMARK 922        TOTAL FREE ENERGY PREDICTED BY IDOCK:   17.79 KCAL/MOL
REMARK 923 INTER-LIGAND FREE ENERGY PREDICTED BY IDOCK:    8.95 KCAL/MOL
REMARK 924 INTRA-LIGAND FREE ENERGY PREDICTED BY IDOCK:    8.84 KCAL/MOL
REMARK 927      BINDING AFFINITY PREDICTED BY RF-SCORE:    0.00 PKD
ROOT
HETATM    1  C   UNL     1      -9.440  13.447  66.537  1.00  0.00    -0.245 C  
HETATM    2  C   UNL     1     -10.255  14.139  65.404  1.00  0.00    -0.380 C  
HETATM    3  H1  UNL     1      -7.201  15.711  68.379  1.00  0.00     0.000 HD 
HETATM    4  H   UNL     1      -7.260  13.547  66.518  1.00  0.00     0.000 HD 
HETATM    5  C   UNL     1     -10.138  15.658  65.506  1.00  0.00    -0.362 C  
HETATM    6  H2  UNL     1      -7.871  17.133  67.601  1.00  0.00     0.000 HD 
HETATM    7  N   UNL     1      -8.743  16.002  65.535  1.00  0.00    -0.006 NA 
HETATM    8  O   UNL     1     -10.739  16.286  64.397  1.00  0.00    -0.854 OA 
HETATM    9  N   UNL     1      -8.120  14.095  66.542  1.00  0.00     0.495 NA 
HETATM   10  N   UNL     1      -7.692  16.129  67.588  1.00  0.00    -0.135 NA 
HETATM   11  H   UNL     1      -8.293  16.599  64.840  1.00  0.00     0.000 HD 
HETATM   12  C   UNL     1      -8.093  15.449  66.581  1.00  0.00    -0.098 C  
HETATM   13  H   UNL     1     -10.666  17.231  64.461  1.00  0.00     0.000 HD 
ENDROOT
BRANCH   1  14
HETATM   14  C   UNL     1     -10.120  13.472  67.948  1.00  0.00    -0.248 C  
HETATM   15  N   UNL     1      -6.081  13.224  70.582  1.00  0.00    -0.385 N  
HETATM   16  O   UNL     1      -7.402  14.776  68.593  1.00  0.00    -0.110 OA 
HETATM   17  C   UNL     1      -8.056  14.127  69.399  1.00  0.00     0.346 C  
HETATM   18  C   UNL     1      -7.905  14.264  71.830  1.00  0.00     5.611 C  
HETATM   19  N   UNL     1      -8.079   8.128  68.419  1.00  0.00    -0.126 N  
HETATM   20  H   UNL     1      -9.602  12.956  69.961  1.00  0.00     0.000 HD 
HETATM   21  N   UNL     1      -9.247  13.497  69.172  1.00  0.00     0.387 N  
HETATM   22  H   UNL     1      -5.320  13.733  70.130  1.00  0.00     0.000 HD 
HETATM   23  C   UNL     1      -7.360  13.805  70.697  1.00  0.00     1.943 C  
HETATM   24  C   UNL     1      -5.867  11.936  71.098  1.00  0.00     0.339 C  
HETATM   25  O   UNL     1     -11.818  12.195  69.141  1.00  0.00    -0.300 OA 
HETATM   26  O   UNL     1      -5.913  11.667  72.296  1.00  0.00     0.853 OA 
HETATM   27  N   UNL     1     -10.678  11.051  67.531  1.00  0.00    -0.227 N  
HETATM   28  CA  UNL     1      -5.721  10.836  69.994  1.00  0.00    -0.072 C  
HETATM   29  N   UNL     1      -5.738   9.429  70.454  1.00  0.00    -0.035 N  
HETATM   30  C   UNL     1     -11.212   9.726  67.858  1.00  0.00     0.034 C  
HETATM   31  CA  UNL     1     -10.265   8.617  67.319  1.00  0.00    -0.268 C  
HETATM   32  H   UNL     1     -10.023  11.125  66.752  1.00  0.00     0.000 HD 
HETATM   33  H   UNL     1      -5.672   9.179  71.441  1.00  0.00     0.000 HD 
HETATM   34  O   UNL     1      -9.975   7.243  69.307  1.00  0.00    -0.165 OA 
HETATM   35  C   UNL     1      -5.849   8.462  69.444  1.00  0.00    -0.030 C  
HETATM   36  C   UNL     1      -9.451   7.965  68.459  1.00  0.00    -0.148 C  
HETATM   37  H   UNL     1      -7.680   8.635  67.629  1.00  0.00     0.000 HD 
HETATM   38  C   UNL     1     -11.007  12.205  68.213  1.00  0.00    -0.234 C  
HETATM   39  O   UNL     1      -5.128   8.517  68.445  1.00  0.00    -0.032 OA 
HETATM   40  CA  UNL     1      -7.148   7.606  69.461  1.00  0.00    -0.064 C  
BRANCH  18  41
HETATM   41  N   UNL     1      -7.244  14.269  73.034  1.00  0.00     3.129 N  
HETATM   42  H   UNL     1      -7.753  13.982  73.870  1.00  0.00     0.000 HD 
BRANCH  41  43
HETATM   43  C   UNL     1      -5.938  14.641  73.163  1.00  0.00     0.473 C  
HETATM   44  H2  UNL     1      -5.589  12.929  74.326  1.00  0.00     0.000 HD 
HETATM   45  N   UNL     1      -5.203  13.775  73.906  1.00  0.00    -0.290 N  
HETATM   46  H1  UNL     1      -4.227  14.053  74.002  1.00  0.00     0.000 HD 
HETATM   47  O   UNL     1      -5.425  15.638  72.668  1.00  0.00     0.383 OA 
ENDBRANCH  41  43
ENDBRANCH  18  41
BRANCH  28  48
HETATM   48  C   UNL     1      -6.942  11.010  69.069  1.00  0.00    -0.097 C  
HETATM   49  O   UNL     1      -8.168  10.755  69.771  1.00  0.00    -0.371 OA 
HETATM   50  H   UNL     1      -8.921  10.863  69.202  1.00  0.00     0.000 HD 
ENDBRANCH  28  48
BRANCH  40  51
HETATM   51  CB  UNL     1      -6.797   6.142  69.176  1.00  0.00    -0.062 C  
HETATM   52  O   UNL     1      -7.330   5.239  70.147  1.00  0.00    -0.063 OA 
HETATM   53  H   UNL     1      -7.112   4.331  69.970  1.00  0.00     0.000 HD 
ENDBRANCH  40  51
BRANCH  31  54
HETATM   54  N   UNL     1     -10.994   7.573  66.589  1.00  0.00    -0.334 N  
HETATM   55  H   UNL     1     -11.711   7.842  65.915  1.00  0.00     0.000 HD 
HETATM   56  O   UNL     1      -9.855   5.864  67.578  1.00  0.00    -0.114 OA 
HETATM   57  C   UNL     1     -10.729   6.235  66.797  1.00  0.00    -0.293 C  
BRANCH  57  58
HETATM   58  C   UNL     1     -11.594   5.290  65.968  1.00  0.00     1.269 C  
BRANCH  58  59
HETATM   59  C   UNL     1     -10.809   4.149  65.287  1.00  0.00     0.085 C  
HETATM   60  H1  UNL     1     -11.096   2.786  63.768  1.00  0.00     0.000 HD 
HETATM   61  N   UNL     1     -11.615   3.541  64.218  1.00  0.00    -0.027 NA 
HETATM   62  H2  UNL     1     -11.940   4.234  63.544  1.00  0.00     0.000 HD 
BRANCH  59  63
HETATM   63  C   UNL     1      -9.484   4.623  64.643  1.00  0.00    -0.054 C  
BRANCH  63  64
HETATM   64  C   UNL     1      -8.286   3.728  64.976  1.00  0.00    -0.097 C  
BRANCH  64  65
HETATM   65  C   UNL     1      -7.211   3.785  63.889  1.00  0.00    -0.051 C  
HETATM   66  N   UNL     1      -5.928   4.132  64.491  1.00  0.00    -0.018 NA 
HETATM   67  H2  UNL     1      -5.675   3.499  65.250  1.00  0.00     0.000 HD 
HETATM   68  H1  UNL     1      -5.211   4.170  63.766  1.00  0.00     0.000 HD 
ENDBRANCH  64  65
ENDBRANCH  63  64
ENDBRANCH  59  63
ENDBRANCH  58  59
ENDBRANCH  57  58
ENDBRANCH  31  54
ENDBRANCH   1  14
TORSDOF 11
ENDMDL
MODEL       88
REMARK 921   NORMALIZED FREE ENERGY PREDICTED BY IDOCK:   12.03 KCAL/MOL
REMARK 922        TOTAL FREE ENERGY PREDICTED BY IDOCK:   17.80 KCAL/MOL
REMARK 923 INTER-LIGAND FREE ENERGY PREDICTED BY IDOCK:    0.04 KCAL/MOL
REMARK 924 INTRA-LIGAND FREE ENERGY PREDICTED BY IDOCK:   17.76 KCAL/MOL
REMARK 927      BINDING AFFINITY PREDICTED BY RF-SCORE:    0.00 PKD
ROOT
HETATM    1  C   UNL     1      -7.139  10.774  68.026  1.00  0.00    -0.081 C  
HETATM    2  C   UNL     1      -6.198  12.012  67.930  1.00  0.00    -0.073 C  
HETATM    3  H1  UNL     1     -10.374  11.461  69.637  1.00  0.00     0.000 HD 
HETATM    4  H   UNL     1      -7.876  10.122  69.975  1.00  0.00     0.000 HD 
HETATM    5  C   UNL     1      -6.954  13.291  68.280  1.00  0.00    -0.107 C  
HETATM    6  H2  UNL     1     -10.085  13.191  69.655  1.00  0.00     0.000 HD 
HETATM    7  N   UNL     1      -7.577  13.111  69.563  1.00  0.00    -0.070 NA 
HETATM    8  O   UNL     1      -6.078  14.392  68.350  1.00  0.00    -0.086 OA 
HETATM    9  N   UNL     1      -7.843  10.897  69.311  1.00  0.00    -0.127 NA 
HETATM   10  N   UNL     1      -9.716  12.241  69.626  1.00  0.00     1.283 NA 
HETATM   11  H   UNL     1      -7.382  13.699  70.374  1.00  0.00     0.000 HD 
HETATM   12  C   UNL     1      -8.447  12.080  69.578  1.00  0.00     1.250 C  
HETATM   13  H   UNL     1      -6.548  15.188  68.568  1.00  0.00     0.000 HD 
ENDROOT
BRANCH   1  14
HETATM   14  C   UNL     1      -8.126  10.600  66.822  1.00  0.00    -0.131 C  
HETATM   15  N   UNL     1      -9.868  15.104  66.800  1.00  0.00    -0.235 N  
HETATM   16  O   UNL     1      -7.457  13.601  66.594  1.00  0.00     0.507 OA 
HETATM   17  C   UNL     1      -8.519  13.110  66.235  1.00  0.00     0.623 C  
HETATM   18  C   UNL     1     -10.073  14.051  64.606  1.00  0.00    -0.067 C  
HETATM   19  N   UNL     1     -12.214  11.438  70.763  1.00  0.00    -0.383 N  
HETATM   20  H   UNL     1      -9.847  11.602  66.033  1.00  0.00     0.000 HD 
HETATM   21  N   UNL     1      -8.892  11.799  66.336  1.00  0.00    -0.191 N  
HETATM   22  H   UNL     1      -9.144  15.775  67.059  1.00  0.00     0.000 HD 
HETATM   23  C   UNL     1      -9.600  14.091  65.857  1.00  0.00    -0.159 C  
HETATM   24  C   UNL     1     -11.145  15.177  67.379  1.00  0.00    -0.325 C  
HETATM   25  O   UNL     1      -9.971   9.129  66.216  1.00  0.00    -0.270 OA 
HETATM   26  O   UNL     1     -12.163  15.455  66.748  1.00  0.00     0.370 OA 
HETATM   27  N   UNL     1      -9.634   9.414  68.453  1.00  0.00    -0.145 N  
HETATM   28  CA  UNL     1     -11.182  14.715  68.875  1.00  0.00    -0.267 C  
HETATM   29  N   UNL     1     -12.521  14.533  69.478  1.00  0.00    -0.557 N  
HETATM   30  C   UNL     1     -10.854   8.729  68.894  1.00  0.00    -0.008 C  
HETATM   31  CA  UNL     1     -11.236   9.183  70.331  1.00  0.00    -0.240 C  
HETATM   32  H   UNL     1      -9.009   9.786  69.168  1.00  0.00     0.000 HD 
HETATM   33  H   UNL     1     -13.373  14.851  69.018  1.00  0.00     0.000 HD 
HETATM   34  O   UNL     1     -13.577   9.775  70.027  1.00  0.00     0.511 OA 
HETATM   35  C   UNL     1     -12.540  13.893  70.727  1.00  0.00    -0.354 C  
HETATM   36  C   UNL     1     -12.441  10.150  70.317  1.00  0.00    -0.104 C  
HETATM   37  H   UNL     1     -11.281  11.669  71.106  1.00  0.00     0.000 HD 
HETATM   38  C   UNL     1      -9.281   9.584  67.130  1.00  0.00    -0.134 C  
HETATM   39  O   UNL     1     -11.774  14.253  71.625  1.00  0.00    -0.130 OA 
HETATM   40  CA  UNL     1     -13.251  12.510  70.774  1.00  0.00     0.444 C  
BRANCH  18  41
HETATM   41  N   UNL     1     -10.853  15.043  64.065  1.00  0.00     0.057 N  
HETATM   42  H   UNL     1     -11.177  14.937  63.103  1.00  0.00     0.000 HD 
BRANCH  41  43
HETATM   43  C   UNL     1     -11.215  16.163  64.753  1.00  0.00    -0.304 C  
HETATM   44  H2  UNL     1     -13.180  15.932  64.053  1.00  0.00     0.000 HD 
HETATM   45  N   UNL     1     -12.528  16.478  64.616  1.00  0.00     1.713 N  
HETATM   46  H1  UNL     1     -12.798  17.316  65.131  1.00  0.00     0.000 HD 
HETATM   47  O   UNL     1     -10.474  16.845  65.453  1.00  0.00    -0.609 OA 
ENDBRANCH  41  43
ENDBRANCH  18  41
BRANCH  28  48
HETATM   48  C   UNL     1     -10.495  13.336  68.901  1.00  0.00    -0.100 C  
HETATM   49  O   UNL     1     -11.275  12.352  68.204  1.00  0.00    -0.229 OA 
HETATM   50  H   UNL     1     -10.852  11.502  68.220  1.00  0.00     0.000 HD 
ENDBRANCH  28  48
BRANCH  40  51
HETATM   51  CB  UNL     1     -14.101  12.417  72.046  1.00  0.00     0.505 C  
HETATM   52  O   UNL     1     -13.646  11.410  72.951  1.00  0.00     0.132 OA 
HETATM   53  H   UNL     1     -14.174  11.353  73.740  1.00  0.00     0.000 HD 
ENDBRANCH  40  51
BRANCH  31  54
HETATM   54  N   UNL     1     -11.539   8.047  71.209  1.00  0.00    -0.272 N  
HETATM   55  H   UNL     1     -12.454   7.993  71.658  1.00  0.00     0.000 HD 
HETATM   56  O   UNL     1      -9.510   7.059  70.895  1.00  0.00    -0.161 OA 
HETATM   57  C   UNL     1     -10.613   7.050  71.437  1.00  0.00    -0.217 C  
BRANCH  57  58
HETATM   58  C   UNL     1     -11.091   5.959  72.390  1.00  0.00    -0.328 C  
BRANCH  58  59
HETATM   59  C   UNL     1     -10.197   5.772  73.634  1.00  0.00    -0.222 C  
HETATM   60  H1  UNL     1     -10.139   4.578  75.313  1.00  0.00     0.000 HD 
HETATM   61  N   UNL     1     -10.730   4.702  74.491  1.00  0.00    -0.345 NA 
HETATM   62  H2  UNL     1     -10.855   3.830  73.977  1.00  0.00     0.000 HD 
BRANCH  59  63
HETATM   63  C   UNL     1      -8.739   5.390  73.283  1.00  0.00    -0.116 C  
BRANCH  63  64
HETATM   64  C   UNL     1      -7.707   6.433  73.727  1.00  0.00    -0.091 C  
BRANCH  64  65
HETATM   65  C   UNL     1      -6.337   6.185  73.095  1.00  0.00    -0.067 C  
HETATM   66  N   UNL     1      -6.433   6.337  71.647  1.00  0.00    -0.052 NA 
HETATM   67  H2  UNL     1      -6.823   7.241  71.379  1.00  0.00     0.000 HD 
HETATM   68  H1  UNL     1      -5.519   6.173  71.226  1.00  0.00     0.000 HD 
ENDBRANCH  64  65
ENDBRANCH  63  64
ENDBRANCH  59  63
ENDBRANCH  58  59
ENDBRANCH  57  58
ENDBRANCH  31  54
ENDBRANCH   1  14
TORSDOF 11
ENDMDL
MODEL       89
REMARK 921   NORMALIZED FREE ENERGY PREDICTED BY IDOCK:   14.15 KCAL/MOL
REMARK 922        TOTAL FREE ENERGY PREDICTED BY IDOCK:   21.29 KCAL/MOL
REMARK 923 INTER-LIGAND FREE ENERGY PREDICTED BY IDOCK:    1.78 KCAL/MOL
REMARK 924 INTRA-LIGAND FREE ENERGY PREDICTED BY IDOCK:   19.51 KCAL/MOL
REMARK 927      BINDING AFFINITY PREDICTED BY RF-SCORE:    0.00 PKD
ROOT
HETATM    1  C   UNL     1     -11.446   8.068  70.816  1.00  0.00    -0.263 C  
HETATM    2  C   UNL     1     -11.816   6.868  71.737  1.00  0.00    -0.354 C  
HETATM    3  H1  UNL     1      -7.987   8.001  69.568  1.00  0.00     0.000 HD 
HETATM    4  H   UNL     1      -9.765   9.359  71.341  1.00  0.00     0.000 HD 
HETATM    5  C   UNL     1     -10.732   5.794  71.682  1.00  0.00    -0.256 C  
HETATM    6  H2  UNL     1      -7.713   6.383  70.185  1.00  0.00     0.000 HD 
HETATM    7  N   UNL     1      -9.469   6.410  71.981  1.00  0.00    -0.152 NA 
HETATM    8  O   UNL     1     -10.979   4.779  72.628  1.00  0.00    -0.204 OA 
HETATM    9  N   UNL     1     -10.048   8.402  71.124  1.00  0.00    -0.188 NA 
HETATM   10  N   UNL     1      -8.228   7.262  70.228  1.00  0.00    -0.131 NA 
HETATM   11  H   UNL     1      -8.879   6.138  72.767  1.00  0.00     0.000 HD 
HETATM   12  C   UNL     1      -9.149   7.388  71.107  1.00  0.00    -0.148 C  
HETATM   13  H   UNL     1     -10.305   4.110  72.593  1.00  0.00     0.000 HD 
ENDROOT
BRANCH   1  14
HETATM   14  C   UNL     1     -11.676   7.821  69.286  1.00  0.00     0.966 C  
HETATM   15  N   UNL     1      -7.345   5.918  68.315  1.00  0.00    -0.079 N  
HETATM   16  O   UNL     1      -9.661   5.581  69.939  1.00  0.00    -0.153 OA 
HETATM   17  C   UNL     1      -9.753   6.118  68.843  1.00  0.00    -0.130 C  
HETATM   18  C   UNL     1      -9.030   5.183  66.708  1.00  0.00    -0.113 C  
HETATM   19  N   UNL     1      -7.589  11.792  68.593  1.00  0.00    -0.126 N  
HETATM   20  H   UNL     1     -10.477   7.483  67.544  1.00  0.00     0.000 HD 
HETATM   21  N   UNL     1     -10.597   7.134  68.495  1.00  0.00    -0.202 N  
HETATM   22  H   UNL     1      -7.008   5.361  69.102  1.00  0.00     0.000 HD 
HETATM   23  C   UNL     1      -8.668   5.773  67.853  1.00  0.00    -0.103 C  
HETATM   24  C   UNL     1      -6.496   6.838  67.680  1.00  0.00    -0.049 C  
HETATM   25  O   UNL     1     -12.321   9.133  67.337  1.00  0.00     4.551 OA 
HETATM   26  O   UNL     1      -6.108   6.716  66.520  1.00  0.00    -0.031 OA 
HETATM   27  N   UNL     1     -11.287  10.294  69.005  1.00  0.00    -0.399 N  
HETATM   28  CA  UNL     1      -6.214   8.121  68.532  1.00  0.00    -0.049 C  
HETATM   29  N   UNL     1      -5.532   9.238  67.840  1.00  0.00    -0.034 N  
HETATM   30  C   UNL     1     -11.126  11.547  68.261  1.00  0.00    -0.239 C  
HETATM   31  CA  UNL     1      -9.990  12.403  68.888  1.00  0.00     0.079 C  
HETATM   32  H   UNL     1     -10.952  10.263  69.968  1.00  0.00     0.000 HD 
HETATM   33  H   UNL     1      -5.110   9.130  66.918  1.00  0.00     0.000 HD 
HETATM   34  O   UNL     1      -8.648  12.912  66.923  1.00  0.00    -0.195 OA 
HETATM   35  C   UNL     1      -5.504  10.455  68.537  1.00  0.00    -0.037 C  
HETATM   36  C   UNL     1      -8.710  12.366  68.024  1.00  0.00    -0.186 C  
HETATM   37  H   UNL     1      -7.656  11.458  69.555  1.00  0.00     0.000 HD 
HETATM   38  C   UNL     1     -11.863   9.155  68.481  1.00  0.00     1.742 C  
HETATM   39  O   UNL     1      -5.163  10.488  69.722  1.00  0.00    -0.038 OA 
HETATM   40  CA  UNL     1      -6.286  11.632  67.885  1.00  0.00    -0.050 C  
BRANCH  18  41
HETATM   41  N   UNL     1      -8.135   4.587  65.853  1.00  0.00    -0.102 N  
HETATM   42  H   UNL     1      -7.357   4.063  66.252  1.00  0.00     0.000 HD 
BRANCH  41  43
HETATM   43  C   UNL     1      -8.240   4.664  64.496  1.00  0.00    -0.111 C  
HETATM   44  H2  UNL     1     -10.323   4.846  64.690  1.00  0.00     0.000 HD 
HETATM   45  N   UNL     1      -9.519   4.803  64.063  1.00  0.00    -0.355 N  
HETATM   46  H1  UNL     1      -9.598   4.861  63.047  1.00  0.00     0.000 HD 
HETATM   47  O   UNL     1      -7.307   4.631  63.702  1.00  0.00    -0.052 OA 
ENDBRANCH  41  43
ENDBRANCH  18  41
BRANCH  28  48
HETATM   48  C   UNL     1      -7.598   8.648  68.961  1.00  0.00    -0.090 C  
HETATM   49  O   UNL     1      -7.895   9.903  68.331  1.00  0.00    -0.084 OA 
HETATM   50  H   UNL     1      -8.748  10.227  68.596  1.00  0.00     0.000 HD 
ENDBRANCH  28  48
BRANCH  40  51
HETATM   51  CB  UNL     1      -5.457  12.916  67.996  1.00  0.00    -0.100 C  
HETATM   52  O   UNL     1      -5.166  13.507  66.728  1.00  0.00     0.313 OA 
HETATM   53  H   UNL     1      -4.653  14.304  66.797  1.00  0.00     0.000 HD 
ENDBRANCH  40  51
BRANCH  31  54
HETATM   54  N   UNL     1     -10.395  13.799  69.090  1.00  0.00    -0.430 N  
HETATM   55  H   UNL     1      -9.692  14.537  69.035  1.00  0.00     0.000 HD 
HETATM   56  O   UNL     1     -12.594  13.283  69.397  1.00  0.00     0.003 OA 
HETATM   57  C   UNL     1     -11.708  14.134  69.351  1.00  0.00    -0.313 C  
BRANCH  57  58
HETATM   58  C   UNL     1     -11.944  15.628  69.552  1.00  0.00    -0.363 C  
BRANCH  58  59
HETATM   59  C   UNL     1     -11.843  16.462  68.258  1.00  0.00     0.284 C  
HETATM   60  H1  UNL     1     -10.832  18.127  67.584  1.00  0.00     0.000 HD 
HETATM   61  N   UNL     1     -10.899  17.575  68.439  1.00  0.00    -0.264 NA 
HETATM   62  H2  UNL     1      -9.984  17.250  68.755  1.00  0.00     0.000 HD 
BRANCH  59  63
HETATM   63  C   UNL     1     -11.352  15.642  67.042  1.00  0.00    -0.051 C  
BRANCH  63  64
HETATM   64  C   UNL     1     -10.655  16.488  65.971  1.00  0.00    -0.259 C  
BRANCH  64  65
HETATM   65  C   UNL     1     -11.219  17.908  65.909  1.00  0.00     0.836 C  
HETATM   66  N   UNL     1     -10.127  18.870  66.014  1.00  0.00    -0.517 NA 
HETATM   67  H2  UNL     1      -9.404  18.712  65.312  1.00  0.00     0.000 HD 
HETATM   68  H1  UNL     1     -10.503  19.817  65.973  1.00  0.00     0.000 HD 
ENDBRANCH  64  65
ENDBRANCH  63  64
ENDBRANCH  59  63
ENDBRANCH  58  59
ENDBRANCH  57  58
ENDBRANCH  31  54
ENDBRANCH   1  14
TORSDOF 11
ENDMDL
MODEL       90
REMARK 921   NORMALIZED FREE ENERGY PREDICTED BY IDOCK:   14.63 KCAL/MOL
REMARK 922        TOTAL FREE ENERGY PREDICTED BY IDOCK:   22.09 KCAL/MOL
REMARK 923 INTER-LIGAND FREE ENERGY PREDICTED BY IDOCK:    5.82 KCAL/MOL
REMARK 924 INTRA-LIGAND FREE ENERGY PREDICTED BY IDOCK:   16.26 KCAL/MOL
REMARK 927      BINDING AFFINITY PREDICTED BY RF-SCORE:    0.00 PKD
ROOT
HETATM    1  C   UNL     1     -11.485   8.074  70.762  1.00  0.00    -0.263 C  
HETATM    2  C   UNL     1     -11.790   7.199  72.015  1.00  0.00    -0.333 C  
HETATM    3  H1  UNL     1      -8.297   7.278  69.109  1.00  0.00     0.000 HD 
HETATM    4  H   UNL     1      -9.644   9.244  70.680  1.00  0.00     0.000 HD 
HETATM    5  C   UNL     1     -10.819   6.025  72.101  1.00  0.00    -0.251 C  
HETATM    6  H2  UNL     1      -8.053   5.849  70.095  1.00  0.00     0.000 HD 
HETATM    7  N   UNL     1      -9.479   6.541  72.043  1.00  0.00    -0.151 NA 
HETATM    8  O   UNL     1     -10.984   5.321  73.310  1.00  0.00    -0.267 OA 
HETATM    9  N   UNL     1     -10.033   8.305  70.771  1.00  0.00    -0.187 NA 
HETATM   10  N   UNL     1      -8.483   6.765  69.971  1.00  0.00    -0.138 NA 
HETATM   11  H   UNL     1      -8.789   6.409  72.784  1.00  0.00     0.000 HD 
HETATM   12  C   UNL     1      -9.232   7.220  70.903  1.00  0.00    -0.155 C  
HETATM   13  H   UNL     1     -10.380   4.590  73.363  1.00  0.00     0.000 HD 
ENDROOT
BRANCH   1  14
HETATM   14  C   UNL     1     -11.984   7.475  69.403  1.00  0.00     1.089 C  
HETATM   15  N   UNL     1      -8.217   4.565  68.593  1.00  0.00    -0.081 N  
HETATM   16  O   UNL     1     -10.278   5.140  70.472  1.00  0.00    -0.238 OA 
HETATM   17  C   UNL     1     -10.451   5.370  69.282  1.00  0.00    -0.239 C  
HETATM   18  C   UNL     1     -10.225   3.773  67.451  1.00  0.00     0.707 C  
HETATM   19  N   UNL     1      -7.470  10.226  67.166  1.00  0.00    -0.091 N  
HETATM   20  H   UNL     1     -11.138   6.452  67.722  1.00  0.00     0.000 HD 
HETATM   21  N   UNL     1     -11.165   6.402  68.741  1.00  0.00    -0.326 N  
HETATM   22  H   UNL     1      -7.857   4.185  69.469  1.00  0.00     0.000 HD 
HETATM   23  C   UNL     1      -9.602   4.566  68.331  1.00  0.00    -0.145 C  
HETATM   24  C   UNL     1      -7.340   5.095  67.633  1.00  0.00    -0.075 C  
HETATM   25  O   UNL     1     -12.703   8.316  67.233  1.00  0.00     7.794 OA 
HETATM   26  O   UNL     1      -7.159   4.592  66.526  1.00  0.00    -0.071 OA 
HETATM   27  N   UNL     1     -11.252   9.655  68.373  1.00  0.00    -0.502 N  
HETATM   28  CA  UNL     1      -6.728   6.477  68.040  1.00  0.00    -0.068 C  
HETATM   29  N   UNL     1      -5.990   7.210  66.986  1.00  0.00    -0.032 N  
HETATM   30  C   UNL     1     -11.009  10.605  67.284  1.00  0.00    -0.284 C  
HETATM   31  CA  UNL     1      -9.667  11.356  67.514  1.00  0.00    -0.178 C  
HETATM   32  H   UNL     1     -10.782   9.817  69.264  1.00  0.00     0.000 HD 
HETATM   33  H   UNL     1      -5.739   6.778  66.097  1.00  0.00     0.000 HD 
HETATM   34  O   UNL     1      -8.581  11.044  65.360  1.00  0.00    -0.158 OA 
HETATM   35  C   UNL     1      -5.660   8.539  67.290  1.00  0.00    -0.039 C  
HETATM   36  C   UNL     1      -8.558  10.836  66.573  1.00  0.00    -0.150 C  
HETATM   37  H   UNL     1      -7.441  10.183  68.185  1.00  0.00     0.000 HD 
HETATM   38  C   UNL     1     -12.077   8.554  68.267  1.00  0.00     3.815 C  
HETATM   39  O   UNL     1      -5.139   8.821  68.372  1.00  0.00    -0.033 OA 
HETATM   40  CA  UNL     1      -6.334   9.628  66.407  1.00  0.00    -0.069 C  
BRANCH  18  41
HETATM   41  N   UNL     1      -9.580   2.806  66.721  1.00  0.00    -0.404 N  
HETATM   42  H   UNL     1      -9.037   2.101  67.220  1.00  0.00     0.000 HD 
BRANCH  41  43
HETATM   43  C   UNL     1      -9.632   2.744  65.360  1.00  0.00     0.075 C  
HETATM   44  H2  UNL     1      -9.255   4.807  65.274  1.00  0.00     0.000 HD 
HETATM   45  N   UNL     1      -9.429   3.944  64.759  1.00  0.00    -0.157 N  
HETATM   46  H1  UNL     1      -9.468   3.898  63.741  1.00  0.00     0.000 HD 
HETATM   47  O   UNL     1      -9.825   1.733  64.695  1.00  0.00    -0.026 OA 
ENDBRANCH  41  43
ENDBRANCH  18  41
BRANCH  28  48
HETATM   48  C   UNL     1      -7.926   7.362  68.435  1.00  0.00    -0.124 C  
HETATM   49  O   UNL     1      -9.056   7.120  67.583  1.00  0.00    -0.128 OA 
HETATM   50  H   UNL     1      -9.794   7.666  67.827  1.00  0.00     0.000 HD 
ENDBRANCH  28  48
BRANCH  40  51
HETATM   51  CB  UNL     1      -5.303  10.705  66.052  1.00  0.00    -0.099 C  
HETATM   52  O   UNL     1      -5.473  11.232  64.735  1.00  0.00    -0.471 OA 
HETATM   53  H   UNL     1      -4.834  11.900  64.516  1.00  0.00     0.000 HD 
ENDBRANCH  40  51
BRANCH  31  54
HETATM   54  N   UNL     1      -9.808  12.807  67.339  1.00  0.00    -0.207 N  
HETATM   55  H   UNL     1     -10.560  13.169  66.753  1.00  0.00     0.000 HD 
HETATM   56  O   UNL     1      -8.040  13.300  68.691  1.00  0.00    -0.121 OA 
HETATM   57  C   UNL     1      -8.942  13.689  67.953  1.00  0.00    -0.195 C  
BRANCH  57  58
HETATM   58  C   UNL     1      -9.225  15.157  67.645  1.00  0.00    -0.181 C  
BRANCH  58  59
HETATM   59  C   UNL     1      -9.365  15.470  66.140  1.00  0.00    -0.345 C  
HETATM   60  H1  UNL     1     -10.870  15.899  64.799  1.00  0.00     0.000 HD 
HETATM   61  N   UNL     1     -10.777  15.692  65.794  1.00  0.00    -0.336 NA 
HETATM   62  H2  UNL     1     -11.202  16.416  66.374  1.00  0.00     0.000 HD 
BRANCH  59  63
HETATM   63  C   UNL     1      -8.585  16.733  65.706  1.00  0.00     0.169 C  
BRANCH  63  64
HETATM   64  C   UNL     1      -8.495  17.804  66.799  1.00  0.00    -0.269 C  
BRANCH  64  65
HETATM   65  C   UNL     1      -7.769  17.291  68.044  1.00  0.00    -0.202 C  
HETATM   66  N   UNL     1      -8.652  17.397  69.200  1.00  0.00    -0.033 NA 
HETATM   67  H2  UNL     1      -9.543  16.924  69.050  1.00  0.00     0.000 HD 
HETATM   68  H1  UNL     1      -8.169  17.055  70.030  1.00  0.00     0.000 HD 
ENDBRANCH  64  65
ENDBRANCH  63  64
ENDBRANCH  59  63
ENDBRANCH  58  59
ENDBRANCH  57  58
ENDBRANCH  31  54
ENDBRANCH   1  14
TORSDOF 11
ENDMDL
MODEL       91
REMARK 921   NORMALIZED FREE ENERGY PREDICTED BY IDOCK:   14.84 KCAL/MOL
REMARK 922        TOTAL FREE ENERGY PREDICTED BY IDOCK:   22.42 KCAL/MOL
REMARK 923 INTER-LIGAND FREE ENERGY PREDICTED BY IDOCK:    3.93 KCAL/MOL
REMARK 924 INTRA-LIGAND FREE ENERGY PREDICTED BY IDOCK:   18.49 KCAL/MOL
REMARK 927      BINDING AFFINITY PREDICTED BY RF-SCORE:    0.00 PKD
ROOT
HETATM    1  C   UNL     1     -11.393   9.704  71.954  1.00  0.00     0.062 C  
HETATM    2  C   UNL     1      -9.894  10.005  71.655  1.00  0.00     2.161 C  
HETATM    3  H1  UNL     1     -13.726  11.010  69.429  1.00  0.00     0.000 HD 
HETATM    4  H   UNL     1     -12.818  11.350  72.113  1.00  0.00     0.000 HD 
HETATM    5  C   UNL     1      -9.725  10.535  70.233  1.00  0.00     0.626 C  
HETATM    6  H2  UNL     1     -12.424  11.450  68.340  1.00  0.00     0.000 HD 
HETATM    7  N   UNL     1     -10.607  11.657  70.061  1.00  0.00     0.019 NA 
HETATM    8  O   UNL     1      -8.401  10.958  70.006  1.00  0.00    -0.140 OA 
HETATM    9  N   UNL     1     -12.143  10.886  71.504  1.00  0.00    -0.148 NA 
HETATM   10  N   UNL     1     -12.747  11.256  69.288  1.00  0.00    -0.079 NA 
HETATM   11  H   UNL     1     -10.287  12.596  69.824  1.00  0.00     0.000 HD 
HETATM   12  C   UNL     1     -11.904  11.332  70.247  1.00  0.00    -0.357 C  
HETATM   13  H   UNL     1      -8.296  11.287  69.121  1.00  0.00     0.000 HD 
ENDROOT
BRANCH   1  14
HETATM   14  C   UNL     1     -11.938   8.378  71.324  1.00  0.00    -0.288 C  
HETATM   15  N   UNL     1      -7.896   5.775  71.776  1.00  0.00    -0.105 N  
HETATM   16  O   UNL     1      -9.814   7.266  73.262  1.00  0.00    -0.203 OA 
HETATM   17  C   UNL     1     -10.139   6.716  72.218  1.00  0.00    -0.174 C  
HETATM   18  C   UNL     1      -9.877   4.349  71.686  1.00  0.00    -0.185 C  
HETATM   19  N   UNL     1      -8.120   9.431  67.169  1.00  0.00    -0.102 N  
HETATM   20  H   UNL     1     -11.132   6.589  70.464  1.00  0.00     0.000 HD 
HETATM   21  N   UNL     1     -11.046   7.167  71.301  1.00  0.00    -0.245 N  
HETATM   22  H   UNL     1      -7.396   6.025  72.630  1.00  0.00     0.000 HD 
HETATM   23  C   UNL     1      -9.286   5.544  71.803  1.00  0.00    -0.142 C  
HETATM   24  C   UNL     1      -7.207   5.656  70.558  1.00  0.00    -0.074 C  
HETATM   25  O   UNL     1     -12.990   7.687  69.238  1.00  0.00     3.415 OA 
HETATM   26  O   UNL     1      -7.071   4.594  69.955  1.00  0.00    -0.050 OA 
HETATM   27  N   UNL     1     -11.636   9.516  69.097  1.00  0.00    -0.336 N  
HETATM   28  CA  UNL     1      -6.761   7.030  69.955  1.00  0.00    -0.049 C  
HETATM   29  N   UNL     1      -6.250   7.008  68.566  1.00  0.00    -0.033 N  
HETATM   30  C   UNL     1     -11.646   9.619  67.634  1.00  0.00     1.272 C  
HETATM   31  CA  UNL     1     -10.409  10.424  67.144  1.00  0.00    -0.238 C  
HETATM   32  H   UNL     1     -11.106  10.211  69.622  1.00  0.00     0.000 HD 
HETATM   33  H   UNL     1      -6.031   6.139  68.081  1.00  0.00     0.000 HD 
HETATM   34  O   UNL     1      -9.517   8.923  65.449  1.00  0.00    -0.172 OA 
HETATM   35  C   UNL     1      -6.084   8.264  67.961  1.00  0.00    -0.047 C  
HETATM   36  C   UNL     1      -9.340   9.497  66.524  1.00  0.00    -0.171 C  
HETATM   37  H   UNL     1      -7.981  10.018  67.992  1.00  0.00     0.000 HD 
HETATM   38  C   UNL     1     -12.302   8.536  69.805  1.00  0.00     1.583 C  
HETATM   39  O   UNL     1      -5.501   9.172  68.558  1.00  0.00    -0.037 OA 
HETATM   40  CA  UNL     1      -6.995   8.554  66.734  1.00  0.00    -0.073 C  
BRANCH  18  41
HETATM   41  N   UNL     1      -9.178   3.172  71.576  1.00  0.00    -0.107 N  
HETATM   42  H   UNL     1      -8.668   2.831  72.391  1.00  0.00     0.000 HD 
BRANCH  41  43
HETATM   43  C   UNL     1      -9.136   2.438  70.428  1.00  0.00    -0.107 C  
HETATM   44  H2  UNL     1     -10.815   3.483  69.724  1.00  0.00     0.000 HD 
HETATM   45  N   UNL     1     -10.115   2.762  69.546  1.00  0.00     0.688 N  
HETATM   46  H1  UNL     1     -10.084   2.213  68.687  1.00  0.00     0.000 HD 
HETATM   47  O   UNL     1      -8.311   1.572  70.161  1.00  0.00    -0.041 OA 
ENDBRANCH  41  43
ENDBRANCH  18  41
BRANCH  28  48
HETATM   48  C   UNL     1      -8.027   7.910  69.944  1.00  0.00    -0.109 C  
HETATM   49  O   UNL     1      -8.205   8.551  68.672  1.00  0.00    -0.119 OA 
HETATM   50  H   UNL     1      -8.985   9.093  68.665  1.00  0.00     0.000 HD 
ENDBRANCH  28  48
BRANCH  40  51
HETATM   51  CB  UNL     1      -6.171   9.246  65.642  1.00  0.00    -0.063 C  
HETATM   52  O   UNL     1      -6.849  10.353  65.045  1.00  0.00    -0.208 OA 
HETATM   53  H   UNL     1      -6.338  10.781  64.368  1.00  0.00     0.000 HD 
ENDBRANCH  40  51
BRANCH  31  54
HETATM   54  N   UNL     1     -10.774  11.459  66.169  1.00  0.00    -0.270 N  
HETATM   55  H   UNL     1     -11.750  11.742  66.082  1.00  0.00     0.000 HD 
HETATM   56  O   UNL     1      -8.630  11.770  65.461  1.00  0.00     0.145 OA 
HETATM   57  C   UNL     1      -9.821  12.058  65.370  1.00  0.00    -0.220 C  
BRANCH  57  58
HETATM   58  C   UNL     1     -10.381  13.097  64.403  1.00  0.00    -0.390 C  
BRANCH  58  59
HETATM   59  C   UNL     1      -9.899  14.537  64.676  1.00  0.00     0.571 C  
HETATM   60  H1  UNL     1     -10.562  16.461  64.352  1.00  0.00     0.000 HD 
HETATM   61  N   UNL     1     -10.881  15.509  64.172  1.00  0.00    -0.421 NA 
HETATM   62  H2  UNL     1     -11.812  15.341  64.552  1.00  0.00     0.000 HD 
BRANCH  59  63
HETATM   63  C   UNL     1      -9.695  14.835  66.181  1.00  0.00    -0.338 C  
BRANCH  63  64
HETATM   64  C   UNL     1     -10.102  13.676  67.097  1.00  0.00    -0.245 C  
BRANCH  64  65
HETATM   65  C   UNL     1      -9.616  13.884  68.532  1.00  0.00    -0.185 C  
HETATM   66  N   UNL     1     -10.649  14.569  69.301  1.00  0.00    -0.338 NA 
HETATM   67  H2  UNL     1     -11.545  14.082  69.264  1.00  0.00     0.000 HD 
HETATM   68  H1  UNL     1     -10.326  14.708  70.258  1.00  0.00     0.000 HD 
ENDBRANCH  64  65
ENDBRANCH  63  64
ENDBRANCH  59  63
ENDBRANCH  58  59
ENDBRANCH  57  58
ENDBRANCH  31  54
ENDBRANCH   1  14
TORSDOF 11
ENDMDL
MODEL       92
REMARK 921   NORMALIZED FREE ENERGY PREDICTED BY IDOCK:   14.90 KCAL/MOL
REMARK 922        TOTAL FREE ENERGY PREDICTED BY IDOCK:   22.53 KCAL/MOL
REMARK 923 INTER-LIGAND FREE ENERGY PREDICTED BY IDOCK:   21.86 KCAL/MOL
REMARK 924 INTRA-LIGAND FREE ENERGY PREDICTED BY IDOCK:    0.67 KCAL/MOL
REMARK 927      BINDING AFFINITY PREDICTED BY RF-SCORE:    0.00 PKD
ROOT
HETATM    1  C   UNL     1      -8.676  11.296  65.575  1.00  0.00    -0.036 C  
HETATM    2  C   UNL     1      -8.021  10.017  64.972  1.00  0.00    -0.143 C  
HETATM    3  H1  UNL     1      -9.631  13.820  63.076  1.00  0.00     0.000 HD 
HETATM    4  H   UNL     1      -7.791  13.253  65.183  1.00  0.00     0.000 HD 
HETATM    5  C   UNL     1      -8.183   9.994  63.454  1.00  0.00    -0.164 C  
HETATM    6  H2  UNL     1      -9.298  12.736  61.739  1.00  0.00     0.000 HD 
HETATM    7  N   UNL     1      -7.675  11.231  62.927  1.00  0.00    -0.212 NA 
HETATM    8  O   UNL     1      -7.460   8.926  62.886  1.00  0.00    -0.103 OA 
HETATM    9  N   UNL     1      -8.201  12.421  64.756  1.00  0.00     2.618 NA 
HETATM   10  N   UNL     1      -9.138  13.006  62.709  1.00  0.00     4.261 NA 
HETATM   11  H   UNL     1      -6.906  11.288  62.259  1.00  0.00     0.000 HD 
HETATM   12  C   UNL     1      -8.328  12.309  63.412  1.00  0.00     2.861 C  
HETATM   13  H   UNL     1      -7.560   8.912  61.942  1.00  0.00     0.000 HD 
ENDROOT
BRANCH   1  14
HETATM   14  C   UNL     1     -10.239  11.252  65.675  1.00  0.00    -0.253 C  
HETATM   15  N   UNL     1     -10.617  12.972  70.171  1.00  0.00     0.707 N  
HETATM   16  O   UNL     1      -9.603  13.589  67.582  1.00  0.00    -0.210 OA 
HETATM   17  C   UNL     1     -10.576  12.857  67.701  1.00  0.00    -0.223 C  
HETATM   18  C   UNL     1     -12.648  13.382  68.878  1.00  0.00     0.561 C  
HETATM   19  N   UNL     1      -9.322   7.251  69.687  1.00  0.00    -0.153 N  
HETATM   20  H   UNL     1     -11.724  11.268  67.217  1.00  0.00     0.000 HD 
HETATM   21  N   UNL     1     -10.900  11.787  66.914  1.00  0.00    -0.257 N  
HETATM   22  H   UNL     1      -9.894  13.668  70.356  1.00  0.00     0.000 HD 
HETATM   23  C   UNL     1     -11.364  13.018  68.977  1.00  0.00    -0.289 C  
HETATM   24  C   UNL     1     -10.881  11.956  71.103  1.00  0.00     4.067 C  
HETATM   25  O   UNL     1     -12.005   9.595  65.404  1.00  0.00     5.059 OA 
HETATM   26  O   UNL     1     -11.936  11.862  71.726  1.00  0.00     0.692 OA 
HETATM   27  N   UNL     1      -9.973   8.772  66.034  1.00  0.00    -0.456 N  
HETATM   28  CA  UNL     1      -9.768  10.856  71.162  1.00  0.00     4.720 C  
HETATM   29  N   UNL     1     -10.085   9.635  71.936  1.00  0.00     0.493 N  
HETATM   30  C   UNL     1     -10.424   7.404  66.304  1.00  0.00     0.535 C  
HETATM   31  CA  UNL     1      -9.427   6.688  67.258  1.00  0.00    -0.133 C  
HETATM   32  H   UNL     1      -8.984   8.985  66.163  1.00  0.00     0.000 HD 
HETATM   33  H   UNL     1     -10.902   9.572  72.542  1.00  0.00     0.000 HD 
HETATM   34  O   UNL     1     -10.941   5.831  68.960  1.00  0.00    -0.304 OA 
HETATM   35  C   UNL     1      -9.186   8.569  71.780  1.00  0.00    -0.246 C  
HETATM   36  C   UNL     1      -9.996   6.573  68.690  1.00  0.00    -0.146 C  
HETATM   37  H   UNL     1      -8.473   7.757  69.433  1.00  0.00     0.000 HD 
HETATM   38  C   UNL     1     -10.807   9.790  65.615  1.00  0.00     0.954 C  
HETATM   39  O   UNL     1      -7.970   8.760  71.869  1.00  0.00    -0.279 OA 
HETATM   40  CA  UNL     1      -9.759   7.286  71.113  1.00  0.00    -0.171 C  
BRANCH  18  41
HETATM   41  N   UNL     1     -13.391  13.815  69.949  1.00  0.00     0.467 N  
HETATM   42  H   UNL     1     -14.352  13.485  70.039  1.00  0.00     0.000 HD 
BRANCH  41  43
HETATM   43  C   UNL     1     -12.903  14.664  70.897  1.00  0.00    -0.365 C  
HETATM   44  H2  UNL     1     -12.167  15.907  69.374  1.00  0.00     0.000 HD 
HETATM   45  N   UNL     1     -12.269  15.745  70.376  1.00  0.00    -0.387 N  
HETATM   46  H1  UNL     1     -11.904  16.380  71.086  1.00  0.00     0.000 HD 
HETATM   47  O   UNL     1     -13.010  14.522  72.110  1.00  0.00    -0.315 OA 
ENDBRANCH  41  43
ENDBRANCH  18  41
BRANCH  28  48
HETATM   48  C   UNL     1      -9.548  10.409  69.703  1.00  0.00    -0.109 C  
HETATM   49  O   UNL     1      -8.150  10.356  69.380  1.00  0.00    -0.151 OA 
HETATM   50  H   UNL     1      -8.015  10.080  68.481  1.00  0.00     0.000 HD 
ENDBRANCH  28  48
BRANCH  40  51
HETATM   51  CB  UNL     1      -9.243   6.050  71.859  1.00  0.00    -0.150 C  
HETATM   52  O   UNL     1      -8.039   5.521  71.302  1.00  0.00    -0.108 OA 
HETATM   53  H   UNL     1      -7.719   4.755  71.766  1.00  0.00     0.000 HD 
ENDBRANCH  40  51
BRANCH  31  54
HETATM   54  N   UNL     1      -9.062   5.351  66.776  1.00  0.00    -0.115 N  
HETATM   55  H   UNL     1      -9.192   4.546  67.388  1.00  0.00     0.000 HD 
HETATM   56  O   UNL     1      -8.399   6.098  64.727  1.00  0.00    -0.135 OA 
HETATM   57  C   UNL     1      -8.546   5.162  65.510  1.00  0.00    -0.143 C  
BRANCH  57  58
HETATM   58  C   UNL     1      -8.205   3.711  65.184  1.00  0.00    -0.097 C  
BRANCH  58  59
HETATM   59  C   UNL     1      -7.164   3.080  66.133  1.00  0.00    -0.066 C  
HETATM   60  H1  UNL     1      -5.330   3.567  66.937  1.00  0.00     0.000 HD 
HETATM   61  N   UNL     1      -6.018   3.985  66.310  1.00  0.00    -0.026 NA 
HETATM   62  H2  UNL     1      -6.310   4.910  66.627  1.00  0.00     0.000 HD 
BRANCH  59  63
HETATM   63  C   UNL     1      -7.729   2.779  67.541  1.00  0.00    -0.065 C  
BRANCH  63  64
HETATM   64  C   UNL     1      -7.104   1.546  68.203  1.00  0.00    -0.039 C  
BRANCH  64  65
HETATM   65  C   UNL     1      -7.420   1.477  69.698  1.00  0.00    -0.036 C  
HETATM   66  N   UNL     1      -8.464   2.444  70.019  1.00  0.00    -0.045 NA 
HETATM   67  H2  UNL     1      -9.297   2.319  69.443  1.00  0.00     0.000 HD 
HETATM   68  H1  UNL     1      -8.676   2.398  71.016  1.00  0.00     0.000 HD 
ENDBRANCH  64  65
ENDBRANCH  63  64
ENDBRANCH  59  63
ENDBRANCH  58  59
ENDBRANCH  57  58
ENDBRANCH  31  54
ENDBRANCH   1  14
TORSDOF 11
ENDMDL
MODEL       93
REMARK 921   NORMALIZED FREE ENERGY PREDICTED BY IDOCK:   14.96 KCAL/MOL
REMARK 922        TOTAL FREE ENERGY PREDICTED BY IDOCK:   22.63 KCAL/MOL
REMARK 923 INTER-LIGAND FREE ENERGY PREDICTED BY IDOCK:   15.29 KCAL/MOL
REMARK 924 INTRA-LIGAND FREE ENERGY PREDICTED BY IDOCK:    7.34 KCAL/MOL
REMARK 927      BINDING AFFINITY PREDICTED BY RF-SCORE:    0.00 PKD
ROOT
HETATM    1  C   UNL     1      -5.715  12.493  66.039  1.00  0.00     2.763 C  
HETATM    2  C   UNL     1      -6.967  13.232  65.479  1.00  0.00     7.379 C  
HETATM    3  H1  UNL     1      -5.144  13.011  69.635  1.00  0.00     0.000 HD 
HETATM    4  H   UNL     1      -4.142  13.632  67.036  1.00  0.00     0.000 HD 
HETATM    5  C   UNL     1      -7.825  13.777  66.618  1.00  0.00     0.782 C  
HETATM    6  H2  UNL     1      -6.688  13.816  69.844  1.00  0.00     0.000 HD 
HETATM    7  N   UNL     1      -6.989  14.577  67.469  1.00  0.00    -0.184 NA 
HETATM    8  O   UNL     1      -8.871  14.579  66.121  1.00  0.00    -0.480 OA 
HETATM    9  N   UNL     1      -5.133  13.388  67.050  1.00  0.00     0.008 NA 
HETATM   10  N   UNL     1      -5.918  13.541  69.234  1.00  0.00    -0.086 NA 
HETATM   11  H   UNL     1      -7.152  15.568  67.653  1.00  0.00     0.000 HD 
HETATM   12  C   UNL     1      -5.965  13.876  68.001  1.00  0.00    -0.139 C  
HETATM   13  H   UNL     1      -9.405  14.918  66.830  1.00  0.00     0.000 HD 
ENDROOT
BRANCH   1  14
HETATM   14  C   UNL     1      -5.993  11.059  66.604  1.00  0.00    -0.114 C  
HETATM   15  N   UNL     1      -7.532   9.062  62.486  1.00  0.00    -0.102 N  
HETATM   16  O   UNL     1      -5.315  10.402  63.670  1.00  0.00    -0.126 OA 
HETATM   17  C   UNL     1      -6.068   9.730  64.363  1.00  0.00    -0.104 C  
HETATM   18  C   UNL     1      -6.643   7.383  64.021  1.00  0.00    -0.048 C  
HETATM   19  N   UNL     1     -11.484  12.267  65.445  1.00  0.00    -0.345 N  
HETATM   20  H   UNL     1      -7.122   9.329  66.038  1.00  0.00     0.000 HD 
HETATM   21  N   UNL     1      -6.435   9.980  65.655  1.00  0.00    -0.091 N  
HETATM   22  H   UNL     1      -7.028   9.445  61.686  1.00  0.00     0.000 HD 
HETATM   23  C   UNL     1      -6.835   8.652  63.640  1.00  0.00    -0.088 C  
HETATM   24  C   UNL     1      -8.930   8.937  62.452  1.00  0.00    -0.022 C  
HETATM   25  O   UNL     1      -7.306  10.066  68.401  1.00  0.00    -0.076 OA 
HETATM   26  O   UNL     1      -9.516   7.856  62.456  1.00  0.00     1.351 OA 
HETATM   27  N   UNL     1      -8.097  12.042  67.582  1.00  0.00    -0.144 N  
HETATM   28  CA  UNL     1      -9.684  10.304  62.568  1.00  0.00    -0.053 C  
HETATM   29  N   UNL     1     -11.147  10.237  62.783  1.00  0.00     0.895 N  
HETATM   30  C   UNL     1      -9.373  12.022  68.303  1.00  0.00    -0.197 C  
HETATM   31  CA  UNL     1     -10.407  12.941  67.592  1.00  0.00    -0.218 C  
HETATM   32  H   UNL     1      -7.899  12.841  66.980  1.00  0.00     0.000 HD 
HETATM   33  H   UNL     1     -11.671   9.367  62.690  1.00  0.00     0.000 HD 
HETATM   34  O   UNL     1     -12.310  11.439  67.393  1.00  0.00    -0.017 OA 
HETATM   35  C   UNL     1     -11.765  11.449  63.124  1.00  0.00     0.295 C  
HETATM   36  C   UNL     1     -11.459  12.117  66.818  1.00  0.00    -0.356 C  
HETATM   37  H   UNL     1     -10.836  12.933  65.023  1.00  0.00     0.000 HD 
HETATM   38  C   UNL     1      -7.148  11.043  67.667  1.00  0.00    -0.088 C  
HETATM   39  O   UNL     1     -11.532  12.472  62.476  1.00  0.00     0.710 OA 
HETATM   40  CA  UNL     1     -12.402  11.515  64.541  1.00  0.00     0.439 C  
BRANCH  18  41
HETATM   41  N   UNL     1      -7.068   6.305  63.285  1.00  0.00    -0.049 N  
HETATM   42  H   UNL     1      -6.606   6.109  62.397  1.00  0.00     0.000 HD 
BRANCH  41  43
HETATM   43  C   UNL     1      -8.079   5.483  63.688  1.00  0.00    -0.121 C  
HETATM   44  H2  UNL     1      -7.587   4.155  62.138  1.00  0.00     0.000 HD 
HETATM   45  N   UNL     1      -8.195   4.362  62.930  1.00  0.00    -0.083 N  
HETATM   46  H1  UNL     1      -8.951   3.748  63.232  1.00  0.00     0.000 HD 
HETATM   47  O   UNL     1      -8.827   5.680  64.638  1.00  0.00    -0.048 OA 
ENDBRANCH  41  43
ENDBRANCH  18  41
BRANCH  28  48
HETATM   48  C   UNL     1      -9.088  11.004  63.805  1.00  0.00    -0.128 C  
HETATM   49  O   UNL     1      -9.184  12.431  63.692  1.00  0.00    -0.419 OA 
HETATM   50  H   UNL     1      -8.817  12.863  64.455  1.00  0.00     0.000 HD 
ENDBRANCH  28  48
BRANCH  40  51
HETATM   51  CB  UNL     1     -13.761  12.218  64.457  1.00  0.00     1.983 C  
HETATM   52  O   UNL     1     -13.899  13.286  65.396  1.00  0.00     0.240 OA 
HETATM   53  H   UNL     1     -14.742  13.722  65.343  1.00  0.00     0.000 HD 
ENDBRANCH  40  51
BRANCH  31  54
HETATM   54  N   UNL     1     -11.091  13.836  68.533  1.00  0.00    -0.255 N  
HETATM   55  H   UNL     1     -11.321  14.787  68.242  1.00  0.00     0.000 HD 
HETATM   56  O   UNL     1     -11.200  12.272  70.187  1.00  0.00     0.067 OA 
HETATM   57  C   UNL     1     -11.431  13.417  69.803  1.00  0.00    -0.166 C  
BRANCH  57  58
HETATM   58  C   UNL     1     -12.118  14.483  70.650  1.00  0.00    -0.392 C  
BRANCH  58  59
HETATM   59  C   UNL     1     -11.755  14.429  72.149  1.00  0.00     0.368 C  
HETATM   60  H1  UNL     1     -11.476  15.750  73.706  1.00  0.00     0.000 HD 
HETATM   61  N   UNL     1     -11.716  15.786  72.715  1.00  0.00    -0.445 NA 
HETATM   62  H2  UNL     1     -12.588  16.291  72.553  1.00  0.00     0.000 HD 
BRANCH  59  63
HETATM   63  C   UNL     1     -12.764  13.613  72.990  1.00  0.00     0.263 C  
BRANCH  63  64
HETATM   64  C   UNL     1     -12.843  12.136  72.591  1.00  0.00     1.265 C  
BRANCH  64  65
HETATM   65  C   UNL     1     -13.781  11.914  71.403  1.00  0.00     0.851 C  
HETATM   66  N   UNL     1     -14.070  10.490  71.270  1.00  0.00     0.814 NA 
HETATM   67  H2  UNL     1     -14.440  10.090  72.132  1.00  0.00     0.000 HD 
HETATM   68  H1  UNL     1     -14.695  10.342  70.478  1.00  0.00     0.000 HD 
ENDBRANCH  64  65
ENDBRANCH  63  64
ENDBRANCH  59  63
ENDBRANCH  58  59
ENDBRANCH  57  58
ENDBRANCH  31  54
ENDBRANCH   1  14
TORSDOF 11
ENDMDL
MODEL       94
REMARK 921   NORMALIZED FREE ENERGY PREDICTED BY IDOCK:   15.13 KCAL/MOL
REMARK 922        TOTAL FREE ENERGY PREDICTED BY IDOCK:   22.91 KCAL/MOL
REMARK 923 INTER-LIGAND FREE ENERGY PREDICTED BY IDOCK:    8.67 KCAL/MOL
REMARK 924 INTRA-LIGAND FREE ENERGY PREDICTED BY IDOCK:   14.24 KCAL/MOL
REMARK 927      BINDING AFFINITY PREDICTED BY RF-SCORE:    0.00 PKD
ROOT
HETATM    1  C   UNL     1      -9.000  13.586  70.061  1.00  0.00     2.843 C  
HETATM    2  C   UNL     1      -9.979  14.798  70.090  1.00  0.00     0.363 C  
HETATM    3  H1  UNL     1     -10.357  10.595  68.405  1.00  0.00     0.000 HD 
HETATM    4  H   UNL     1      -9.610  11.681  70.936  1.00  0.00     0.000 HD 
HETATM    5  C   UNL     1     -11.175  14.547  69.175  1.00  0.00    -0.269 C  
HETATM    6  H2  UNL     1     -11.765  11.461  67.821  1.00  0.00     0.000 HD 
HETATM    7  N   UNL     1     -11.768  13.290  69.542  1.00  0.00    -0.311 NA 
HETATM    8  O   UNL     1     -12.139  15.564  69.315  1.00  0.00    -0.483 OA 
HETATM    9  N   UNL     1      -9.833  12.387  70.233  1.00  0.00     3.361 NA 
HETATM   10  N   UNL     1     -11.006  11.376  68.496  1.00  0.00    -0.204 NA 
HETATM   11  H   UNL     1     -12.733  13.191  69.859  1.00  0.00     0.000 HD 
HETATM   12  C   UNL     1     -10.910  12.256  69.421  1.00  0.00     0.047 C  
HETATM   13  H   UNL     1     -12.883  15.408  68.746  1.00  0.00     0.000 HD 
ENDROOT
BRANCH   1  14
HETATM   14  C   UNL     1      -8.093  13.501  68.787  1.00  0.00     0.024 C  
HETATM   15  N   UNL     1     -11.479  11.927  65.725  1.00  0.00    -0.308 N  
HETATM   16  O   UNL     1     -10.841  14.058  67.505  1.00  0.00    -0.265 OA 
HETATM   17  C   UNL     1      -9.947  13.428  66.955  1.00  0.00    -0.252 C  
HETATM   18  C   UNL     1      -9.679  13.090  64.553  1.00  0.00     0.174 C  
HETATM   19  N   UNL     1      -9.014   7.849  69.179  1.00  0.00    -0.145 N  
HETATM   20  H   UNL     1      -8.138  12.533  66.877  1.00  0.00     0.000 HD 
HETATM   21  N   UNL     1      -8.722  13.119  67.475  1.00  0.00    -0.189 N  
HETATM   22  H   UNL     1     -12.388  12.335  65.947  1.00  0.00     0.000 HD 
HETATM   23  C   UNL     1     -10.327  12.738  65.669  1.00  0.00    -0.279 C  
HETATM   24  C   UNL     1     -11.359  10.552  65.469  1.00  0.00     0.981 C  
HETATM   25  O   UNL     1      -6.006  12.423  68.143  1.00  0.00    -0.053 OA 
HETATM   26  O   UNL     1     -11.051  10.088  64.374  1.00  0.00     1.772 OA 
HETATM   27  N   UNL     1      -7.191  11.371  69.782  1.00  0.00    -0.353 N  
HETATM   28  CA  UNL     1     -11.500   9.663  66.750  1.00  0.00     1.617 C  
HETATM   29  N   UNL     1     -11.147   8.233  66.606  1.00  0.00     0.121 N  
HETATM   30  C   UNL     1      -6.376  10.153  69.823  1.00  0.00    -0.064 C  
HETATM   31  CA  UNL     1      -7.187   8.983  70.446  1.00  0.00    -0.069 C  
HETATM   32  H   UNL     1      -7.978  11.442  70.428  1.00  0.00     0.000 HD 
HETATM   33  H   UNL     1     -10.988   7.801  65.696  1.00  0.00     0.000 HD 
HETATM   34  O   UNL     1      -6.861   7.244  68.775  1.00  0.00    -0.067 OA 
HETATM   35  C   UNL     1     -11.046   7.510  67.804  1.00  0.00     0.158 C  
HETATM   36  C   UNL     1      -7.651   7.978  69.368  1.00  0.00    -0.102 C  
HETATM   37  H   UNL     1      -9.635   8.393  69.779  1.00  0.00     0.000 HD 
HETATM   38  C   UNL     1      -6.959  12.426  68.924  1.00  0.00    -0.091 C  
HETATM   39  O   UNL     1     -11.933   7.589  68.657  1.00  0.00     1.442 OA 
HETATM   40  CA  UNL     1      -9.632   6.962  68.152  1.00  0.00    -0.124 C  
BRANCH  18  41
HETATM   41  N   UNL     1     -10.102  12.738  63.295  1.00  0.00    -0.112 N  
HETATM   42  H   UNL     1      -9.408  12.416  62.620  1.00  0.00     0.000 HD 
BRANCH  41  43
HETATM   43  C   UNL     1     -11.407  12.799  62.906  1.00  0.00     0.780 C  
HETATM   44  H2  UNL     1     -11.428  10.708  62.723  1.00  0.00     0.000 HD 
HETATM   45  N   UNL     1     -11.947  11.583  62.640  1.00  0.00    -0.255 N  
HETATM   46  H1  UNL     1     -12.924  11.628  62.349  1.00  0.00     0.000 HD 
HETATM   47  O   UNL     1     -12.078  13.820  62.803  1.00  0.00    -0.006 OA 
ENDBRANCH  41  43
ENDBRANCH  18  41
BRANCH  28  48
HETATM   48  C   UNL     1     -10.518  10.258  67.779  1.00  0.00    -0.226 C  
HETATM   49  O   UNL     1      -9.156  10.072  67.365  1.00  0.00    -0.134 OA 
HETATM   50  H   UNL     1      -8.550  10.439  67.999  1.00  0.00     0.000 HD 
ENDBRANCH  28  48
BRANCH  40  51
HETATM   51  CB  UNL     1      -9.758   5.532  68.688  1.00  0.00    -0.142 C  
HETATM   52  O   UNL     1     -10.974   5.307  69.404  1.00  0.00    -0.082 OA 
HETATM   53  H   UNL     1     -11.052   4.420  69.736  1.00  0.00     0.000 HD 
ENDBRANCH  40  51
BRANCH  31  54
HETATM   54  N   UNL     1      -6.425   8.267  71.476  1.00  0.00    -0.044 N  
HETATM   55  H   UNL     1      -5.712   7.595  71.193  1.00  0.00     0.000 HD 
HETATM   56  O   UNL     1      -7.482   9.308  73.207  1.00  0.00     0.107 OA 
HETATM   57  C   UNL     1      -6.654   8.486  72.819  1.00  0.00    -0.064 C  
BRANCH  57  58
HETATM   58  C   UNL     1      -5.785   7.642  73.747  1.00  0.00    -0.052 C  
BRANCH  58  59
HETATM   59  C   UNL     1      -5.935   6.120  73.540  1.00  0.00    -0.061 C  
HETATM   60  H1  UNL     1      -5.249   4.382  74.409  1.00  0.00     0.000 HD 
HETATM   61  N   UNL     1      -5.150   5.388  74.546  1.00  0.00    -0.022 NA 
HETATM   62  H2  UNL     1      -5.393   5.669  75.496  1.00  0.00     0.000 HD 
BRANCH  59  63
HETATM   63  C   UNL     1      -7.398   5.631  73.660  1.00  0.00    -0.087 C  
BRANCH  63  64
HETATM   64  C   UNL     1      -7.694   4.373  72.836  1.00  0.00    -0.086 C  
BRANCH  64  65
HETATM   65  C   UNL     1      -7.728   4.667  71.336  1.00  0.00    -0.086 C  
HETATM   66  N   UNL     1      -6.497   4.185  70.717  1.00  0.00    -0.029 NA 
HETATM   67  H2  UNL     1      -6.328   3.198  70.913  1.00  0.00     0.000 HD 
HETATM   68  H1  UNL     1      -6.520   4.381  69.717  1.00  0.00     0.000 HD 
ENDBRANCH  64  65
ENDBRANCH  63  64
ENDBRANCH  59  63
ENDBRANCH  58  59
ENDBRANCH  57  58
ENDBRANCH  31  54
ENDBRANCH   1  14
TORSDOF 11
ENDMDL
MODEL       95
REMARK 921   NORMALIZED FREE ENERGY PREDICTED BY IDOCK:   18.20 KCAL/MOL
REMARK 922        TOTAL FREE ENERGY PREDICTED BY IDOCK:   27.95 KCAL/MOL
REMARK 923 INTER-LIGAND FREE ENERGY PREDICTED BY IDOCK:   22.92 KCAL/MOL
REMARK 924 INTRA-LIGAND FREE ENERGY PREDICTED BY IDOCK:    5.03 KCAL/MOL
REMARK 927      BINDING AFFINITY PREDICTED BY RF-SCORE:    0.00 PKD
ROOT
HETATM    1  C   UNL     1      -8.942  13.428  63.847  1.00  0.00     4.661 C  
HETATM    2  C   UNL     1      -7.823  12.947  64.818  1.00  0.00     6.315 C  
HETATM    3  H1  UNL     1     -11.506  10.891  63.129  1.00  0.00     0.000 HD 
HETATM    4  H   UNL     1      -9.316  12.330  61.997  1.00  0.00     0.000 HD 
HETATM    5  C   UNL     1      -8.205  11.618  65.465  1.00  0.00     0.559 C  
HETATM    6  H2  UNL     1     -10.883   9.802  64.354  1.00  0.00     0.000 HD 
HETATM    7  N   UNL     1      -8.533  10.686  64.421  1.00  0.00    -0.323 NA 
HETATM    8  O   UNL     1      -7.136  11.099  66.220  1.00  0.00    -0.245 OA 
HETATM    9  N   UNL     1      -9.287  12.265  63.016  1.00  0.00     0.187 NA 
HETATM   10  N   UNL     1     -10.727  10.574  63.706  1.00  0.00     0.301 NA 
HETATM   11  H   UNL     1      -8.041   9.804  64.275  1.00  0.00     0.000 HD 
HETATM   12  C   UNL     1      -9.564  11.104  63.656  1.00  0.00    -0.288 C  
HETATM   13  H   UNL     1      -7.374  10.272  66.623  1.00  0.00     0.000 HD 
ENDROOT
BRANCH   1  14
HETATM   14  C   UNL     1     -10.197  14.053  64.545  1.00  0.00    -0.037 C  
HETATM   15  N   UNL     1      -7.917  17.667  66.793  1.00  0.00    -0.225 N  
HETATM   16  O   UNL     1      -8.414  16.547  64.222  1.00  0.00     6.126 OA 
HETATM   17  C   UNL     1      -9.231  16.404  65.122  1.00  0.00     1.440 C  
HETATM   18  C   UNL     1     -10.275  18.184  66.425  1.00  0.00    -0.399 C  
HETATM   19  N   UNL     1      -7.632  12.401  69.407  1.00  0.00    -0.229 N  
HETATM   20  H   UNL     1     -10.601  15.370  66.185  1.00  0.00     0.000 HD 
HETATM   21  N   UNL     1     -10.028  15.316  65.342  1.00  0.00    -0.346 N  
HETATM   22  H   UNL     1      -7.147  18.021  66.224  1.00  0.00     0.000 HD 
HETATM   23  C   UNL     1      -9.183  17.438  66.219  1.00  0.00    -0.208 C  
HETATM   24  C   UNL     1      -7.727  17.401  68.158  1.00  0.00    -0.221 C  
HETATM   25  O   UNL     1     -11.974  13.306  66.036  1.00  0.00    -0.380 OA 
HETATM   26  O   UNL     1      -8.280  18.033  69.057  1.00  0.00    -0.177 OA 
HETATM   27  N   UNL     1     -10.013  12.153  66.189  1.00  0.00    -0.228 N  
HETATM   28  CA  UNL     1      -6.868  16.122  68.434  1.00  0.00    -0.128 C  
HETATM   29  N   UNL     1      -6.828  15.640  69.833  1.00  0.00    -0.127 N  
HETATM   30  C   UNL     1     -10.371  11.372  67.377  1.00  0.00    -0.202 C  
HETATM   31  CA  UNL     1      -9.088  10.860  68.091  1.00  0.00    -0.155 C  
HETATM   32  H   UNL     1      -9.097  11.994  65.770  1.00  0.00     0.000 HD 
HETATM   33  H   UNL     1      -7.188  16.195  70.610  1.00  0.00     0.000 HD 
HETATM   34  O   UNL     1      -9.511  11.571  70.379  1.00  0.00     2.483 OA 
HETATM   35  C   UNL     1      -6.261  14.371  70.021  1.00  0.00    -0.158 C  
HETATM   36  C   UNL     1      -8.799  11.662  69.380  1.00  0.00     0.762 C  
HETATM   37  H   UNL     1      -7.013  12.351  68.597  1.00  0.00     0.000 HD 
HETATM   38  C   UNL     1     -10.841  13.090  65.604  1.00  0.00    -0.273 C  
HETATM   39  O   UNL     1      -5.180  14.087  69.500  1.00  0.00    -0.083 OA 
HETATM   40  CA  UNL     1      -7.221  13.267  70.550  1.00  0.00     2.098 C  
BRANCH  18  41
HETATM   41  N   UNL     1     -10.275  19.318  67.199  1.00  0.00    -0.373 N  
HETATM   42  H   UNL     1     -10.669  19.267  68.138  1.00  0.00     0.000 HD 
BRANCH  41  43
HETATM   43  C   UNL     1      -9.773  20.511  66.769  1.00  0.00    -0.325 C  
HETATM   44  H2  UNL     1     -11.471  20.765  65.561  1.00  0.00     0.000 HD 
HETATM   45  N   UNL     1     -10.578  21.144  65.878  1.00  0.00     1.540 N  
HETATM   46  H1  UNL     1     -10.202  22.036  65.556  1.00  0.00     0.000 HD 
HETATM   47  O   UNL     1      -8.714  21.014  67.127  1.00  0.00    -0.147 OA 
ENDBRANCH  41  43
ENDBRANCH  18  41
BRANCH  28  48
HETATM   48  C   UNL     1      -7.517  14.999  67.601  1.00  0.00    -0.181 C  
HETATM   49  O   UNL     1      -8.871  14.761  68.012  1.00  0.00    -0.161 OA 
HETATM   50  H   UNL     1      -9.271  14.069  67.498  1.00  0.00     0.000 HD 
ENDBRANCH  28  48
BRANCH  40  51
HETATM   51  CB  UNL     1      -6.502  12.435  71.618  1.00  0.00     3.240 C  
HETATM   52  O   UNL     1      -6.034  13.219  72.717  1.00  0.00     0.038 OA 
HETATM   53  H   UNL     1      -5.588  12.702  73.379  1.00  0.00     0.000 HD 
ENDBRANCH  40  51
BRANCH  31  54
HETATM   54  N   UNL     1      -9.169   9.432  68.420  1.00  0.00    -0.128 N  
HETATM   55  H   UNL     1      -8.313   8.880  68.463  1.00  0.00     0.000 HD 
HETATM   56  O   UNL     1     -11.436   9.455  68.660  1.00  0.00     0.204 OA 
HETATM   57  C   UNL     1     -10.381   8.823  68.672  1.00  0.00    -0.205 C  
BRANCH  57  58
HETATM   58  C   UNL     1     -10.279   7.332  68.977  1.00  0.00    -0.197 C  
BRANCH  58  59
HETATM   59  C   UNL     1      -9.371   6.994  70.178  1.00  0.00    -0.162 C  
HETATM   60  H1  UNL     1      -8.535   7.971  71.789  1.00  0.00     0.000 HD 
HETATM   61  N   UNL     1      -9.136   8.194  70.995  1.00  0.00    -0.147 NA 
HETATM   62  H2  UNL     1     -10.010   8.630  71.290  1.00  0.00     0.000 HD 
BRANCH  59  63
HETATM   63  C   UNL     1      -9.973   5.917  71.112  1.00  0.00    -0.236 C  
BRANCH  63  64
HETATM   64  C   UNL     1      -9.419   5.964  72.540  1.00  0.00    -0.155 C  
BRANCH  64  65
HETATM   65  C   UNL     1      -7.983   5.441  72.613  1.00  0.00    -0.103 C  
HETATM   66  N   UNL     1      -7.649   4.761  71.366  1.00  0.00    -0.076 NA 
HETATM   67  H2  UNL     1      -7.802   5.353  70.550  1.00  0.00     0.000 HD 
HETATM   68  H1  UNL     1      -6.692   4.412  71.414  1.00  0.00     0.000 HD 
ENDBRANCH  64  65
ENDBRANCH  63  64
ENDBRANCH  59  63
ENDBRANCH  58  59
ENDBRANCH  57  58
ENDBRANCH  31  54
ENDBRANCH   1  14
TORSDOF 11
ENDMDL
MODEL       96
REMARK 921   NORMALIZED FREE ENERGY PREDICTED BY IDOCK:   18.67 KCAL/MOL
REMARK 922        TOTAL FREE ENERGY PREDICTED BY IDOCK:   28.72 KCAL/MOL
REMARK 923 INTER-LIGAND FREE ENERGY PREDICTED BY IDOCK:   22.01 KCAL/MOL
REMARK 924 INTRA-LIGAND FREE ENERGY PREDICTED BY IDOCK:    6.70 KCAL/MOL
REMARK 927      BINDING AFFINITY PREDICTED BY RF-SCORE:    0.00 PKD
ROOT
HETATM    1  C   UNL     1      -6.761  13.267  71.412  1.00  0.00     2.641 C  
HETATM    2  C   UNL     1      -8.210  12.744  71.183  1.00  0.00    10.108 C  
HETATM    3  H1  UNL     1      -4.183  11.429  69.541  1.00  0.00     0.000 HD 
HETATM    4  H   UNL     1      -5.223  11.907  72.155  1.00  0.00     0.000 HD 
HETATM    5  C   UNL     1      -8.250  11.762  70.015  1.00  0.00     2.394 C  
HETATM    6  H2  UNL     1      -5.377  10.534  68.621  1.00  0.00     0.000 HD 
HETATM    7  N   UNL     1      -7.274  10.735  70.255  1.00  0.00    -0.464 NA 
HETATM    8  O   UNL     1      -9.521  11.165  69.901  1.00  0.00     0.046 OA 
HETATM    9  N   UNL     1      -5.894  12.080  71.405  1.00  0.00    -0.176 NA 
HETATM   10  N   UNL     1      -5.129  11.059  69.459  1.00  0.00    -0.041 NA 
HETATM   11  H   UNL     1      -7.504   9.744  70.335  1.00  0.00     0.000 HD 
HETATM   12  C   UNL     1      -6.021  11.224  70.362  1.00  0.00    -0.140 C  
HETATM   13  H   UNL     1      -9.546  10.554  69.173  1.00  0.00     0.000 HD 
ENDROOT
BRANCH   1  14
HETATM   14  C   UNL     1      -6.285  14.357  70.392  1.00  0.00    -0.173 C  
HETATM   15  N   UNL     1     -10.450  16.782  70.093  1.00  0.00     0.037 N  
HETATM   16  O   UNL     1      -8.455  15.914  71.932  1.00  0.00     6.258 OA 
HETATM   17  C   UNL     1      -8.161  16.129  70.763  1.00  0.00     3.316 C  
HETATM   18  C   UNL     1      -8.542  18.200  69.530  1.00  0.00     0.701 C  
HETATM   19  N   UNL     1     -10.059  11.894  66.837  1.00  0.00    -0.206 N  
HETATM   20  H   UNL     1      -7.182  15.753  69.038  1.00  0.00     0.000 HD 
HETATM   21  N   UNL     1      -7.236  15.458  70.013  1.00  0.00    -0.052 N  
HETATM   22  H   UNL     1     -10.933  16.786  70.991  1.00  0.00     0.000 HD 
HETATM   23  C   UNL     1      -9.073  17.074  70.022  1.00  0.00     1.648 C  
HETATM   24  C   UNL     1     -11.147  16.486  68.911  1.00  0.00    -0.300 C  
HETATM   25  O   UNL     1      -5.275  14.416  68.176  1.00  0.00    -0.108 OA 
HETATM   26  O   UNL     1     -11.338  17.302  68.012  1.00  0.00    -0.067 OA 
HETATM   27  N   UNL     1      -6.537  12.573  68.632  1.00  0.00    -0.077 N  
HETATM   28  CA  UNL     1     -11.526  14.973  68.770  1.00  0.00    -0.319 C  
HETATM   29  N   UNL     1     -12.043  14.541  67.452  1.00  0.00    -0.579 N  
HETATM   30  C   UNL     1      -6.527  12.023  67.273  1.00  0.00    -0.149 C  
HETATM   31  CA  UNL     1      -7.723  11.049  67.078  1.00  0.00    -0.134 C  
HETATM   32  H   UNL     1      -7.031  12.051  69.356  1.00  0.00     0.000 HD 
HETATM   33  H   UNL     1     -12.306  15.206  66.726  1.00  0.00     0.000 HD 
HETATM   34  O   UNL     1      -8.695  11.909  65.019  1.00  0.00     0.419 OA 
HETATM   35  C   UNL     1     -12.148  13.154  67.268  1.00  0.00    -0.274 C  
HETATM   36  C   UNL     1      -8.839  11.688  66.222  1.00  0.00    -0.164 C  
HETATM   37  H   UNL     1     -10.167  11.585  67.804  1.00  0.00     0.000 HD 
HETATM   38  C   UNL     1      -5.919  13.753  68.991  1.00  0.00    -0.083 C  
HETATM   39  O   UNL     1     -12.684  12.449  68.127  1.00  0.00     0.531 OA 
HETATM   40  CA  UNL     1     -11.228  12.540  66.174  1.00  0.00    -0.321 C  
BRANCH  18  41
HETATM   41  N   UNL     1      -9.299  19.251  69.075  1.00  0.00    -0.343 N  
HETATM   42  H   UNL     1     -10.047  19.607  69.671  1.00  0.00     0.000 HD 
BRANCH  41  43
HETATM   43  C   UNL     1      -9.096  19.843  67.864  1.00  0.00    -0.313 C  
HETATM   44  H2  UNL     1     -11.154  20.237  67.736  1.00  0.00     0.000 HD 
HETATM   45  N   UNL     1     -10.236  20.316  67.298  1.00  0.00    -0.398 N  
HETATM   46  H1  UNL     1     -10.085  20.758  66.392  1.00  0.00     0.000 HD 
HETATM   47  O   UNL     1      -8.015  19.974  67.302  1.00  0.00    -0.288 OA 
ENDBRANCH  41  43
ENDBRANCH  18  41
BRANCH  28  48
HETATM   48  C   UNL     1     -10.218  14.193  69.008  1.00  0.00    -0.121 C  
HETATM   49  O   UNL     1      -9.121  14.788  68.300  1.00  0.00    -0.171 OA 
HETATM   50  H   UNL     1      -8.315  14.308  68.446  1.00  0.00     0.000 HD 
ENDBRANCH  28  48
BRANCH  40  51
HETATM   51  CB  UNL     1     -12.020  11.507  65.364  1.00  0.00     0.562 C  
HETATM   52  O   UNL     1     -11.377  11.141  64.142  1.00  0.00    -0.331 OA 
HETATM   53  H   UNL     1     -11.868  10.500  63.641  1.00  0.00     0.000 HD 
ENDBRANCH  40  51
BRANCH  31  54
HETATM   54  N   UNL     1      -7.311   9.781  66.465  1.00  0.00    -0.094 N  
HETATM   55  H   UNL     1      -6.388   9.710  66.036  1.00  0.00     0.000 HD 
HETATM   56  O   UNL     1      -9.256   8.714  66.988  1.00  0.00    -0.141 OA 
HETATM   57  C   UNL     1      -8.147   8.683  66.458  1.00  0.00    -0.103 C  
BRANCH  57  58
HETATM   58  C   UNL     1      -7.564   7.458  65.761  1.00  0.00    -0.090 C  
BRANCH  58  59
HETATM   59  C   UNL     1      -7.061   6.363  66.725  1.00  0.00    -0.073 C  
HETATM   60  H1  UNL     1      -6.912   6.064  68.759  1.00  0.00     0.000 HD 
HETATM   61  N   UNL     1      -7.245   6.788  68.121  1.00  0.00    -0.089 NA 
HETATM   62  H2  UNL     1      -8.211   7.052  68.315  1.00  0.00     0.000 HD 
BRANCH  59  63
HETATM   63  C   UNL     1      -7.806   5.017  66.558  1.00  0.00    -0.100 C  
BRANCH  63  64
HETATM   64  C   UNL     1      -7.708   4.104  67.785  1.00  0.00    -0.072 C  
BRANCH  64  65
HETATM   65  C   UNL     1      -7.282   2.684  67.408  1.00  0.00    -0.053 C  
HETATM   66  N   UNL     1      -7.314   1.836  68.594  1.00  0.00    -0.043 NA 
HETATM   67  H2  UNL     1      -8.222   1.855  69.058  1.00  0.00     0.000 HD 
HETATM   68  H1  UNL     1      -7.030   0.889  68.343  1.00  0.00     0.000 HD 
ENDBRANCH  64  65
ENDBRANCH  63  64
ENDBRANCH  59  63
ENDBRANCH  58  59
ENDBRANCH  57  58
ENDBRANCH  31  54
ENDBRANCH   1  14
TORSDOF 11
ENDMDL
MODEL       97
REMARK 921   NORMALIZED FREE ENERGY PREDICTED BY IDOCK:   20.48 KCAL/MOL
REMARK 922        TOTAL FREE ENERGY PREDICTED BY IDOCK:   31.69 KCAL/MOL
REMARK 923 INTER-LIGAND FREE ENERGY PREDICTED BY IDOCK:   27.75 KCAL/MOL
REMARK 924 INTRA-LIGAND FREE ENERGY PREDICTED BY IDOCK:    3.93 KCAL/MOL
REMARK 927      BINDING AFFINITY PREDICTED BY RF-SCORE:    0.00 PKD
ROOT
HETATM    1  C   UNL     1      -5.794  12.512  65.922  1.00  0.00     3.300 C  
HETATM    2  C   UNL     1      -6.903  13.338  65.206  1.00  0.00     9.505 C  
HETATM    3  H1  UNL     1      -5.290  13.408  69.453  1.00  0.00     0.000 HD 
HETATM    4  H   UNL     1      -4.111  13.540  66.858  1.00  0.00     0.000 HD 
HETATM    5  C   UNL     1      -7.716  14.140  66.219  1.00  0.00     2.088 C  
HETATM    6  H2  UNL     1      -6.708  14.440  69.475  1.00  0.00     0.000 HD 
HETATM    7  N   UNL     1      -6.806  14.921  67.011  1.00  0.00    -0.311 NA 
HETATM    8  O   UNL     1      -8.615  15.009  65.570  1.00  0.00     0.437 OA 
HETATM    9  N   UNL     1      -5.127  13.441  66.846  1.00  0.00     0.269 NA 
HETATM   10  N   UNL     1      -5.963  13.984  68.948  1.00  0.00    -0.081 NA 
HETATM   11  H   UNL     1      -6.830  15.940  67.062  1.00  0.00     0.000 HD 
HETATM   12  C   UNL     1      -5.915  14.159  67.681  1.00  0.00    -0.027 C  
HETATM   13  H   UNL     1      -9.121  15.508  66.201  1.00  0.00     0.000 HD 
ENDROOT
BRANCH   1  14
HETATM   14  C   UNL     1      -6.299  11.216  66.643  1.00  0.00    -0.134 C  
HETATM   15  N   UNL     1      -8.254   9.082  62.779  1.00  0.00    -0.173 N  
HETATM   16  O   UNL     1      -5.813  10.140  63.795  1.00  0.00    -0.120 OA 
HETATM   17  C   UNL     1      -6.652   9.686  64.563  1.00  0.00    -0.102 C  
HETATM   18  C   UNL     1      -7.626   7.450  64.484  1.00  0.00    -0.110 C  
HETATM   19  N   UNL     1     -11.530  13.217  65.388  1.00  0.00    -0.300 N  
HETATM   20  H   UNL     1      -7.718   9.655  66.277  1.00  0.00     0.000 HD 
HETATM   21  N   UNL     1      -6.941  10.133  65.821  1.00  0.00    -0.116 N  
HETATM   22  H   UNL     1      -7.712   9.284  61.938  1.00  0.00     0.000 HD 
HETATM   23  C   UNL     1      -7.609   8.684  63.967  1.00  0.00    -0.126 C  
HETATM   24  C   UNL     1      -9.653   9.195  62.766  1.00  0.00     1.244 C  
HETATM   25  O   UNL     1      -7.716  10.663  68.546  1.00  0.00    -0.096 OA 
HETATM   26  O   UNL     1     -10.414   8.239  62.893  1.00  0.00     6.434 OA 
HETATM   27  N   UNL     1      -8.180  12.645  67.518  1.00  0.00    -0.166 N  
HETATM   28  CA  UNL     1     -10.161  10.676  62.735  1.00  0.00     0.070 C  
HETATM   29  N   UNL     1     -11.608  10.885  62.964  1.00  0.00    -0.072 N  
HETATM   30  C   UNL     1      -9.423  12.923  68.244  1.00  0.00    -0.206 C  
HETATM   31  CA  UNL     1     -10.302  13.924  67.442  1.00  0.00    -0.252 C  
HETATM   32  H   UNL     1      -7.863  13.329  66.831  1.00  0.00     0.000 HD 
HETATM   33  H   UNL     1     -12.275  10.113  62.970  1.00  0.00     0.000 HD 
HETATM   34  O   UNL     1     -12.438  12.758  67.420  1.00  0.00    -0.168 OA 
HETATM   35  C   UNL     1     -12.003  12.215  63.173  1.00  0.00    -0.236 C  
HETATM   36  C   UNL     1     -11.498  13.214  66.769  1.00  0.00    -0.343 C  
HETATM   37  H   UNL     1     -10.788  13.712  64.892  1.00  0.00     0.000 HD 
HETATM   38  C   UNL     1      -7.413  11.513  67.708  1.00  0.00    -0.101 C  
HETATM   39  O   UNL     1     -11.615  13.107  62.415  1.00  0.00     1.492 OA 
HETATM   40  CA  UNL     1     -12.585  12.541  64.578  1.00  0.00    -0.421 C  
BRANCH  18  41
HETATM   41  N   UNL     1      -8.246   6.388  63.874  1.00  0.00    -0.306 N  
HETATM   42  H   UNL     1      -8.101   6.247  62.874  1.00  0.00     0.000 HD 
BRANCH  41  43
HETATM   43  C   UNL     1      -9.048   5.511  64.544  1.00  0.00     0.285 C  
HETATM   44  H2  UNL     1      -8.666   4.069  63.067  1.00  0.00     0.000 HD 
HETATM   45  N   UNL     1      -9.145   4.300  63.938  1.00  0.00    -0.141 N  
HETATM   46  H1  UNL     1      -9.744   3.645  64.439  1.00  0.00     0.000 HD 
HETATM   47  O   UNL     1      -9.634   5.736  65.596  1.00  0.00    -0.009 OA 
ENDBRANCH  41  43
ENDBRANCH  18  41
BRANCH  28  48
HETATM   48  C   UNL     1      -9.425  11.392  63.884  1.00  0.00    -0.153 C  
HETATM   49  O   UNL     1      -9.820  10.869  65.161  1.00  0.00    -0.236 OA 
HETATM   50  H   UNL     1      -9.367  11.310  65.870  1.00  0.00     0.000 HD 
ENDBRANCH  28  48
BRANCH  40  51
HETATM   51  CB  UNL     1     -13.806  13.454  64.424  1.00  0.00     3.225 C  
HETATM   52  O   UNL     1     -13.474  14.758  63.946  1.00  0.00     0.895 OA 
HETATM   53  H   UNL     1     -14.232  15.324  63.850  1.00  0.00     0.000 HD 
ENDBRANCH  40  51
BRANCH  31  54
HETATM   54  N   UNL     1     -10.801  15.019  68.282  1.00  0.00    -0.252 N  
HETATM   55  H   UNL     1     -11.759  14.984  68.630  1.00  0.00     0.000 HD 
HETATM   56  O   UNL     1      -8.830  16.162  68.239  1.00  0.00    -0.181 OA 
HETATM   57  C   UNL     1      -9.999  16.092  68.611  1.00  0.00    -0.228 C  
BRANCH  57  58
HETATM   58  C   UNL     1     -10.688  17.145  69.474  1.00  0.00    -0.017 C  
BRANCH  58  59
HETATM   59  C   UNL     1     -10.236  18.592  69.185  1.00  0.00    -0.031 C  
HETATM   60  H1  UNL     1     -11.032  20.491  69.270  1.00  0.00     0.000 HD 
HETATM   61  N   UNL     1     -11.331  19.535  69.461  1.00  0.00     2.382 NA 
HETATM   62  H2  UNL     1     -11.693  19.431  70.409  1.00  0.00     0.000 HD 
BRANCH  59  63
HETATM   63  C   UNL     1      -9.028  19.035  70.044  1.00  0.00     1.248 C  
BRANCH  63  64
HETATM   64  C   UNL     1      -7.723  18.317  69.684  1.00  0.00     0.595 C  
BRANCH  64  65
HETATM   65  C   UNL     1      -6.868  19.137  68.715  1.00  0.00    -0.307 C  
HETATM   66  N   UNL     1      -6.639  18.369  67.497  1.00  0.00    -0.195 NA 
HETATM   67  H2  UNL     1      -7.511  18.054  67.070  1.00  0.00     0.000 HD 
HETATM   68  H1  UNL     1      -6.070  18.916  66.851  1.00  0.00     0.000 HD 
ENDBRANCH  64  65
ENDBRANCH  63  64
ENDBRANCH  59  63
ENDBRANCH  58  59
ENDBRANCH  57  58
ENDBRANCH  31  54
ENDBRANCH   1  14
TORSDOF 11
ENDMDL
MODEL       98
REMARK 921   NORMALIZED FREE ENERGY PREDICTED BY IDOCK:   20.98 KCAL/MOL
REMARK 922        TOTAL FREE ENERGY PREDICTED BY IDOCK:   32.51 KCAL/MOL
REMARK 923 INTER-LIGAND FREE ENERGY PREDICTED BY IDOCK:    3.03 KCAL/MOL
REMARK 924 INTRA-LIGAND FREE ENERGY PREDICTED BY IDOCK:   29.48 KCAL/MOL
REMARK 927      BINDING AFFINITY PREDICTED BY RF-SCORE:    0.00 PKD
ROOT
HETATM    1  C   UNL     1      -9.119   7.702  70.238  1.00  0.00    -0.149 C  
HETATM    2  C   UNL     1      -8.418   6.627  71.121  1.00  0.00    -0.126 C  
HETATM    3  H1  UNL     1      -7.100   8.862  67.391  1.00  0.00     0.000 HD 
HETATM    4  H   UNL     1      -8.159   9.638  69.925  1.00  0.00     0.000 HD 
HETATM    5  C   UNL     1      -7.161   6.102  70.434  1.00  0.00    -0.071 C  
HETATM    6  H2  UNL     1      -5.882   7.627  67.651  1.00  0.00     0.000 HD 
HETATM    7  N   UNL     1      -6.332   7.224  70.089  1.00  0.00    -0.030 NA 
HETATM    8  O   UNL     1      -6.437   5.248  71.289  1.00  0.00    -0.032 OA 
HETATM    9  N   UNL     1      -8.060   8.629  69.809  1.00  0.00    -0.111 NA 
HETATM   10  N   UNL     1      -6.633   8.209  68.021  1.00  0.00    -0.056 NA 
HETATM   11  H   UNL     1      -5.382   7.354  70.436  1.00  0.00     0.000 HD 
HETATM   12  C   UNL     1      -6.949   8.088  69.255  1.00  0.00    -0.056 C  
HETATM   13  H   UNL     1      -5.655   4.921  70.861  1.00  0.00     0.000 HD 
ENDROOT
BRANCH   1  14
HETATM   14  C   UNL     1      -9.936   7.133  69.029  1.00  0.00    -0.174 C  
HETATM   15  N   UNL     1      -6.415   7.380  65.735  1.00  0.00    -0.044 N  
HETATM   16  O   UNL     1      -7.083   6.253  68.264  1.00  0.00    -0.077 OA 
HETATM   17  C   UNL     1      -7.963   6.498  67.449  1.00  0.00    -0.113 C  
HETATM   18  C   UNL     1      -8.074   5.686  65.151  1.00  0.00    -0.127 C  
HETATM   19  N   UNL     1      -9.295  12.395  66.827  1.00  0.00    -0.216 N  
HETATM   20  H   UNL     1      -9.798   7.127  66.892  1.00  0.00     0.000 HD 
HETATM   21  N   UNL     1      -9.234   6.921  67.717  1.00  0.00    -0.121 N  
HETATM   22  H   UNL     1      -5.507   7.184  66.158  1.00  0.00     0.000 HD 
HETATM   23  C   UNL     1      -7.523   6.553  66.008  1.00  0.00    -0.081 C  
HETATM   24  C   UNL     1      -6.576   8.476  64.873  1.00  0.00    -0.068 C  
HETATM   25  O   UNL     1     -12.018   7.649  67.874  1.00  0.00     1.903 OA 
HETATM   26  O   UNL     1      -6.826   8.368  63.675  1.00  0.00    -0.082 OA 
HETATM   27  N   UNL     1     -11.000   9.413  68.898  1.00  0.00    -0.422 N  
HETATM   28  CA  UNL     1      -6.566   9.858  65.609  1.00  0.00    -0.093 C  
HETATM   29  N   UNL     1      -6.970  11.037  64.810  1.00  0.00    -0.100 N  
HETATM   30  C   UNL     1     -11.868  10.454  68.341  1.00  0.00     0.255 C  
HETATM   31  CA  UNL     1     -11.155  11.835  68.393  1.00  0.00    -0.237 C  
HETATM   32  H   UNL     1     -10.258   9.700  69.538  1.00  0.00     0.000 HD 
HETATM   33  H   UNL     1      -7.083  10.994  63.798  1.00  0.00     0.000 HD 
HETATM   34  O   UNL     1     -11.439  12.594  66.099  1.00  0.00    -0.324 OA 
HETATM   35  C   UNL     1      -7.188  12.216  65.538  1.00  0.00     2.671 C  
HETATM   36  C   UNL     1     -10.661  12.269  66.996  1.00  0.00    -0.223 C  
HETATM   37  H   UNL     1      -8.695  12.230  67.636  1.00  0.00     0.000 HD 
HETATM   38  C   UNL     1     -11.124   8.069  68.610  1.00  0.00     0.354 C  
HETATM   39  O   UNL     1      -6.361  12.598  66.370  1.00  0.00     0.544 OA 
HETATM   40  CA  UNL     1      -8.645  12.760  65.535  1.00  0.00     1.461 C  
BRANCH  18  41
HETATM   41  N   UNL     1      -7.579   5.457  63.891  1.00  0.00    -0.068 N  
HETATM   42  H   UNL     1      -8.212   5.541  63.096  1.00  0.00     0.000 HD 
BRANCH  41  43
HETATM   43  C   UNL     1      -6.279   5.122  63.653  1.00  0.00    -0.022 C  
HETATM   44  H2  UNL     1      -5.822   5.569  65.653  1.00  0.00     0.000 HD 
HETATM   45  N   UNL     1      -5.482   5.252  64.744  1.00  0.00    -0.013 N  
HETATM   46  H1  UNL     1      -4.509   5.001  64.567  1.00  0.00     0.000 HD 
HETATM   47  O   UNL     1      -5.824   4.724  62.586  1.00  0.00    -0.013 OA 
ENDBRANCH  41  43
ENDBRANCH  18  41
BRANCH  28  48
HETATM   48  C   UNL     1      -7.591   9.728  66.752  1.00  0.00    -0.095 C  
HETATM   49  O   UNL     1      -6.967   9.276  67.963  1.00  0.00    -0.074 OA 
HETATM   50  H   UNL     1      -7.599   9.196  68.668  1.00  0.00     0.000 HD 
ENDBRANCH  28  48
BRANCH  40  51
HETATM   51  CB  UNL     1      -8.620  14.282  65.362  1.00  0.00     2.694 C  
HETATM   52  O   UNL     1      -9.280  14.978  66.421  1.00  0.00    -0.271 OA 
HETATM   53  H   UNL     1      -9.264  15.922  66.313  1.00  0.00     0.000 HD 
ENDBRANCH  40  51
BRANCH  31  54
HETATM   54  N   UNL     1     -12.019  12.884  68.947  1.00  0.00    -0.289 N  
HETATM   55  H   UNL     1     -12.897  12.623  69.397  1.00  0.00     0.000 HD 
HETATM   56  O   UNL     1     -10.608  14.575  68.363  1.00  0.00    -0.233 OA 
HETATM   57  C   UNL     1     -11.668  14.216  68.870  1.00  0.00    -0.334 C  
BRANCH  57  58
HETATM   58  C   UNL     1     -12.692  15.169  69.479  1.00  0.00     0.095 C  
BRANCH  58  59
HETATM   59  C   UNL     1     -12.524  15.390  70.997  1.00  0.00    -0.411 C  
HETATM   60  H1  UNL     1     -11.555  16.704  72.255  1.00  0.00     0.000 HD 
HETATM   61  N   UNL     1     -11.667  16.558  71.251  1.00  0.00    -0.594 NA 
HETATM   62  H2  UNL     1     -12.013  17.394  70.781  1.00  0.00     0.000 HD 
BRANCH  59  63
HETATM   63  C   UNL     1     -13.864  15.642  71.728  1.00  0.00    -0.471 C  
BRANCH  63  64
HETATM   64  C   UNL     1     -13.727  15.726  73.252  1.00  0.00    -0.378 C  
BRANCH  64  65
HETATM   65  C   UNL     1     -12.264  15.678  73.697  1.00  0.00    -0.546 C  
HETATM   66  N   UNL     1     -11.447  16.449  72.767  1.00  0.00    -0.004 NA 
HETATM   67  H2  UNL     1     -11.785  17.405  72.656  1.00  0.00     0.000 HD 
HETATM   68  H1  UNL     1     -10.472  16.418  73.064  1.00  0.00     0.000 HD 
ENDBRANCH  64  65
ENDBRANCH  63  64
ENDBRANCH  59  63
ENDBRANCH  58  59
ENDBRANCH  57  58
ENDBRANCH  31  54
ENDBRANCH   1  14
TORSDOF 11
ENDMDL
MODEL       99
REMARK 921   NORMALIZED FREE ENERGY PREDICTED BY IDOCK:   21.97 KCAL/MOL
REMARK 922        TOTAL FREE ENERGY PREDICTED BY IDOCK:   34.14 KCAL/MOL
REMARK 923 INTER-LIGAND FREE ENERGY PREDICTED BY IDOCK:   27.95 KCAL/MOL
REMARK 924 INTRA-LIGAND FREE ENERGY PREDICTED BY IDOCK:    6.18 KCAL/MOL
REMARK 927      BINDING AFFINITY PREDICTED BY RF-SCORE:    0.00 PKD
ROOT
HETATM    1  C   UNL     1      -7.001  17.004  66.057  1.00  0.00     0.066 C  
HETATM    2  C   UNL     1      -6.551  17.810  64.802  1.00  0.00     1.927 C  
HETATM    3  H1  UNL     1      -7.518  19.062  69.061  1.00  0.00     0.000 HD 
HETATM    4  H   UNL     1      -5.813  17.098  67.886  1.00  0.00     0.000 HD 
HETATM    5  C   UNL     1      -6.699  19.310  65.043  1.00  0.00    -0.051 C  
HETATM    6  H2  UNL     1      -7.347  20.558  68.162  1.00  0.00     0.000 HD 
HETATM    7  N   UNL     1      -5.996  19.644  66.251  1.00  0.00    -0.167 NA 
HETATM    8  O   UNL     1      -6.148  20.049  63.977  1.00  0.00    -0.267 OA 
HETATM    9  N   UNL     1      -6.344  17.644  67.207  1.00  0.00    -0.141 NA 
HETATM   10  N   UNL     1      -7.156  19.559  68.248  1.00  0.00    -0.284 NA 
HETATM   11  H   UNL     1      -5.221  20.307  66.291  1.00  0.00     0.000 HD 
HETATM   12  C   UNL     1      -6.474  18.987  67.329  1.00  0.00    -0.188 C  
HETATM   13  H   UNL     1      -6.241  20.983  64.127  1.00  0.00     0.000 HD 
ENDROOT
BRANCH   1  14
HETATM   14  C   UNL     1      -8.551  16.889  66.246  1.00  0.00    -0.284 C  
HETATM   15  N   UNL     1      -8.531  16.049  71.001  1.00  0.00     3.410 N  
HETATM   16  O   UNL     1      -7.706  17.925  69.023  1.00  0.00    -0.228 OA 
HETATM   17  C   UNL     1      -8.686  17.219  68.828  1.00  0.00    -0.232 C  
HETATM   18  C   UNL     1     -10.645  17.030  70.271  1.00  0.00     0.442 C  
HETATM   19  N   UNL     1      -7.433  11.411  67.546  1.00  0.00    -0.106 N  
HETATM   20  H   UNL     1      -9.911  16.085  67.692  1.00  0.00     0.000 HD 
HETATM   21  N   UNL     1      -9.099  16.701  67.633  1.00  0.00    -0.206 N  
HETATM   22  H   UNL     1      -7.777  16.563  71.457  1.00  0.00     0.000 HD 
HETATM   23  C   UNL     1      -9.368  16.689  70.065  1.00  0.00     1.120 C  
HETATM   24  C   UNL     1      -8.749  14.694  71.296  1.00  0.00     4.093 C  
HETATM   25  O   UNL     1     -10.377  15.578  65.307  1.00  0.00    -0.371 OA 
HETATM   26  O   UNL     1      -9.754  14.275  71.866  1.00  0.00     4.554 OA 
HETATM   27  N   UNL     1      -8.326  14.582  65.258  1.00  0.00     2.995 N  
HETATM   28  CA  UNL     1      -7.665  13.739  70.693  1.00  0.00     2.891 C  
HETATM   29  N   UNL     1      -7.954  12.288  70.752  1.00  0.00     5.107 N  
HETATM   30  C   UNL     1      -8.791  13.262  64.824  1.00  0.00     2.632 C  
HETATM   31  CA  UNL     1      -7.742  12.175  65.191  1.00  0.00     2.812 C  
HETATM   32  H   UNL     1      -7.324  14.715  65.398  1.00  0.00     0.000 HD 
HETATM   33  H   UNL     1      -8.723  11.909  71.304  1.00  0.00     0.000 HD 
HETATM   34  O   UNL     1      -9.142  10.540  66.327  1.00  0.00    -0.157 OA 
HETATM   35  C   UNL     1      -7.098  11.469  70.000  1.00  0.00     0.511 C  
HETATM   36  C   UNL     1      -8.201  11.331  66.401  1.00  0.00    -0.150 C  
HETATM   37  H   UNL     1      -6.593  11.991  67.521  1.00  0.00     0.000 HD 
HETATM   38  C   UNL     1      -9.162  15.657  65.490  1.00  0.00     0.112 C  
HETATM   39  O   UNL     1      -5.875  11.608  70.075  1.00  0.00    -0.109 OA 
HETATM   40  CA  UNL     1      -7.756  10.702  68.818  1.00  0.00    -0.117 C  
BRANCH  18  41
HETATM   41  N   UNL     1     -11.291  16.839  71.468  1.00  0.00    -0.262 N  
HETATM   42  H   UNL     1     -10.936  17.319  72.295  1.00  0.00     0.000 HD 
BRANCH  41  43
HETATM   43  C   UNL     1     -12.385  16.036  71.601  1.00  0.00    -0.416 C  
HETATM   44  H2  UNL     1     -11.809  15.617  73.576  1.00  0.00     0.000 HD 
HETATM   45  N   UNL     1     -12.485  15.463  72.827  1.00  0.00    -0.365 N  
HETATM   46  H1  UNL     1     -13.304  14.863  72.927  1.00  0.00     0.000 HD 
HETATM   47  O   UNL     1     -13.232  15.830  70.739  1.00  0.00    -0.542 OA 
ENDBRANCH  41  43
ENDBRANCH  18  41
BRANCH  28  48
HETATM   48  C   UNL     1      -7.572  14.108  69.199  1.00  0.00    -0.003 C  
HETATM   49  O   UNL     1      -6.512  15.046  68.960  1.00  0.00    -0.095 OA 
HETATM   50  H   UNL     1      -6.454  15.273  68.039  1.00  0.00     0.000 HD 
ENDBRANCH  28  48
BRANCH  40  51
HETATM   51  CB  UNL     1      -7.218   9.267  68.779  1.00  0.00    -0.074 C  
HETATM   52  O   UNL     1      -5.792   9.205  68.717  1.00  0.00    -0.040 OA 
HETATM   53  H   UNL     1      -5.458   8.316  68.694  1.00  0.00     0.000 HD 
ENDBRANCH  40  51
BRANCH  31  54
HETATM   54  N   UNL     1      -7.452  11.282  64.063  1.00  0.00     0.477 N  
HETATM   55  H   UNL     1      -6.524  11.298  63.638  1.00  0.00     0.000 HD 
HETATM   56  O   UNL     1      -9.530  10.346  64.063  1.00  0.00    -0.252 OA 
HETATM   57  C   UNL     1      -8.409  10.421  63.565  1.00  0.00    -0.154 C  
BRANCH  57  58
HETATM   58  C   UNL     1      -7.940   9.582  62.381  1.00  0.00    -0.125 C  
BRANCH  58  59
HETATM   59  C   UNL     1      -7.961   8.060  62.637  1.00  0.00    -0.151 C  
HETATM   60  H1  UNL     1      -6.621   6.569  63.114  1.00  0.00     0.000 HD 
HETATM   61  N   UNL     1      -6.607   7.575  62.945  1.00  0.00    -0.061 NA 
HETATM   62  H2  UNL     1      -6.188   8.085  63.722  1.00  0.00     0.000 HD 
BRANCH  59  63
HETATM   63  C   UNL     1      -8.871   7.656  63.821  1.00  0.00     0.884 C  
BRANCH  63  64
HETATM   64  C   UNL     1      -8.201   6.696  64.810  1.00  0.00    -0.064 C  
BRANCH  64  65
HETATM   65  C   UNL     1      -8.456   7.101  66.262  1.00  0.00    -0.138 C  
HETATM   66  N   UNL     1      -9.849   6.832  66.605  1.00  0.00    -0.276 NA 
HETATM   67  H2  UNL     1     -10.110   5.862  66.424  1.00  0.00     0.000 HD 
HETATM   68  H1  UNL     1     -10.019   7.101  67.574  1.00  0.00     0.000 HD 
ENDBRANCH  64  65
ENDBRANCH  63  64
ENDBRANCH  59  63
ENDBRANCH  58  59
ENDBRANCH  57  58
ENDBRANCH  31  54
ENDBRANCH   1  14
TORSDOF 11
ENDMDL
MODEL      100
REMARK 921   NORMALIZED FREE ENERGY PREDICTED BY IDOCK:   23.94 KCAL/MOL
REMARK 922        TOTAL FREE ENERGY PREDICTED BY IDOCK:   37.37 KCAL/MOL
REMARK 923 INTER-LIGAND FREE ENERGY PREDICTED BY IDOCK:   20.03 KCAL/MOL
REMARK 924 INTRA-LIGAND FREE ENERGY PREDICTED BY IDOCK:   17.34 KCAL/MOL
REMARK 927      BINDING AFFINITY PREDICTED BY RF-SCORE:    0.00 PKD
ROOT
HETATM    1  C   UNL     1     -11.324   5.828  65.168  1.00  0.00     3.196 C  
HETATM    2  C   UNL     1     -11.756   4.785  64.095  1.00  0.00     2.224 C  
HETATM    3  H1  UNL     1     -10.011   4.346  68.267  1.00  0.00     0.000 HD 
HETATM    4  H   UNL     1     -12.221   5.771  67.157  1.00  0.00     0.000 HD 
HETATM    5  C   UNL     1     -11.273   3.388  64.477  1.00  0.00     0.873 C  
HETATM    6  H2  UNL     1      -9.984   2.734  67.577  1.00  0.00     0.000 HD 
HETATM    7  N   UNL     1     -11.729   3.100  65.808  1.00  0.00     4.185 NA 
HETATM    8  O   UNL     1     -11.791   2.417  63.597  1.00  0.00    -0.051 OA 
HETATM    9  N   UNL     1     -11.681   5.245  66.469  1.00  0.00     1.771 NA 
HETATM   10  N   UNL     1     -10.364   3.681  67.580  1.00  0.00     0.893 NA 
HETATM   11  H   UNL     1     -12.339   2.316  66.040  1.00  0.00     0.000 HD 
HETATM   12  C   UNL     1     -11.262   3.981  66.719  1.00  0.00     3.768 C  
HETATM   13  H   UNL     1     -11.490   1.548  63.835  1.00  0.00     0.000 HD 
ENDROOT
BRANCH   1  14
HETATM   14  C   UNL     1      -9.820   6.258  65.101  1.00  0.00     1.415 C  
HETATM   15  N   UNL     1      -8.316   3.843  69.003  1.00  0.00    -0.072 N  
HETATM   16  O   UNL     1      -9.575   3.507  66.470  1.00  0.00    -0.181 OA 
HETATM   17  C   UNL     1      -8.790   4.430  66.648  1.00  0.00    -0.114 C  
HETATM   18  C   UNL     1      -6.488   4.242  67.433  1.00  0.00    -0.042 C  
HETATM   19  N   UNL     1     -10.957   9.006  70.011  1.00  0.00    -0.272 N  
HETATM   20  H   UNL     1      -8.136   6.327  66.423  1.00  0.00     0.000 HD 
HETATM   21  N   UNL     1      -8.857   5.680  66.101  1.00  0.00    -0.138 N  
HETATM   22  H   UNL     1      -8.818   2.960  69.100  1.00  0.00     0.000 HD 
HETATM   23  C   UNL     1      -7.787   4.231  67.756  1.00  0.00    -0.083 C  
HETATM   24  C   UNL     1      -8.143   4.688  70.110  1.00  0.00    -0.068 C  
HETATM   25  O   UNL     1      -8.553   8.339  65.029  1.00  0.00    -0.154 OA 
HETATM   26  O   UNL     1      -7.050   4.929  70.618  1.00  0.00    -0.046 OA 
HETATM   27  N   UNL     1     -10.586   8.461  66.055  1.00  0.00     0.313 N  
HETATM   28  CA  UNL     1      -9.454   5.425  70.547  1.00  0.00    -0.165 C  
HETATM   29  N   UNL     1      -9.304   6.509  71.544  1.00  0.00    -0.148 N  
HETATM   30  C   UNL     1     -10.425   9.818  66.585  1.00  0.00    -0.163 C  
HETATM   31  CA  UNL     1     -11.388  10.045  67.783  1.00  0.00     0.106 C  
HETATM   32  H   UNL     1     -11.464   7.975  66.240  1.00  0.00     0.000 HD 
HETATM   33  H   UNL     1      -8.434   6.662  72.054  1.00  0.00     0.000 HD 
HETATM   34  O   UNL     1      -9.853  10.914  69.459  1.00  0.00    -0.103 OA 
HETATM   35  C   UNL     1     -10.437   7.311  71.741  1.00  0.00    -0.197 C  
HETATM   36  C   UNL     1     -10.632  10.020  69.130  1.00  0.00    -0.218 C  
HETATM   37  H   UNL     1     -11.696   8.356  69.742  1.00  0.00     0.000 HD 
HETATM   38  C   UNL     1      -9.622   7.800  65.320  1.00  0.00     1.105 C  
HETATM   39  O   UNL     1     -11.544   6.796  71.917  1.00  0.00    -0.265 OA 
HETATM   40  CA  UNL     1     -10.294   8.805  71.332  1.00  0.00    -0.278 C  
BRANCH  18  41
HETATM   41  N   UNL     1      -5.498   3.816  68.285  1.00  0.00    -0.013 N  
HETATM   42  H   UNL     1      -4.608   4.314  68.284  1.00  0.00     0.000 HD 
BRANCH  41  43
HETATM   43  C   UNL     1      -5.651   2.759  69.132  1.00  0.00    -0.018 C  
HETATM   44  H2  UNL     1      -4.773   1.508  67.694  1.00  0.00     0.000 HD 
HETATM   45  N   UNL     1      -5.191   1.589  68.620  1.00  0.00    -0.011 N  
HETATM   46  H1  UNL     1      -5.306   0.798  69.254  1.00  0.00     0.000 HD 
HETATM   47  O   UNL     1      -6.135   2.806  70.257  1.00  0.00    -0.022 OA 
ENDBRANCH  41  43
ENDBRANCH  18  41
BRANCH  28  48
HETATM   48  C   UNL     1     -10.010   6.078  69.266  1.00  0.00    -0.163 C  
HETATM   49  O   UNL     1      -9.106   7.069  68.753  1.00  0.00    -0.135 OA 
HETATM   50  H   UNL     1      -9.448   7.471  67.963  1.00  0.00     0.000 HD 
ENDBRANCH  28  48
BRANCH  40  51
HETATM   51  CB  UNL     1     -10.950   9.690  72.398  1.00  0.00     1.583 C  
HETATM   52  O   UNL     1     -11.556  10.865  71.855  1.00  0.00     0.802 OA 
HETATM   53  H   UNL     1     -11.963  11.413  72.516  1.00  0.00     0.000 HD 
ENDBRANCH  40  51
BRANCH  31  54
HETATM   54  N   UNL     1     -12.127  11.308  67.669  1.00  0.00     0.155 N  
HETATM   55  H   UNL     1     -13.037  11.397  68.120  1.00  0.00     0.000 HD 
HETATM   56  O   UNL     1     -10.508  12.325  66.428  1.00  0.00    -0.230 OA 
HETATM   57  C   UNL     1     -11.613  12.377  66.963  1.00  0.00    -0.365 C  
BRANCH  57  58
HETATM   58  C   UNL     1     -12.524  13.601  66.933  1.00  0.00    -0.189 C  
BRANCH  58  59
HETATM   59  C   UNL     1     -11.778  14.946  67.063  1.00  0.00    -0.261 C  
HETATM   60  H1  UNL     1     -12.201  16.884  67.622  1.00  0.00     0.000 HD 
HETATM   61  N   UNL     1     -12.694  15.995  67.536  1.00  0.00     1.588 NA 
HETATM   62  H2  UNL     1     -13.157  15.731  68.406  1.00  0.00     0.000 HD 
BRANCH  59  63
HETATM   63  C   UNL     1     -10.595  14.891  68.058  1.00  0.00    -0.248 C  
BRANCH  63  64
HETATM   64  C   UNL     1     -11.020  15.017  69.525  1.00  0.00    -0.281 C  
BRANCH  64  65
HETATM   65  C   UNL     1      -9.827  14.912  70.476  1.00  0.00     0.802 C  
HETATM   66  N   UNL     1      -8.706  15.676  69.939  1.00  0.00    -0.058 NA 
HETATM   67  H2  UNL     1      -8.958  16.644  69.743  1.00  0.00     0.000 HD 
HETATM   68  H1  UNL     1      -7.911  15.606  70.574  1.00  0.00     0.000 HD 
ENDBRANCH  64  65
ENDBRANCH  63  64
ENDBRANCH  59  63
ENDBRANCH  58  59
ENDBRANCH  57  58
ENDBRANCH  31  54
ENDBRANCH   1  14
TORSDOF 11
ENDMDL
MODEL      101
REMARK 921   NORMALIZED FREE ENERGY PREDICTED BY IDOCK:   26.67 KCAL/MOL
REMARK 922        TOTAL FREE ENERGY PREDICTED BY IDOCK:   41.86 KCAL/MOL
REMARK 923 INTER-LIGAND FREE ENERGY PREDICTED BY IDOCK:   29.68 KCAL/MOL
REMARK 924 INTRA-LIGAND FREE ENERGY PREDICTED BY IDOCK:   12.19 KCAL/MOL
REMARK 927      BINDING AFFINITY PREDICTED BY RF-SCORE:    0.00 PKD
ROOT
HETATM    1  C   UNL     1      -5.996  10.377  72.529  1.00  0.00     1.139 C  
HETATM    2  C   UNL     1      -7.512  10.683  72.716  1.00  0.00     7.502 C  
HETATM    3  H1  UNL     1      -5.279   6.960  71.373  1.00  0.00     0.000 HD 
HETATM    4  H   UNL     1      -5.084   8.717  73.614  1.00  0.00     0.000 HD 
HETATM    5  C   UNL     1      -8.364   9.572  72.107  1.00  0.00     1.687 C  
HETATM    6  H2  UNL     1      -6.974   6.621  71.077  1.00  0.00     0.000 HD 
HETATM    7  N   UNL     1      -7.934   8.318  72.661  1.00  0.00    -0.205 NA 
HETATM    8  O   UNL     1      -9.728   9.760  72.408  1.00  0.00     1.317 OA 
HETATM    9  N   UNL     1      -5.809   8.979  72.944  1.00  0.00    -0.210 NA 
HETATM   10  N   UNL     1      -6.260   7.159  71.569  1.00  0.00    -0.037 NA 
HETATM   11  H   UNL     1      -8.544   7.695  73.191  1.00  0.00     0.000 HD 
HETATM   12  C   UNL     1      -6.636   8.054  72.402  1.00  0.00    -0.075 C  
HETATM   13  H   UNL     1     -10.258   9.069  72.029  1.00  0.00     0.000 HD 
ENDROOT
BRANCH   1  14
HETATM   14  C   UNL     1      -5.441  10.649  71.090  1.00  0.00    -0.059 C  
HETATM   15  N   UNL     1      -8.252  14.435  70.050  1.00  0.00     0.128 N  
HETATM   16  O   UNL     1      -6.320  13.486  71.916  1.00  0.00     0.260 OA 
HETATM   17  C   UNL     1      -6.304  13.086  70.759  1.00  0.00     0.620 C  
HETATM   18  C   UNL     1      -6.185  14.468  68.751  1.00  0.00    -0.087 C  
HETATM   19  N   UNL     1     -10.701   9.126  69.369  1.00  0.00    -0.283 N  
HETATM   20  H   UNL     1      -6.069  11.686  69.324  1.00  0.00     0.000 HD 
HETATM   21  N   UNL     1      -5.958  11.837  70.327  1.00  0.00    -0.162 N  
HETATM   22  H   UNL     1      -8.426  14.998  70.883  1.00  0.00     0.000 HD 
HETATM   23  C   UNL     1      -6.949  13.996  69.743  1.00  0.00     0.088 C  
HETATM   24  C   UNL     1      -9.309  14.086  69.195  1.00  0.00     0.262 C  
HETATM   25  O   UNL     1      -5.147   9.400  69.018  1.00  0.00    -0.036 OA 
HETATM   26  O   UNL     1      -9.413  14.496  68.041  1.00  0.00    -0.199 OA 
HETATM   27  N   UNL     1      -6.841   8.684  70.366  1.00  0.00    -0.040 N  
HETATM   28  CA  UNL     1     -10.265  12.999  69.792  1.00  0.00     1.340 C  
HETATM   29  N   UNL     1     -11.254  12.406  68.863  1.00  0.00    -0.264 N  
HETATM   30  C   UNL     1      -7.423   7.734  69.413  1.00  0.00    -0.088 C  
HETATM   31  CA  UNL     1      -8.905   7.443  69.781  1.00  0.00    -0.141 C  
HETATM   32  H   UNL     1      -7.275   8.766  71.286  1.00  0.00     0.000 HD 
HETATM   33  H   UNL     1     -11.431  12.793  67.937  1.00  0.00     0.000 HD 
HETATM   34  O   UNL     1     -10.002   7.824  67.643  1.00  0.00    -0.157 OA 
HETATM   35  C   UNL     1     -11.932  11.275  69.343  1.00  0.00    -0.341 C  
HETATM   36  C   UNL     1      -9.879   8.161  68.820  1.00  0.00    -0.176 C  
HETATM   37  H   UNL     1     -10.646   9.287  70.375  1.00  0.00     0.000 HD 
HETATM   38  C   UNL     1      -5.742   9.474  70.095  1.00  0.00    -0.037 C  
HETATM   39  O   UNL     1     -12.436  11.280  70.469  1.00  0.00    -0.321 OA 
HETATM   40  CA  UNL     1     -11.665   9.946  68.580  1.00  0.00     0.427 C  
BRANCH  18  41
HETATM   41  N   UNL     1      -6.572  15.497  67.928  1.00  0.00    -0.143 N  
HETATM   42  H   UNL     1      -6.584  15.336  66.921  1.00  0.00     0.000 HD 
BRANCH  41  43
HETATM   43  C   UNL     1      -6.942  16.723  68.395  1.00  0.00    -0.170 C  
HETATM   44  H2  UNL     1      -7.812  17.146  66.532  1.00  0.00     0.000 HD 
HETATM   45  N   UNL     1      -7.608  17.470  67.478  1.00  0.00    -0.194 N  
HETATM   46  H1  UNL     1      -7.885  18.387  67.828  1.00  0.00     0.000 HD 
HETATM   47  O   UNL     1      -6.733  17.153  69.524  1.00  0.00    -0.232 OA 
ENDBRANCH  41  43
ENDBRANCH  18  41
BRANCH  28  48
HETATM   48  C   UNL     1      -9.350  11.849  70.254  1.00  0.00     4.063 C  
HETATM   49  O   UNL     1      -8.667  11.248  69.143  1.00  0.00    -0.369 OA 
HETATM   50  H   UNL     1      -8.103  10.539  69.428  1.00  0.00     0.000 HD 
ENDBRANCH  28  48
BRANCH  40  51
HETATM   51  CB  UNL     1     -12.985   9.189  68.398  1.00  0.00     8.551 C  
HETATM   52  O   UNL     1     -14.125   9.940  68.821  1.00  0.00     5.106 OA 
HETATM   53  H   UNL     1     -14.943   9.471  68.707  1.00  0.00     0.000 HD 
ENDBRANCH  40  51
BRANCH  31  54
HETATM   54  N   UNL     1      -9.203   6.006  69.784  1.00  0.00    -0.142 N  
HETATM   55  H   UNL     1      -8.530   5.357  70.193  1.00  0.00     0.000 HD 
HETATM   56  O   UNL     1     -11.228   6.262  68.770  1.00  0.00    -0.363 OA 
HETATM   57  C   UNL     1     -10.375   5.515  69.247  1.00  0.00    -0.265 C  
BRANCH  57  58
HETATM   58  C   UNL     1     -10.508   3.997  69.319  1.00  0.00     1.206 C  
BRANCH  58  59
HETATM   59  C   UNL     1      -9.690   3.345  70.453  1.00  0.00    -0.080 C  
HETATM   60  H1  UNL     1      -7.760   3.396  71.174  1.00  0.00     0.000 HD 
HETATM   61  N   UNL     1      -8.301   3.827  70.424  1.00  0.00    -0.057 NA 
HETATM   62  H2  UNL     1      -8.251   4.845  70.456  1.00  0.00     0.000 HD 
BRANCH  59  63
HETATM   63  C   UNL     1     -10.250   3.655  71.862  1.00  0.00    -0.111 C  
BRANCH  63  64
HETATM   64  C   UNL     1     -11.151   4.893  71.906  1.00  0.00     0.122 C  
BRANCH  64  65
HETATM   65  C   UNL     1     -12.220   4.785  72.995  1.00  0.00     0.358 C  
HETATM   66  N   UNL     1     -12.386   3.386  73.376  1.00  0.00     0.541 NA 
HETATM   67  H2  UNL     1     -11.505   2.956  73.656  1.00  0.00     0.000 HD 
HETATM   68  H1  UNL     1     -13.099   3.314  74.102  1.00  0.00     0.000 HD 
ENDBRANCH  64  65
ENDBRANCH  63  64
ENDBRANCH  59  63
ENDBRANCH  58  59
ENDBRANCH  57  58
ENDBRANCH  31  54
ENDBRANCH   1  14
TORSDOF 11
ENDMDL
MODEL      102
REMARK 921   NORMALIZED FREE ENERGY PREDICTED BY IDOCK:   29.27 KCAL/MOL
REMARK 922        TOTAL FREE ENERGY PREDICTED BY IDOCK:   46.13 KCAL/MOL
REMARK 923 INTER-LIGAND FREE ENERGY PREDICTED BY IDOCK:   30.30 KCAL/MOL
REMARK 924 INTRA-LIGAND FREE ENERGY PREDICTED BY IDOCK:   15.83 KCAL/MOL
REMARK 927      BINDING AFFINITY PREDICTED BY RF-SCORE:    0.00 PKD
ROOT
HETATM    1  C   UNL     1      -8.554  14.297  65.711  1.00  0.00     1.496 C  
HETATM    2  C   UNL     1      -9.966  14.610  66.288  1.00  0.00    -0.306 C  
HETATM    3  H1  UNL     1      -5.981  16.771  66.601  1.00  0.00     0.000 HD 
HETATM    4  H   UNL     1      -7.553  15.765  64.441  1.00  0.00     0.000 HD 
HETATM    5  C   UNL     1      -9.889  15.730  67.323  1.00  0.00    -0.230 C  
HETATM    6  H2  UNL     1      -7.045  17.586  67.732  1.00  0.00     0.000 HD 
HETATM    7  N   UNL     1      -9.226  16.855  66.723  1.00  0.00    -0.237 NA 
HETATM    8  O   UNL     1     -11.178  16.127  67.733  1.00  0.00    -0.299 OA 
HETATM    9  N   UNL     1      -7.960  15.597  65.363  1.00  0.00     2.697 NA 
HETATM   10  N   UNL     1      -6.927  16.993  66.910  1.00  0.00    -0.193 NA 
HETATM   11  H   UNL     1      -9.654  17.775  66.619  1.00  0.00     0.000 HD 
HETATM   12  C   UNL     1      -7.973  16.561  66.314  1.00  0.00    -0.272 C  
HETATM   13  H   UNL     1     -11.129  16.823  68.378  1.00  0.00     0.000 HD 
ENDROOT
BRANCH   1  14
HETATM   14  C   UNL     1      -7.629  13.454  66.652  1.00  0.00     0.943 C  
HETATM   15  N   UNL     1     -10.454   9.550  66.954  1.00  0.00    -0.230 N  
HETATM   16  O   UNL     1      -9.072  11.214  65.102  1.00  0.00    -0.202 OA 
HETATM   17  C   UNL     1      -8.656  11.093  66.247  1.00  0.00    -0.180 C  
HETATM   18  C   UNL     1      -8.112   8.999  67.375  1.00  0.00    -0.108 C  
HETATM   19  N   UNL     1     -11.882  14.057  70.460  1.00  0.00    -0.453 N  
HETATM   20  H   UNL     1      -7.820  11.766  67.957  1.00  0.00     0.000 HD 
HETATM   21  N   UNL     1      -8.039  12.050  67.001  1.00  0.00    -0.168 N  
HETATM   22  H   UNL     1     -10.942   9.385  66.073  1.00  0.00     0.000 HD 
HETATM   23  C   UNL     1      -9.074   9.834  66.964  1.00  0.00    -0.138 C  
HETATM   24  C   UNL     1     -11.149   9.496  68.173  1.00  0.00     0.006 C  
HETATM   25  O   UNL     1      -6.565  13.724  68.828  1.00  0.00    -0.087 OA 
HETATM   26  O   UNL     1     -10.950   8.640  69.032  1.00  0.00    -0.079 OA 
HETATM   27  N   UNL     1      -8.481  14.920  68.516  1.00  0.00    -0.156 N  
HETATM   28  CA  UNL     1     -12.093  10.722  68.409  1.00  0.00     0.258 C  
HETATM   29  N   UNL     1     -12.671  10.861  69.765  1.00  0.00    -0.321 N  
HETATM   30  C   UNL     1      -8.621  15.376  69.902  1.00  0.00     0.166 C  
HETATM   31  CA  UNL     1     -10.095  15.778  70.189  1.00  0.00    -0.085 C  
HETATM   32  H   UNL     1      -9.180  15.226  67.838  1.00  0.00     0.000 HD 
HETATM   33  H   UNL     1     -12.607  10.119  70.462  1.00  0.00     0.000 HD 
HETATM   34  O   UNL     1     -10.533  14.524  72.228  1.00  0.00     2.094 OA 
HETATM   35  C   UNL     1     -13.312  12.081  70.029  1.00  0.00     1.727 C  
HETATM   36  C   UNL     1     -10.816  14.713  71.045  1.00  0.00     0.454 C  
HETATM   37  H   UNL     1     -12.155  14.333  69.516  1.00  0.00     0.000 HD 
HETATM   38  C   UNL     1      -7.462  14.101  68.072  1.00  0.00    -0.140 C  
HETATM   39  O   UNL     1     -14.129  12.542  69.228  1.00  0.00     5.960 OA 
HETATM   40  CA  UNL     1     -12.659  12.971  71.125  1.00  0.00    -0.297 C  
BRANCH  18  41
HETATM   41  N   UNL     1      -8.360   7.715  67.796  1.00  0.00    -0.118 N  
HETATM   42  H   UNL     1      -8.455   6.982  67.093  1.00  0.00     0.000 HD 
BRANCH  41  43
HETATM   43  C   UNL     1      -8.484   7.376  69.111  1.00  0.00    -0.133 C  
HETATM   44  H2  UNL     1      -7.765   5.456  68.660  1.00  0.00     0.000 HD 
HETATM   45  N   UNL     1      -8.107   6.099  69.375  1.00  0.00    -0.110 N  
HETATM   46  H1  UNL     1      -8.200   5.845  70.358  1.00  0.00     0.000 HD 
HETATM   47  O   UNL     1      -8.877   8.114  70.008  1.00  0.00    -0.137 OA 
ENDBRANCH  41  43
ENDBRANCH  18  41
BRANCH  28  48
HETATM   48  C   UNL     1     -11.221  11.970  68.172  1.00  0.00    -0.260 C  
HETATM   49  O   UNL     1     -11.645  13.066  68.997  1.00  0.00    -0.278 OA 
HETATM   50  H   UNL     1     -11.107  13.835  68.851  1.00  0.00     0.000 HD 
ENDBRANCH  28  48
BRANCH  40  51
HETATM   51  CB  UNL     1     -13.754  13.567  72.016  1.00  0.00    -0.478 C  
HETATM   52  O   UNL     1     -13.404  14.842  72.556  1.00  0.00    -0.359 OA 
HETATM   53  H   UNL     1     -14.084  15.212  73.109  1.00  0.00     0.000 HD 
ENDBRANCH  40  51
BRANCH  31  54
HETATM   54  N   UNL     1     -10.194  17.081  70.858  1.00  0.00     1.858 N  
HETATM   55  H   UNL     1      -9.815  17.909  70.397  1.00  0.00     0.000 HD 
HETATM   56  O   UNL     1     -11.284  16.244  72.676  1.00  0.00     0.215 OA 
HETATM   57  C   UNL     1     -10.788  17.208  72.096  1.00  0.00     2.467 C  
BRANCH  57  58
HETATM   58  C   UNL     1     -10.785  18.630  72.648  1.00  0.00     3.359 C  
BRANCH  58  59
HETATM   59  C   UNL     1     -11.095  19.716  71.596  1.00  0.00     6.036 C  
HETATM   60  H1  UNL     1     -10.982  21.768  71.434  1.00  0.00     0.000 HD 
HETATM   61  N   UNL     1     -10.777  21.050  72.129  1.00  0.00     5.984 NA 
HETATM   62  H2  UNL     1      -9.814  21.107  72.462  1.00  0.00     0.000 HD 
BRANCH  59  63
HETATM   63  C   UNL     1     -10.287  19.544  70.288  1.00  0.00     1.020 C  
BRANCH  63  64
HETATM   64  C   UNL     1     -10.729  20.487  69.165  1.00  0.00     0.592 C  
BRANCH  64  65
HETATM   65  C   UNL     1     -10.330  19.960  67.785  1.00  0.00    -0.407 C  
HETATM   66  N   UNL     1      -9.236  20.764  67.254  1.00  0.00    -0.569 NA 
HETATM   67  H2  UNL     1      -8.443  20.807  67.893  1.00  0.00     0.000 HD 
HETATM   68  H1  UNL     1      -8.970  20.412  66.334  1.00  0.00     0.000 HD 
ENDBRANCH  64  65
ENDBRANCH  63  64
ENDBRANCH  59  63
ENDBRANCH  58  59
ENDBRANCH  57  58
ENDBRANCH  31  54
ENDBRANCH   1  14
TORSDOF 11
ENDMDL
MODEL      103
REMARK 921   NORMALIZED FREE ENERGY PREDICTED BY IDOCK:   31.20 KCAL/MOL
REMARK 922        TOTAL FREE ENERGY PREDICTED BY IDOCK:   49.30 KCAL/MOL
REMARK 923 INTER-LIGAND FREE ENERGY PREDICTED BY IDOCK:   50.03 KCAL/MOL
REMARK 924 INTRA-LIGAND FREE ENERGY PREDICTED BY IDOCK:   -0.72 KCAL/MOL
REMARK 927      BINDING AFFINITY PREDICTED BY RF-SCORE:    0.00 PKD
ROOT
HETATM    1  C   UNL     1      -8.558  11.534  65.514  1.00  0.00     0.183 C  
HETATM    2  C   UNL     1      -8.219  10.263  64.680  1.00  0.00    -0.161 C  
HETATM    3  H1  UNL     1      -9.199  14.538  63.491  1.00  0.00     0.000 HD 
HETATM    4  H   UNL     1      -7.341  13.332  65.292  1.00  0.00     0.000 HD 
HETATM    5  C   UNL     1      -8.504  10.499  63.199  1.00  0.00    -0.167 C  
HETATM    6  H2  UNL     1      -9.195  13.625  61.994  1.00  0.00     0.000 HD 
HETATM    7  N   UNL     1      -7.808  11.688  62.789  1.00  0.00    -0.056 NA 
HETATM    8  O   UNL     1      -8.054   9.415  62.419  1.00  0.00    -0.121 OA 
HETATM    9  N   UNL     1      -7.939  12.663  64.805  1.00  0.00     3.996 NA 
HETATM   10  N   UNL     1      -8.906  13.712  62.968  1.00  0.00     8.246 NA 
HETATM   11  H   UNL     1      -7.100  11.704  62.054  1.00  0.00     0.000 HD 
HETATM   12  C   UNL     1      -8.195  12.780  63.480  1.00  0.00     5.951 C  
HETATM   13  H   UNL     1      -8.232   9.562  61.498  1.00  0.00     0.000 HD 
ENDROOT
BRANCH   1  14
HETATM   14  C   UNL     1     -10.086  11.762  65.777  1.00  0.00    -0.237 C  
HETATM   15  N   UNL     1      -9.681  13.572  70.235  1.00  0.00     2.206 N  
HETATM   16  O   UNL     1      -8.860  13.975  67.538  1.00  0.00    -0.178 OA 
HETATM   17  C   UNL     1      -9.925  13.424  67.779  1.00  0.00    -0.233 C  
HETATM   18  C   UNL     1     -11.739  14.313  69.148  1.00  0.00    -0.320 C  
HETATM   19  N   UNL     1      -9.440   7.708  69.789  1.00  0.00    -0.157 N  
HETATM   20  H   UNL     1     -11.373  12.052  67.464  1.00  0.00     0.000 HD 
HETATM   21  N   UNL     1     -10.509  12.417  67.062  1.00  0.00    -0.220 N  
HETATM   22  H   UNL     1      -8.834  14.134  70.323  1.00  0.00     0.000 HD 
HETATM   23  C   UNL     1     -10.533  13.733  69.124  1.00  0.00    -0.021 C  
HETATM   24  C   UNL     1     -10.013  12.627  71.219  1.00  0.00    10.112 C  
HETATM   25  O   UNL     1     -12.127  10.432  65.739  1.00  0.00     2.297 OA 
HETATM   26  O   UNL     1     -10.996  12.724  71.951  1.00  0.00     5.147 OA 
HETATM   27  N   UNL     1     -10.210   9.278  66.180  1.00  0.00    -0.257 N  
HETATM   28  CA  UNL     1      -9.104  11.352  71.195  1.00  0.00     8.358 C  
HETATM   29  N   UNL     1      -9.541  10.213  72.033  1.00  0.00     3.189 N  
HETATM   30  C   UNL     1     -10.856   8.011  66.536  1.00  0.00     0.683 C  
HETATM   31  CA  UNL     1      -9.900   7.145  67.402  1.00  0.00    -0.155 C  
HETATM   32  H   UNL     1      -9.191   9.318  66.199  1.00  0.00     0.000 HD 
HETATM   33  H   UNL     1     -10.287  10.299  72.722  1.00  0.00     0.000 HD 
HETATM   34  O   UNL     1     -11.347   6.581  69.276  1.00  0.00    -0.335 OA 
HETATM   35  C   UNL     1      -8.858   9.006  71.817  1.00  0.00     0.030 C  
HETATM   36  C   UNL     1     -10.324   7.146  68.888  1.00  0.00    -0.196 C  
HETATM   37  H   UNL     1      -8.550   8.057  69.434  1.00  0.00     0.000 HD 
HETATM   38  C   UNL     1     -10.898  10.420  65.819  1.00  0.00     0.183 C  
HETATM   39  O   UNL     1      -7.626   8.985  71.773  1.00  0.00    -0.321 OA 
HETATM   40  CA  UNL     1      -9.710   7.834  71.251  1.00  0.00    -0.157 C  
BRANCH  18  41
HETATM   41  N   UNL     1     -12.279  14.879  70.277  1.00  0.00    -0.314 N  
HETATM   42  H   UNL     1     -12.494  14.274  71.069  1.00  0.00     0.000 HD 
BRANCH  41  43
HETATM   43  C   UNL     1     -12.539  16.213  70.387  1.00  0.00     0.458 C  
HETATM   44  H2  UNL     1     -13.027  16.263  68.345  1.00  0.00     0.000 HD 
HETATM   45  N   UNL     1     -12.934  16.781  69.219  1.00  0.00     1.566 N  
HETATM   46  H1  UNL     1     -13.129  17.779  69.301  1.00  0.00     0.000 HD 
HETATM   47  O   UNL     1     -12.455  16.877  71.413  1.00  0.00     1.241 OA 
ENDBRANCH  41  43
ENDBRANCH  18  41
BRANCH  28  48
HETATM   48  C   UNL     1      -9.122  10.857  69.735  1.00  0.00     0.621 C  
HETATM   49  O   UNL     1     -10.428  10.400  69.355  1.00  0.00    -0.211 OA 
HETATM   50  H   UNL     1     -10.439  10.096  68.456  1.00  0.00     0.000 HD 
ENDBRANCH  28  48
BRANCH  40  51
HETATM   51  CB  UNL     1      -9.336   6.536  71.976  1.00  0.00    -0.147 C  
HETATM   52  O   UNL     1     -10.473   5.773  72.381  1.00  0.00    -0.197 OA 
HETATM   53  H   UNL     1     -10.241   4.968  72.831  1.00  0.00     0.000 HD 
ENDBRANCH  40  51
BRANCH  31  54
HETATM   54  N   UNL     1      -9.822   5.759  66.924  1.00  0.00    -0.145 N  
HETATM   55  H   UNL     1     -10.046   4.996  67.563  1.00  0.00     0.000 HD 
HETATM   56  O   UNL     1      -9.201   6.355  64.814  1.00  0.00     0.530 OA 
HETATM   57  C   UNL     1      -9.451   5.468  65.627  1.00  0.00     0.002 C  
BRANCH  57  58
HETATM   58  C   UNL     1      -9.405   3.977  65.310  1.00  0.00    -0.163 C  
BRANCH  58  59
HETATM   59  C   UNL     1      -8.480   3.163  66.239  1.00  0.00    -0.106 C  
HETATM   60  H1  UNL     1      -8.528   1.376  67.266  1.00  0.00     0.000 HD 
HETATM   61  N   UNL     1      -9.139   1.914  66.651  1.00  0.00    -0.270 NA 
HETATM   62  H2  UNL     1      -9.451   1.366  65.849  1.00  0.00     0.000 HD 
BRANCH  59  63
HETATM   63  C   UNL     1      -7.140   2.771  65.571  1.00  0.00    -0.061 C  
BRANCH  63  64
HETATM   64  C   UNL     1      -7.037   3.199  64.104  1.00  0.00    -0.056 C  
BRANCH  64  65
HETATM   65  C   UNL     1      -6.415   2.107  63.232  1.00  0.00    -0.014 C  
HETATM   66  N   UNL     1      -5.135   2.571  62.709  1.00  0.00    -0.003 NA 
HETATM   67  H2  UNL     1      -4.505   2.878  63.450  1.00  0.00     0.000 HD 
HETATM   68  H1  UNL     1      -4.720   1.842  62.128  1.00  0.00     0.000 HD 
ENDBRANCH  64  65
ENDBRANCH  63  64
ENDBRANCH  59  63
ENDBRANCH  58  59
ENDBRANCH  57  58
ENDBRANCH  31  54
ENDBRANCH   1  14
TORSDOF 11
ENDMDL
MODEL      104
REMARK 921   NORMALIZED FREE ENERGY PREDICTED BY IDOCK:   32.04 KCAL/MOL
REMARK 922        TOTAL FREE ENERGY PREDICTED BY IDOCK:   50.69 KCAL/MOL
REMARK 923 INTER-LIGAND FREE ENERGY PREDICTED BY IDOCK:   41.18 KCAL/MOL
REMARK 924 INTRA-LIGAND FREE ENERGY PREDICTED BY IDOCK:    9.51 KCAL/MOL
REMARK 927      BINDING AFFINITY PREDICTED BY RF-SCORE:    0.00 PKD
ROOT
HETATM    1  C   UNL     1      -6.053  12.578  65.635  1.00  0.00     4.408 C  
HETATM    2  C   UNL     1      -7.182  13.174  64.743  1.00  0.00    11.112 C  
HETATM    3  H1  UNL     1      -6.232  13.590  69.167  1.00  0.00     0.000 HD 
HETATM    4  H   UNL     1      -4.739  13.913  66.756  1.00  0.00     0.000 HD 
HETATM    5  C   UNL     1      -8.264  13.821  65.604  1.00  0.00     3.030 C  
HETATM    6  H2  UNL     1      -7.803  14.339  68.954  1.00  0.00     0.000 HD 
HETATM    7  N   UNL     1      -7.636  14.767  66.484  1.00  0.00    -0.044 NA 
HETATM    8  O   UNL     1      -9.206  14.499  64.805  1.00  0.00     0.383 OA 
HETATM    9  N   UNL     1      -5.707  13.625  66.608  1.00  0.00     1.470 NA 
HETATM   10  N   UNL     1      -6.920  14.024  68.552  1.00  0.00    -0.094 NA 
HETATM   11  H   UNL     1      -7.854  15.763  66.494  1.00  0.00     0.000 HD 
HETATM   12  C   UNL     1      -6.725  14.192  67.299  1.00  0.00     0.255 C  
HETATM   13  H   UNL     1      -9.880  14.901  65.341  1.00  0.00     0.000 HD 
ENDROOT
BRANCH   1  14
HETATM   14  C   UNL     1      -6.409  11.218  66.327  1.00  0.00    -0.048 C  
HETATM   15  N   UNL     1      -8.294   9.032  62.457  1.00  0.00    -0.182 N  
HETATM   16  O   UNL     1      -5.928  10.283  63.430  1.00  0.00    -0.135 OA 
HETATM   17  C   UNL     1      -6.693   9.728  64.207  1.00  0.00    -0.120 C  
HETATM   18  C   UNL     1      -7.457   7.414  64.083  1.00  0.00    -0.099 C  
HETATM   19  N   UNL     1     -11.846  12.756  65.313  1.00  0.00    -0.378 N  
HETATM   20  H   UNL     1      -7.690   9.542  65.953  1.00  0.00     0.000 HD 
HETATM   21  N   UNL     1      -6.977  10.106  65.489  1.00  0.00    -0.125 N  
HETATM   22  H   UNL     1      -7.803   9.310  61.607  1.00  0.00     0.000 HD 
HETATM   23  C   UNL     1      -7.573   8.660  63.609  1.00  0.00    -0.127 C  
HETATM   24  C   UNL     1      -9.698   9.013  62.494  1.00  0.00     1.687 C  
HETATM   25  O   UNL     1      -7.701  10.474  68.255  1.00  0.00    -0.096 OA 
HETATM   26  O   UNL     1     -10.361   7.986  62.612  1.00  0.00     5.553 OA 
HETATM   27  N   UNL     1      -8.383  12.435  67.312  1.00  0.00    -0.177 N  
HETATM   28  CA  UNL     1     -10.342  10.440  62.530  1.00  0.00     0.894 C  
HETATM   29  N   UNL     1     -11.793  10.504  62.814  1.00  0.00     1.437 N  
HETATM   30  C   UNL     1      -9.620  12.571  68.087  1.00  0.00    -0.215 C  
HETATM   31  CA  UNL     1     -10.616  13.510  67.349  1.00  0.00    -0.251 C  
HETATM   32  H   UNL     1      -8.156  13.168  66.639  1.00  0.00     0.000 HD 
HETATM   33  H   UNL     1     -12.384   9.673  62.815  1.00  0.00     0.000 HD 
HETATM   34  O   UNL     1     -12.634  12.149  67.357  1.00  0.00     0.285 OA 
HETATM   35  C   UNL     1     -12.302  11.784  63.081  1.00  0.00    -0.161 C  
HETATM   36  C   UNL     1     -11.764  12.712  66.692  1.00  0.00    -0.398 C  
HETATM   37  H   UNL     1     -11.172  13.334  64.811  1.00  0.00     0.000 HD 
HETATM   38  C   UNL     1      -7.508  11.375  67.437  1.00  0.00    -0.120 C  
HETATM   39  O   UNL     1     -12.026  12.732  62.342  1.00  0.00     1.019 OA 
HETATM   40  CA  UNL     1     -12.861  12.009  64.515  1.00  0.00     0.109 C  
BRANCH  18  41
HETATM   41  N   UNL     1      -7.997   6.317  63.457  1.00  0.00    -0.170 N  
HETATM   42  H   UNL     1      -7.841   6.203  62.456  1.00  0.00     0.000 HD 
BRANCH  41  43
HETATM   43  C   UNL     1      -8.731   5.374  64.113  1.00  0.00     0.031 C  
HETATM   44  H2  UNL     1      -8.446   6.431  65.905  1.00  0.00     0.000 HD 
HETATM   45  N   UNL     1      -8.859   5.621  65.442  1.00  0.00    -0.246 N  
HETATM   46  H1  UNL     1      -9.408   4.915  65.933  1.00  0.00     0.000 HD 
HETATM   47  O   UNL     1      -9.258   4.392  63.603  1.00  0.00    -0.145 OA 
ENDBRANCH  41  43
ENDBRANCH  18  41
BRANCH  28  48
HETATM   48  C   UNL     1      -9.635  11.186  63.680  1.00  0.00    -0.288 C  
HETATM   49  O   UNL     1     -10.394  11.108  64.895  1.00  0.00    -0.279 OA 
HETATM   50  H   UNL     1      -9.958  11.567  65.604  1.00  0.00     0.000 HD 
ENDBRANCH  28  48
BRANCH  40  51
HETATM   51  CB  UNL     1     -14.167  12.807  64.433  1.00  0.00     4.451 C  
HETATM   52  O   UNL     1     -14.305  13.766  65.483  1.00  0.00     1.760 OA 
HETATM   53  H   UNL     1     -15.115  14.261  65.432  1.00  0.00     0.000 HD 
ENDBRANCH  40  51
BRANCH  31  54
HETATM   54  N   UNL     1     -11.185  14.526  68.243  1.00  0.00    -0.265 N  
HETATM   55  H   UNL     1     -12.009  14.298  68.799  1.00  0.00     0.000 HD 
HETATM   56  O   UNL     1      -9.616  16.093  67.718  1.00  0.00    -0.221 OA 
HETATM   57  C   UNL     1     -10.626  15.783  68.346  1.00  0.00    -0.264 C  
BRANCH  57  58
HETATM   58  C   UNL     1     -11.358  16.716  69.306  1.00  0.00    -0.025 C  
BRANCH  58  59
HETATM   59  C   UNL     1     -10.519  17.151  70.527  1.00  0.00     1.052 C  
HETATM   60  H1  UNL     1     -10.631  18.539  72.045  1.00  0.00     0.000 HD 
HETATM   61  N   UNL     1     -11.185  18.252  71.239  1.00  0.00     2.439 NA 
HETATM   62  H2  UNL     1     -12.142  18.013  71.500  1.00  0.00     0.000 HD 
BRANCH  59  63
HETATM   63  C   UNL     1     -10.301  16.012  71.551  1.00  0.00     1.688 C  
BRANCH  63  64
HETATM   64  C   UNL     1     -11.137  16.165  72.827  1.00  0.00     1.108 C  
BRANCH  64  65
HETATM   65  C   UNL     1     -12.249  17.202  72.660  1.00  0.00     1.281 C  
HETATM   66  N   UNL     1     -13.547  16.537  72.716  1.00  0.00     0.407 NA 
HETATM   67  H2  UNL     1     -13.660  15.983  73.565  1.00  0.00     0.000 HD 
HETATM   68  H1  UNL     1     -14.288  17.228  72.605  1.00  0.00     0.000 HD 
ENDBRANCH  64  65
ENDBRANCH  63  64
ENDBRANCH  59  63
ENDBRANCH  58  59
ENDBRANCH  57  58
ENDBRANCH  31  54
ENDBRANCH   1  14
TORSDOF 11
ENDMDL
MODEL      105
REMARK 921   NORMALIZED FREE ENERGY PREDICTED BY IDOCK:   32.99 KCAL/MOL
REMARK 922        TOTAL FREE ENERGY PREDICTED BY IDOCK:   52.25 KCAL/MOL
REMARK 923 INTER-LIGAND FREE ENERGY PREDICTED BY IDOCK:   33.03 KCAL/MOL
REMARK 924 INTRA-LIGAND FREE ENERGY PREDICTED BY IDOCK:   19.22 KCAL/MOL
REMARK 927      BINDING AFFINITY PREDICTED BY RF-SCORE:    0.00 PKD
ROOT
HETATM    1  C   UNL     1     -12.289   5.829  65.261  1.00  0.00     5.315 C  
HETATM    2  C   UNL     1     -12.864   5.164  63.974  1.00  0.00     7.351 C  
HETATM    3  H1  UNL     1      -9.661   3.865  66.924  1.00  0.00     0.000 HD 
HETATM    4  H   UNL     1     -12.364   4.754  67.160  1.00  0.00     0.000 HD 
HETATM    5  C   UNL     1     -12.002   3.977  63.550  1.00  0.00     2.505 C  
HETATM    6  H2  UNL     1      -9.564   2.724  65.597  1.00  0.00     0.000 HD 
HETATM    7  N   UNL     1     -11.871   3.091  64.673  1.00  0.00     2.029 NA 
HETATM    8  O   UNL     1     -12.599   3.276  62.484  1.00  0.00     2.413 OA 
HETATM    9  N   UNL     1     -12.018   4.730  66.199  1.00  0.00     3.107 NA 
HETATM   10  N   UNL     1     -10.099   3.417  66.120  1.00  0.00     0.315 NA 
HETATM   11  H   UNL     1     -12.181   2.119  64.666  1.00  0.00     0.000 HD 
HETATM   12  C   UNL     1     -11.291   3.684  65.738  1.00  0.00     3.265 C  
HETATM   13  H   UNL     1     -12.063   2.538  62.220  1.00  0.00     0.000 HD 
ENDROOT
BRANCH   1  14
HETATM   14  C   UNL     1     -11.034   6.736  65.030  1.00  0.00     6.417 C  
HETATM   15  N   UNL     1      -7.720   3.225  65.064  1.00  0.00    -0.080 N  
HETATM   16  O   UNL     1     -10.086   4.101  63.742  1.00  0.00    -0.146 OA 
HETATM   17  C   UNL     1      -9.334   4.916  64.259  1.00  0.00     0.117 C  
HETATM   18  C   UNL     1      -6.949   5.174  63.812  1.00  0.00    -0.047 C  
HETATM   19  N   UNL     1      -9.559   5.101  70.331  1.00  0.00    -0.174 N  
HETATM   20  H   UNL     1      -8.913   6.597  65.296  1.00  0.00     0.000 HD 
HETATM   21  N   UNL     1      -9.688   6.084  64.874  1.00  0.00     1.035 N  
HETATM   22  H   UNL     1      -8.090   2.371  64.644  1.00  0.00     0.000 HD 
HETATM   23  C   UNL     1      -7.904   4.470  64.431  1.00  0.00    -0.086 C  
HETATM   24  C   UNL     1      -7.021   3.173  66.280  1.00  0.00    -0.054 C  
HETATM   25  O   UNL     1     -10.011   8.680  66.084  1.00  0.00    -0.260 OA 
HETATM   26  O   UNL     1      -5.825   3.436  66.389  1.00  0.00    -0.022 OA 
HETATM   27  N   UNL     1     -11.242   7.347  67.465  1.00  0.00    -0.509 N  
HETATM   28  CA  UNL     1      -7.939   2.901  67.519  1.00  0.00    -0.075 C  
HETATM   29  N   UNL     1      -7.319   3.073  68.852  1.00  0.00    -0.048 N  
HETATM   30  C   UNL     1     -10.854   8.000  68.718  1.00  0.00     0.057 C  
HETATM   31  CA  UNL     1     -11.078   7.038  69.919  1.00  0.00    -0.264 C  
HETATM   32  H   UNL     1     -11.897   6.566  67.514  1.00  0.00     0.000 HD 
HETATM   33  H   UNL     1      -6.313   3.189  68.974  1.00  0.00     0.000 HD 
HETATM   34  O   UNL     1      -8.917   7.166  71.030  1.00  0.00    -0.148 OA 
HETATM   35  C   UNL     1      -8.207   3.063  69.939  1.00  0.00    -0.044 C  
HETATM   36  C   UNL     1      -9.742   6.466  70.443  1.00  0.00    -0.165 C  
HETATM   37  H   UNL     1     -10.323   4.545  69.944  1.00  0.00     0.000 HD 
HETATM   38  C   UNL     1     -10.775   7.724  66.222  1.00  0.00     1.073 C  
HETATM   39  O   UNL     1      -9.063   2.181  70.038  1.00  0.00    -0.087 OA 
HETATM   40  CA  UNL     1      -8.314   4.391  70.742  1.00  0.00    -0.079 C  
BRANCH  18  41
HETATM   41  N   UNL     1      -5.658   4.729  63.671  1.00  0.00    -0.016 N  
HETATM   42  H   UNL     1      -4.914   5.419  63.568  1.00  0.00     0.000 HD 
BRANCH  41  43
HETATM   43  C   UNL     1      -5.325   3.407  63.663  1.00  0.00    -0.009 C  
HETATM   44  H2  UNL     1      -5.244   3.462  61.566  1.00  0.00     0.000 HD 
HETATM   45  N   UNL     1      -5.142   2.906  62.415  1.00  0.00    -0.004 N  
HETATM   46  H1  UNL     1      -4.893   1.917  62.409  1.00  0.00     0.000 HD 
HETATM   47  O   UNL     1      -5.178   2.699  64.653  1.00  0.00    -0.008 OA 
ENDBRANCH  41  43
ENDBRANCH  18  41
BRANCH  28  48
HETATM   48  C   UNL     1      -9.078   3.936  67.427  1.00  0.00    -0.156 C  
HETATM   49  O   UNL     1      -8.574   5.276  67.531  1.00  0.00    -0.106 OA 
HETATM   50  H   UNL     1      -9.276   5.913  67.474  1.00  0.00     0.000 HD 
ENDBRANCH  28  48
BRANCH  40  51
HETATM   51  CB  UNL     1      -8.350   4.077  72.242  1.00  0.00    -0.098 C  
HETATM   52  O   UNL     1      -9.580   3.481  72.660  1.00  0.00    -0.122 OA 
HETATM   53  H   UNL     1      -9.601   3.286  73.590  1.00  0.00     0.000 HD 
ENDBRANCH  40  51
BRANCH  31  54
HETATM   54  N   UNL     1     -11.791   7.688  71.025  1.00  0.00    -0.305 N  
HETATM   55  H   UNL     1     -11.803   7.242  71.942  1.00  0.00     0.000 HD 
HETATM   56  O   UNL     1     -12.434   9.477  69.767  1.00  0.00     0.527 OA 
HETATM   57  C   UNL     1     -12.446   8.890  70.847  1.00  0.00    -0.045 C  
BRANCH  57  58
HETATM   58  C   UNL     1     -13.149   9.409  72.098  1.00  0.00    -0.526 C  
BRANCH  58  59
HETATM   59  C   UNL     1     -13.632  10.870  71.989  1.00  0.00    -0.050 C  
HETATM   60  H1  UNL     1     -13.593  12.585  73.132  1.00  0.00     0.000 HD 
HETATM   61  N   UNL     1     -13.274  11.619  73.204  1.00  0.00     1.918 NA 
HETATM   62  H2  UNL     1     -12.275  11.562  73.405  1.00  0.00     0.000 HD 
BRANCH  59  63
HETATM   63  C   UNL     1     -13.014  11.627  70.790  1.00  0.00    -0.065 C  
BRANCH  63  64
HETATM   64  C   UNL     1     -13.255  13.140  70.829  1.00  0.00     0.173 C  
BRANCH  64  65
HETATM   65  C   UNL     1     -11.979  13.929  70.530  1.00  0.00    -0.314 C  
HETATM   66  N   UNL     1     -12.131  14.640  69.265  1.00  0.00    -0.478 NA 
HETATM   67  H2  UNL     1     -12.962  15.231  69.252  1.00  0.00     0.000 HD 
HETATM   68  H1  UNL     1     -11.280  15.166  69.066  1.00  0.00     0.000 HD 
ENDBRANCH  64  65
ENDBRANCH  63  64
ENDBRANCH  59  63
ENDBRANCH  58  59
ENDBRANCH  57  58
ENDBRANCH  31  54
ENDBRANCH   1  14
TORSDOF 11
ENDMDL
MODEL      106
REMARK 921   NORMALIZED FREE ENERGY PREDICTED BY IDOCK:   33.03 KCAL/MOL
REMARK 922        TOTAL FREE ENERGY PREDICTED BY IDOCK:   52.32 KCAL/MOL
REMARK 923 INTER-LIGAND FREE ENERGY PREDICTED BY IDOCK:   42.62 KCAL/MOL
REMARK 924 INTRA-LIGAND FREE ENERGY PREDICTED BY IDOCK:    9.70 KCAL/MOL
REMARK 927      BINDING AFFINITY PREDICTED BY RF-SCORE:    0.00 PKD
ROOT
HETATM    1  C   UNL     1      -7.613  13.398  66.734  1.00  0.00     0.653 C  
HETATM    2  C   UNL     1      -6.533  13.130  67.823  1.00  0.00    -0.153 C  
HETATM    3  H1  UNL     1      -8.491  10.445  64.724  1.00  0.00     0.000 HD 
HETATM    4  H   UNL     1      -7.168  12.973  64.639  1.00  0.00     0.000 HD 
HETATM    5  C   UNL     1      -6.291  11.632  67.985  1.00  0.00    -0.047 C  
HETATM    6  H2  UNL     1      -7.571   9.370  65.760  1.00  0.00     0.000 HD 
HETATM    7  N   UNL     1      -5.987  11.081  66.692  1.00  0.00    -0.099 NA 
HETATM    8  O   UNL     1      -5.207  11.386  68.851  1.00  0.00    -0.041 OA 
HETATM    9  N   UNL     1      -7.237  12.573  65.576  1.00  0.00     3.003 NA 
HETATM   10  N   UNL     1      -7.736  10.308  65.396  1.00  0.00    -0.144 NA 
HETATM   11  H   UNL     1      -5.111  10.606  66.472  1.00  0.00     0.000 HD 
HETATM   12  C   UNL     1      -6.986  11.262  65.803  1.00  0.00     0.314 C  
HETATM   13  H   UNL     1      -5.057  10.453  68.952  1.00  0.00     0.000 HD 
ENDROOT
BRANCH   1  14
HETATM   14  C   UNL     1      -9.089  13.141  67.192  1.00  0.00    -0.230 C  
HETATM   15  N   UNL     1      -9.010  15.943  71.124  1.00  0.00     3.024 N  
HETATM   16  O   UNL     1      -8.625  15.979  68.302  1.00  0.00    -0.171 OA 
HETATM   17  C   UNL     1      -9.387  15.166  68.807  1.00  0.00    -0.200 C  
HETATM   18  C   UNL     1     -11.279  15.665  70.265  1.00  0.00    -0.344 C  
HETATM   19  N   UNL     1      -6.658  10.580  71.717  1.00  0.00     1.273 N  
HETATM   20  H   UNL     1     -10.246  13.347  68.982  1.00  0.00     0.000 HD 
HETATM   21  N   UNL     1      -9.616  13.886  68.387  1.00  0.00    -0.218 N  
HETATM   22  H   UNL     1      -8.426  16.766  70.972  1.00  0.00     0.000 HD 
HETATM   23  C   UNL     1      -9.951  15.545  70.153  1.00  0.00    -0.064 C  
HETATM   24  C   UNL     1      -8.885  15.191  72.303  1.00  0.00     6.915 C  
HETATM   25  O   UNL     1     -10.491  11.221  67.724  1.00  0.00    -0.176 OA 
HETATM   26  O   UNL     1      -9.770  15.109  73.153  1.00  0.00     4.862 OA 
HETATM   27  N   UNL     1      -8.254  10.926  68.053  1.00  0.00    -0.117 N  
HETATM   28  CA  UNL     1      -7.576  14.336  72.365  1.00  0.00     5.638 C  
HETATM   29  N   UNL     1      -7.488  13.338  73.455  1.00  0.00     6.796 N  
HETATM   30  C   UNL     1      -8.354   9.631  68.732  1.00  0.00    -0.111 C  
HETATM   31  CA  UNL     1      -7.075   9.366  69.577  1.00  0.00    -0.062 C  
HETATM   32  H   UNL     1      -7.324  11.317  67.902  1.00  0.00     0.000 HD 
HETATM   33  H   UNL     1      -8.153  13.317  74.228  1.00  0.00     0.000 HD 
HETATM   34  O   UNL     1      -8.049   8.782  71.729  1.00  0.00    -0.252 OA 
HETATM   35  C   UNL     1      -6.429  12.423  73.355  1.00  0.00     5.043 C  
HETATM   36  C   UNL     1      -7.344   9.559  71.086  1.00  0.00     0.136 C  
HETATM   37  H   UNL     1      -5.993  11.123  71.166  1.00  0.00     0.000 HD 
HETATM   38  C   UNL     1      -9.342  11.649  67.607  1.00  0.00    -0.178 C  
HETATM   39  O   UNL     1      -5.284  12.817  73.119  1.00  0.00    -0.367 OA 
HETATM   40  CA  UNL     1      -6.832  10.934  73.156  1.00  0.00     5.817 C  
BRANCH  18  41
HETATM   41  N   UNL     1     -11.893  16.252  71.344  1.00  0.00    -0.644 N  
HETATM   42  H   UNL     1     -12.212  17.217  71.257  1.00  0.00     0.000 HD 
BRANCH  41  43
HETATM   43  C   UNL     1     -12.096  15.604  72.526  1.00  0.00    -0.462 C  
HETATM   44  H2  UNL     1     -11.417  13.825  71.642  1.00  0.00     0.000 HD 
HETATM   45  N   UNL     1     -11.775  14.286  72.479  1.00  0.00     0.248 N  
HETATM   46  H1  UNL     1     -11.927  13.801  73.364  1.00  0.00     0.000 HD 
HETATM   47  O   UNL     1     -12.511  16.114  73.561  1.00  0.00    -0.480 OA 
ENDBRANCH  41  43
ENDBRANCH  18  41
BRANCH  28  48
HETATM   48  C   UNL     1      -7.531  13.547  71.042  1.00  0.00     4.005 C  
HETATM   49  O   UNL     1      -6.321  12.783  70.931  1.00  0.00    -0.479 OA 
HETATM   50  H   UNL     1      -6.293  12.297  70.116  1.00  0.00     0.000 HD 
ENDBRANCH  28  48
BRANCH  40  51
HETATM   51  CB  UNL     1      -5.945  10.045  74.034  1.00  0.00     0.752 C  
HETATM   52  O   UNL     1      -6.407   8.695  74.111  1.00  0.00    -0.126 OA 
HETATM   53  H   UNL     1      -5.857   8.144  74.656  1.00  0.00     0.000 HD 
ENDBRANCH  40  51
BRANCH  31  54
HETATM   54  N   UNL     1      -6.531   8.022  69.352  1.00  0.00    -0.035 N  
HETATM   55  H   UNL     1      -6.576   7.333  70.103  1.00  0.00     0.000 HD 
HETATM   56  O   UNL     1      -5.914   8.459  67.202  1.00  0.00    -0.051 OA 
HETATM   57  C   UNL     1      -5.962   7.672  68.144  1.00  0.00    -0.039 C  
BRANCH  57  58
HETATM   58  C   UNL     1      -5.432   6.242  68.095  1.00  0.00    -0.008 C  
BRANCH  58  59
HETATM   59  C   UNL     1      -6.048   5.379  66.973  1.00  0.00    -0.030 C  
HETATM   60  H1  UNL     1      -5.595   4.833  65.038  1.00  0.00     0.000 HD 
HETATM   61  N   UNL     1      -5.188   5.403  65.780  1.00  0.00    -0.012 NA 
HETATM   62  H2  UNL     1      -4.231   5.122  65.994  1.00  0.00     0.000 HD 
BRANCH  59  63
HETATM   63  C   UNL     1      -6.227   3.896  67.375  1.00  0.00    -0.036 C  
BRANCH  63  64
HETATM   64  C   UNL     1      -7.692   3.472  67.521  1.00  0.00    -0.077 C  
BRANCH  64  65
HETATM   65  C   UNL     1      -7.892   1.988  67.209  1.00  0.00    -0.065 C  
HETATM   66  N   UNL     1      -9.318   1.699  67.109  1.00  0.00    -0.347 NA 
HETATM   67  H2  UNL     1      -9.787   2.301  66.432  1.00  0.00     0.000 HD 
HETATM   68  H1  UNL     1      -9.451   0.710  66.901  1.00  0.00     0.000 HD 
ENDBRANCH  64  65
ENDBRANCH  63  64
ENDBRANCH  59  63
ENDBRANCH  58  59
ENDBRANCH  57  58
ENDBRANCH  31  54
ENDBRANCH   1  14
TORSDOF 11
ENDMDL
MODEL      107
REMARK 921   NORMALIZED FREE ENERGY PREDICTED BY IDOCK:   34.95 KCAL/MOL
REMARK 922        TOTAL FREE ENERGY PREDICTED BY IDOCK:   55.46 KCAL/MOL
REMARK 923 INTER-LIGAND FREE ENERGY PREDICTED BY IDOCK:   48.55 KCAL/MOL
REMARK 924 INTRA-LIGAND FREE ENERGY PREDICTED BY IDOCK:    6.92 KCAL/MOL
REMARK 927      BINDING AFFINITY PREDICTED BY RF-SCORE:    0.00 PKD
ROOT
HETATM    1  C   UNL     1      -8.098  12.919  65.178  1.00  0.00     3.964 C  
HETATM    2  C   UNL     1      -6.998  12.808  66.276  1.00  0.00     2.104 C  
HETATM    3  H1  UNL     1     -10.910  10.590  65.624  1.00  0.00     0.000 HD 
HETATM    4  H   UNL     1      -8.633  11.160  64.000  1.00  0.00     0.000 HD 
HETATM    5  C   UNL     1      -7.483  11.945  67.439  1.00  0.00    -0.148 C  
HETATM    6  H2  UNL     1     -10.353  10.098  67.212  1.00  0.00     0.000 HD 
HETATM    7  N   UNL     1      -7.930  10.686  66.911  1.00  0.00    -0.120 NA 
HETATM    8  O   UNL     1      -6.443  11.710  68.360  1.00  0.00    -0.050 OA 
HETATM    9  N   UNL     1      -8.577  11.549  64.943  1.00  0.00     0.375 NA 
HETATM   10  N   UNL     1     -10.147  10.487  66.292  1.00  0.00    -0.224 NA 
HETATM   11  H   UNL     1      -7.527   9.786  67.176  1.00  0.00     0.000 HD 
HETATM   12  C   UNL     1      -8.941  10.823  66.027  1.00  0.00    -0.181 C  
HETATM   13  H   UNL     1      -6.745  11.174  69.083  1.00  0.00     0.000 HD 
ENDROOT
BRANCH   1  14
HETATM   14  C   UNL     1      -9.266  13.907  65.513  1.00  0.00     0.575 C  
HETATM   15  N   UNL     1      -6.583  17.361  67.560  1.00  0.00    -0.140 N  
HETATM   16  O   UNL     1      -6.925  15.880  65.151  1.00  0.00     5.054 OA 
HETATM   17  C   UNL     1      -7.882  16.084  65.887  1.00  0.00     1.039 C  
HETATM   18  C   UNL     1      -8.672  18.257  66.666  1.00  0.00    -0.277 C  
HETATM   19  N   UNL     1      -7.936  12.764  70.978  1.00  0.00     6.553 N  
HETATM   20  H   UNL     1      -9.601  15.575  66.815  1.00  0.00     0.000 HD 
HETATM   21  N   UNL     1      -8.933  15.243  66.118  1.00  0.00    -0.283 N  
HETATM   22  H   UNL     1      -5.674  17.434  67.102  1.00  0.00     0.000 HD 
HETATM   23  C   UNL     1      -7.764  17.282  66.795  1.00  0.00    -0.244 C  
HETATM   24  C   UNL     1      -6.674  17.337  68.961  1.00  0.00    -0.238 C  
HETATM   25  O   UNL     1     -11.376  13.840  66.730  1.00  0.00    -0.311 OA 
HETATM   26  O   UNL     1      -7.196  18.230  69.624  1.00  0.00     0.046 OA 
HETATM   27  N   UNL     1      -9.784  12.370  67.440  1.00  0.00    -0.191 N  
HETATM   28  CA  UNL     1      -6.189  15.990  69.596  1.00  0.00    -0.182 C  
HETATM   29  N   UNL     1      -6.478  15.796  71.035  1.00  0.00     0.846 N  
HETATM   30  C   UNL     1     -10.492  11.927  68.645  1.00  0.00    -0.212 C  
HETATM   31  CA  UNL     1      -9.489  11.319  69.665  1.00  0.00     0.776 C  
HETATM   32  H   UNL     1      -8.876  11.952  67.237  1.00  0.00     0.000 HD 
HETATM   33  H   UNL     1      -6.814  16.553  71.629  1.00  0.00     0.000 HD 
HETATM   34  O   UNL     1     -10.083  12.536  71.687  1.00  0.00     9.214 OA 
HETATM   35  C   UNL     1      -6.257  14.501  71.527  1.00  0.00     0.296 C  
HETATM   36  C   UNL     1      -9.224  12.284  70.842  1.00  0.00     9.655 C  
HETATM   37  H   UNL     1      -7.228  12.433  70.322  1.00  0.00     0.000 HD 
HETATM   38  C   UNL     1     -10.271  13.320  66.565  1.00  0.00    -0.283 C  
HETATM   39  O   UNL     1      -5.204  13.909  71.276  1.00  0.00    -0.126 OA 
HETATM   40  CA  UNL     1      -7.517  13.738  72.028  1.00  0.00     6.230 C  
BRANCH  18  41
HETATM   41  N   UNL     1      -8.528  19.499  67.235  1.00  0.00    -0.290 N  
HETATM   42  H   UNL     1      -7.586  19.863  67.376  1.00  0.00     0.000 HD 
BRANCH  41  43
HETATM   43  C   UNL     1      -9.587  20.267  67.620  1.00  0.00    -0.395 C  
HETATM   44  H2  UNL     1      -9.871  19.006  69.274  1.00  0.00     0.000 HD 
HETATM   45  N   UNL     1     -10.184  19.828  68.758  1.00  0.00    -0.561 N  
HETATM   46  H1  UNL     1     -10.976  20.403  69.046  1.00  0.00     0.000 HD 
HETATM   47  O   UNL     1      -9.993  21.269  67.043  1.00  0.00     0.101 OA 
ENDBRANCH  41  43
ENDBRANCH  18  41
BRANCH  28  48
HETATM   48  C   UNL     1      -6.943  14.879  68.841  1.00  0.00    -0.112 C  
HETATM   49  O   UNL     1      -8.345  15.172  68.747  1.00  0.00    -0.153 OA 
HETATM   50  H   UNL     1      -8.811  14.487  68.282  1.00  0.00     0.000 HD 
ENDBRANCH  28  48
BRANCH  40  51
HETATM   51  CB  UNL     1      -7.184  13.005  73.332  1.00  0.00     8.184 C  
HETATM   52  O   UNL     1      -5.780  12.836  73.537  1.00  0.00     0.250 OA 
HETATM   53  H   UNL     1      -5.574  12.382  74.346  1.00  0.00     0.000 HD 
ENDBRANCH  40  51
BRANCH  31  54
HETATM   54  N   UNL     1      -9.950  10.029  70.193  1.00  0.00    -0.380 N  
HETATM   55  H   UNL     1     -10.880   9.692  69.947  1.00  0.00     0.000 HD 
HETATM   56  O   UNL     1      -8.009   9.616  71.315  1.00  0.00    -0.235 OA 
HETATM   57  C   UNL     1      -9.148   9.264  71.015  1.00  0.00    -0.183 C  
BRANCH  57  58
HETATM   58  C   UNL     1      -9.795   7.965  71.486  1.00  0.00    -0.206 C  
BRANCH  58  59
HETATM   59  C   UNL     1      -9.713   6.812  70.462  1.00  0.00    -0.176 C  
HETATM   60  H1  UNL     1     -11.004   5.548  69.472  1.00  0.00     0.000 HD 
HETATM   61  N   UNL     1     -11.059   6.310  70.148  1.00  0.00    -0.344 NA 
HETATM   62  H2  UNL     1     -11.679   7.057  69.832  1.00  0.00     0.000 HD 
BRANCH  59  63
HETATM   63  C   UNL     1      -9.059   7.232  69.125  1.00  0.00    -0.137 C  
BRANCH  63  64
HETATM   64  C   UNL     1      -9.128   6.151  68.041  1.00  0.00    -0.114 C  
BRANCH  64  65
HETATM   65  C   UNL     1      -8.029   6.322  66.991  1.00  0.00    -0.109 C  
HETATM   66  N   UNL     1      -8.207   7.597  66.304  1.00  0.00    -0.114 NA 
HETATM   67  H2  UNL     1      -8.246   8.383  66.953  1.00  0.00     0.000 HD 
HETATM   68  H1  UNL     1      -7.474   7.711  65.604  1.00  0.00     0.000 HD 
ENDBRANCH  64  65
ENDBRANCH  63  64
ENDBRANCH  59  63
ENDBRANCH  58  59
ENDBRANCH  57  58
ENDBRANCH  31  54
ENDBRANCH   1  14
TORSDOF 11
ENDMDL
MODEL      108
REMARK 921   NORMALIZED FREE ENERGY PREDICTED BY IDOCK:   39.37 KCAL/MOL
REMARK 922        TOTAL FREE ENERGY PREDICTED BY IDOCK:   62.73 KCAL/MOL
REMARK 923 INTER-LIGAND FREE ENERGY PREDICTED BY IDOCK:   50.02 KCAL/MOL
REMARK 924 INTRA-LIGAND FREE ENERGY PREDICTED BY IDOCK:   12.71 KCAL/MOL
REMARK 927      BINDING AFFINITY PREDICTED BY RF-SCORE:    0.00 PKD
ROOT
HETATM    1  C   UNL     1      -6.094  11.268  72.854  1.00  0.00     2.981 C  
HETATM    2  C   UNL     1      -7.598  11.575  73.116  1.00  0.00    15.366 C  
HETATM    3  H1  UNL     1      -5.468   7.965  71.362  1.00  0.00     0.000 HD 
HETATM    4  H   UNL     1      -5.177   9.501  73.750  1.00  0.00     0.000 HD 
HETATM    5  C   UNL     1      -8.487  10.538  72.433  1.00  0.00     9.112 C  
HETATM    6  H2  UNL     1      -7.177   7.678  71.089  1.00  0.00     0.000 HD 
HETATM    7  N   UNL     1      -8.061   9.232  72.854  1.00  0.00     0.578 NA 
HETATM    8  O   UNL     1      -9.837  10.715  72.794  1.00  0.00     7.890 OA 
HETATM    9  N   UNL     1      -5.917   9.835  73.131  1.00  0.00    -0.100 NA 
HETATM   10  N   UNL     1      -6.440   8.158  71.606  1.00  0.00    -0.043 NA 
HETATM   11  H   UNL     1      -8.664   8.570  73.342  1.00  0.00     0.000 HD 
HETATM   12  C   UNL     1      -6.775   8.976  72.531  1.00  0.00     0.228 C  
HETATM   13  H   UNL     1     -10.390  10.069  72.369  1.00  0.00     0.000 HD 
ENDROOT
BRANCH   1  14
HETATM   14  C   UNL     1      -5.578  11.666  71.429  1.00  0.00     0.228 C  
HETATM   15  N   UNL     1      -8.684  15.278  70.638  1.00  0.00     0.749 N  
HETATM   16  O   UNL     1      -6.663  14.373  72.429  1.00  0.00     0.851 OA 
HETATM   17  C   UNL     1      -6.630  14.045  71.250  1.00  0.00     0.889 C  
HETATM   18  C   UNL     1      -6.640  15.547  69.328  1.00  0.00    -0.147 C  
HETATM   19  N   UNL     1     -10.726   9.846  69.659  1.00  0.00    -0.236 N  
HETATM   20  H   UNL     1      -6.305  12.753  69.733  1.00  0.00     0.000 HD 
HETATM   21  N   UNL     1      -6.194  12.853  70.743  1.00  0.00     0.219 N  
HETATM   22  H   UNL     1      -8.890  15.777  71.504  1.00  0.00     0.000 HD 
HETATM   23  C   UNL     1      -7.354  14.961  70.296  1.00  0.00     0.340 C  
HETATM   24  C   UNL     1      -9.721  14.900  69.771  1.00  0.00     0.104 C  
HETATM   25  O   UNL     1      -5.215  10.568  69.285  1.00  0.00    -0.039 OA 
HETATM   26  O   UNL     1      -9.869  15.368  68.644  1.00  0.00    -0.197 OA 
HETATM   27  N   UNL     1      -6.833   9.645  70.600  1.00  0.00    -0.119 N  
HETATM   28  CA  UNL     1     -10.584  13.709  70.309  1.00  0.00     1.361 C  
HETATM   29  N   UNL     1     -11.535  13.097  69.354  1.00  0.00    -0.358 N  
HETATM   30  C   UNL     1      -7.351   8.711  69.596  1.00  0.00    -0.056 C  
HETATM   31  CA  UNL     1      -8.802   8.285  69.957  1.00  0.00    -0.134 C  
HETATM   32  H   UNL     1      -7.260   9.639  71.526  1.00  0.00     0.000 HD 
HETATM   33  H   UNL     1     -11.752  13.524  68.454  1.00  0.00     0.000 HD 
HETATM   34  O   UNL     1      -9.950   8.705  67.853  1.00  0.00    -0.170 OA 
HETATM   35  C   UNL     1     -12.119  11.891  69.770  1.00  0.00    -0.252 C  
HETATM   36  C   UNL     1      -9.839   8.981  69.047  1.00  0.00    -0.175 C  
HETATM   37  H   UNL     1     -10.672   9.951  70.673  1.00  0.00     0.000 HD 
HETATM   38  C   UNL     1      -5.800  10.532  70.368  1.00  0.00    -0.101 C  
HETATM   39  O   UNL     1     -12.608  11.791  70.898  1.00  0.00    -0.349 OA 
HETATM   40  CA  UNL     1     -11.760  10.634  68.927  1.00  0.00    -0.211 C  
BRANCH  18  41
HETATM   41  N   UNL     1      -7.115  16.590  68.570  1.00  0.00    -0.156 N  
HETATM   42  H   UNL     1      -8.045  16.956  68.774  1.00  0.00     0.000 HD 
BRANCH  41  43
HETATM   43  C   UNL     1      -6.399  17.159  67.559  1.00  0.00    -0.144 C  
HETATM   44  H2  UNL     1      -4.899  15.718  67.839  1.00  0.00     0.000 HD 
HETATM   45  N   UNL     1      -5.220  16.533  67.316  1.00  0.00    -0.133 N  
HETATM   46  H1  UNL     1      -4.684  16.958  66.559  1.00  0.00     0.000 HD 
HETATM   47  O   UNL     1      -6.745  18.128  66.893  1.00  0.00    -0.178 OA 
ENDBRANCH  41  43
ENDBRANCH  18  41
BRANCH  28  48
HETATM   48  C   UNL     1      -9.577  12.608  70.695  1.00  0.00     6.948 C  
HETATM   49  O   UNL     1      -9.353  11.702  69.604  1.00  0.00     0.179 OA 
HETATM   50  H   UNL     1      -8.733  11.023  69.842  1.00  0.00     0.000 HD 
ENDBRANCH  28  48
BRANCH  40  51
HETATM   51  CB  UNL     1     -13.020   9.789  68.710  1.00  0.00     4.563 C  
HETATM   52  O   UNL     1     -13.335   8.956  69.827  1.00  0.00     1.732 OA 
HETATM   53  H   UNL     1     -14.117   8.432  69.692  1.00  0.00     0.000 HD 
ENDBRANCH  40  51
BRANCH  31  54
HETATM   54  N   UNL     1      -8.989   6.831  69.877  1.00  0.00    -0.144 N  
HETATM   55  H   UNL     1      -8.776   6.348  69.004  1.00  0.00     0.000 HD 
HETATM   56  O   UNL     1      -9.686   6.642  72.038  1.00  0.00    -0.154 OA 
HETATM   57  C   UNL     1      -9.445   6.106  70.959  1.00  0.00    -0.171 C  
BRANCH  57  58
HETATM   58  C   UNL     1      -9.598   4.612  70.690  1.00  0.00    -0.261 C  
BRANCH  58  59
HETATM   59  C   UNL     1      -8.642   4.065  69.609  1.00  0.00    -0.068 C  
HETATM   60  H1  UNL     1      -7.705   4.747  67.905  1.00  0.00     0.000 HD 
HETATM   61  N   UNL     1      -8.336   5.109  68.620  1.00  0.00    -0.089 NA 
HETATM   62  H2  UNL     1      -7.970   5.954  69.059  1.00  0.00     0.000 HD 
BRANCH  59  63
HETATM   63  C   UNL     1      -7.292   3.573  70.184  1.00  0.00    -0.041 C  
BRANCH  63  64
HETATM   64  C   UNL     1      -6.449   2.780  69.179  1.00  0.00    -0.029 C  
BRANCH  64  65
HETATM   65  C   UNL     1      -5.565   3.693  68.328  1.00  0.00    -0.018 C  
HETATM   66  N   UNL     1      -5.840   3.459  66.915  1.00  0.00    -0.023 NA 
HETATM   67  H2  UNL     1      -6.830   3.564  66.692  1.00  0.00     0.000 HD 
HETATM   68  H1  UNL     1      -5.251   4.068  66.348  1.00  0.00     0.000 HD 
ENDBRANCH  64  65
ENDBRANCH  63  64
ENDBRANCH  59  63
ENDBRANCH  58  59
ENDBRANCH  57  58
ENDBRANCH  31  54
ENDBRANCH   1  14
TORSDOF 11
ENDMDL
MODEL      109
REMARK 921   NORMALIZED FREE ENERGY PREDICTED BY IDOCK:   39.76 KCAL/MOL
REMARK 922        TOTAL FREE ENERGY PREDICTED BY IDOCK:   63.38 KCAL/MOL
REMARK 923 INTER-LIGAND FREE ENERGY PREDICTED BY IDOCK:   44.46 KCAL/MOL
REMARK 924 INTRA-LIGAND FREE ENERGY PREDICTED BY IDOCK:   18.92 KCAL/MOL
REMARK 927      BINDING AFFINITY PREDICTED BY RF-SCORE:    0.00 PKD
ROOT
HETATM    1  C   UNL     1      -6.959  11.328  70.974  1.00  0.00     2.500 C  
HETATM    2  C   UNL     1      -6.840  12.581  71.892  1.00  0.00     5.760 C  
HETATM    3  H1  UNL     1      -9.370  11.700  68.222  1.00  0.00     0.000 HD 
HETATM    4  H   UNL     1      -8.899  10.366  70.701  1.00  0.00     0.000 HD 
HETATM    5  C   UNL     1      -7.554  13.777  71.266  1.00  0.00     4.662 C  
HETATM    6  H2  UNL     1      -9.591  13.410  68.543  1.00  0.00     0.000 HD 
HETATM    7  N   UNL     1      -8.902  13.387  70.958  1.00  0.00     6.843 NA 
HETATM    8  O   UNL     1      -7.587  14.867  72.158  1.00  0.00     2.425 OA 
HETATM    9  N   UNL     1      -8.376  11.236  70.593  1.00  0.00     3.032 NA 
HETATM   10  N   UNL     1      -9.328  12.482  68.875  1.00  0.00     0.166 NA 
HETATM   11  H   UNL     1      -9.727  13.843  71.350  1.00  0.00     0.000 HD 
HETATM   12  C   UNL     1      -8.959  12.352  70.093  1.00  0.00     4.228 C  
HETATM   13  H   UNL     1      -8.031  15.611  71.768  1.00  0.00     0.000 HD 
ENDROOT
BRANCH   1  14
HETATM   14  C   UNL     1      -6.008  11.330  69.729  1.00  0.00    -0.103 C  
HETATM   15  N   UNL     1      -7.681  15.370  67.682  1.00  0.00    -0.145 N  
HETATM   16  O   UNL     1      -6.516  14.351  70.073  1.00  0.00    -0.151 OA 
HETATM   17  C   UNL     1      -6.276  13.817  68.998  1.00  0.00    -0.095 C  
HETATM   18  C   UNL     1      -5.379  14.908  67.008  1.00  0.00     1.135 C  
HETATM   19  N   UNL     1     -10.831  10.490  66.732  1.00  0.00    -0.190 N  
HETATM   20  H   UNL     1      -5.947  12.234  67.789  1.00  0.00     0.000 HD 
HETATM   21  N   UNL     1      -6.074  12.485  68.770  1.00  0.00    -0.066 N  
HETATM   22  H   UNL     1      -7.954  16.051  68.392  1.00  0.00     0.000 HD 
HETATM   23  C   UNL     1      -6.450  14.691  67.781  1.00  0.00    -0.164 C  
HETATM   24  C   UNL     1      -8.526  15.098  66.595  1.00  0.00    -0.195 C  
HETATM   25  O   UNL     1      -5.429   9.809  67.916  1.00  0.00    -0.040 OA 
HETATM   26  O   UNL     1      -8.246  15.377  65.431  1.00  0.00     2.030 OA 
HETATM   27  N   UNL     1      -7.519   9.547  68.789  1.00  0.00    -0.074 N  
HETATM   28  CA  UNL     1      -9.792  14.262  66.980  1.00  0.00    -0.254 C  
HETATM   29  N   UNL     1     -10.600  13.731  65.859  1.00  0.00    -0.284 N  
HETATM   30  C   UNL     1      -8.003   8.597  67.783  1.00  0.00    -0.107 C  
HETATM   31  CA  UNL     1      -9.557   8.598  67.746  1.00  0.00    -0.148 C  
HETATM   32  H   UNL     1      -8.153   9.809  69.544  1.00  0.00     0.000 HD 
HETATM   33  H   UNL     1     -10.453  14.027  64.894  1.00  0.00     0.000 HD 
HETATM   34  O   UNL     1      -9.968   8.893  65.365  1.00  0.00     0.115 OA 
HETATM   35  C   UNL     1     -11.581  12.792  66.211  1.00  0.00    -0.379 C  
HETATM   36  C   UNL     1     -10.093   9.344  66.503  1.00  0.00    -0.262 C  
HETATM   37  H   UNL     1     -11.009  10.760  67.700  1.00  0.00     0.000 HD 
HETATM   38  C   UNL     1      -6.258  10.108  68.777  1.00  0.00    -0.047 C  
HETATM   39  O   UNL     1     -12.350  13.016  67.150  1.00  0.00    -0.303 OA 
HETATM   40  CA  UNL     1     -11.383  11.355  65.650  1.00  0.00     0.001 C  
BRANCH  18  41
HETATM   41  N   UNL     1      -5.337  15.880  66.038  1.00  0.00     2.643 N  
HETATM   42  H   UNL     1      -4.744  15.727  65.222  1.00  0.00     0.000 HD 
BRANCH  41  43
HETATM   43  C   UNL     1      -6.051  17.039  66.116  1.00  0.00     0.216 C  
HETATM   44  H2  UNL     1      -5.630  17.134  68.170  1.00  0.00     0.000 HD 
HETATM   45  N   UNL     1      -6.089  17.564  67.367  1.00  0.00    -0.132 N  
HETATM   46  H1  UNL     1      -6.624  18.431  67.425  1.00  0.00     0.000 HD 
HETATM   47  O   UNL     1      -6.609  17.601  65.181  1.00  0.00     0.031 OA 
ENDBRANCH  41  43
ENDBRANCH  18  41
BRANCH  28  48
HETATM   48  C   UNL     1      -9.264  13.042  67.759  1.00  0.00    -0.200 C  
HETATM   49  O   UNL     1      -8.538  12.150  66.900  1.00  0.00    -0.191 OA 
HETATM   50  H   UNL     1      -8.212  11.398  67.380  1.00  0.00     0.000 HD 
ENDBRANCH  28  48
BRANCH  40  51
HETATM   51  CB  UNL     1     -12.729  10.808  65.164  1.00  0.00     5.551 C  
HETATM   52  O   UNL     1     -12.598   9.849  64.113  1.00  0.00     6.947 OA 
HETATM   53  H   UNL     1     -13.434   9.510  63.813  1.00  0.00     0.000 HD 
ENDBRANCH  40  51
BRANCH  31  54
HETATM   54  N   UNL     1     -10.113   7.240  67.770  1.00  0.00    -0.169 N  
HETATM   55  H   UNL     1     -10.430   6.845  68.655  1.00  0.00     0.000 HD 
HETATM   56  O   UNL     1      -9.872   6.932  65.524  1.00  0.00     0.675 OA 
HETATM   57  C   UNL     1     -10.215   6.487  66.618  1.00  0.00    -0.142 C  
BRANCH  57  58
HETATM   58  C   UNL     1     -10.796   5.093  66.832  1.00  0.00     0.004 C  
BRANCH  58  59
HETATM   59  C   UNL     1      -9.812   4.090  67.470  1.00  0.00    -0.057 C  
HETATM   60  H1  UNL     1      -8.754   2.414  66.907  1.00  0.00     0.000 HD 
HETATM   61  N   UNL     1      -9.405   3.077  66.485  1.00  0.00    -0.334 NA 
HETATM   62  H2  UNL     1      -9.021   3.500  65.640  1.00  0.00     0.000 HD 
BRANCH  59  63
HETATM   63  C   UNL     1      -8.521   4.758  67.998  1.00  0.00    -0.102 C  
BRANCH  63  64
HETATM   64  C   UNL     1      -8.446   4.827  69.527  1.00  0.00    -0.092 C  
BRANCH  64  65
HETATM   65  C   UNL     1      -7.001   4.842  70.029  1.00  0.00    -0.049 C  
HETATM   66  N   UNL     1      -6.106   4.446  68.948  1.00  0.00    -0.029 NA 
HETATM   67  H2  UNL     1      -6.230   5.020  68.114  1.00  0.00     0.000 HD 
HETATM   68  H1  UNL     1      -5.143   4.456  69.282  1.00  0.00     0.000 HD 
ENDBRANCH  64  65
ENDBRANCH  63  64
ENDBRANCH  59  63
ENDBRANCH  58  59
ENDBRANCH  57  58
ENDBRANCH  31  54
ENDBRANCH   1  14
TORSDOF 11
ENDMDL
MODEL      110
REMARK 921   NORMALIZED FREE ENERGY PREDICTED BY IDOCK:   49.25 KCAL/MOL
REMARK 922        TOTAL FREE ENERGY PREDICTED BY IDOCK:   78.97 KCAL/MOL
REMARK 923 INTER-LIGAND FREE ENERGY PREDICTED BY IDOCK:   57.90 KCAL/MOL
REMARK 924 INTRA-LIGAND FREE ENERGY PREDICTED BY IDOCK:   21.06 KCAL/MOL
REMARK 927      BINDING AFFINITY PREDICTED BY RF-SCORE:    0.00 PKD
ROOT
HETATM    1  C   UNL     1      -7.995  11.038  65.999  1.00  0.00    -0.094 C  
HETATM    2  C   UNL     1      -6.651  11.819  66.097  1.00  0.00     0.571 C  
HETATM    3  H1  UNL     1     -10.195  11.451  68.917  1.00  0.00     0.000 HD 
HETATM    4  H   UNL     1      -8.522   9.590  67.546  1.00  0.00     0.000 HD 
HETATM    5  C   UNL     1      -6.683  12.799  67.267  1.00  0.00    -0.082 C  
HETATM    6  H2  UNL     1      -9.185  12.712  69.599  1.00  0.00     0.000 HD 
HETATM    7  N   UNL     1      -7.041  12.074  68.455  1.00  0.00    -0.078 NA 
HETATM    8  O   UNL     1      -5.420  13.395  67.461  1.00  0.00    -0.304 OA 
HETATM    9  N   UNL     1      -8.293  10.567  67.360  1.00  0.00    -0.121 NA 
HETATM   10  N   UNL     1      -9.281  11.898  68.992  1.00  0.00     0.177 NA 
HETATM   11  H   UNL     1      -6.447  12.013  69.282  1.00  0.00     0.000 HD 
HETATM   12  C   UNL     1      -8.251  11.483  68.357  1.00  0.00    -0.152 C  
HETATM   13  H   UNL     1      -5.440  14.005  68.188  1.00  0.00     0.000 HD 
ENDROOT
BRANCH   1  14
HETATM   14  C   UNL     1      -9.184  11.846  65.376  1.00  0.00     0.047 C  
HETATM   15  N   UNL     1      -9.312  15.381  68.663  1.00  0.00    -0.193 N  
HETATM   16  O   UNL     1      -7.613  14.105  66.766  1.00  0.00     0.261 OA 
HETATM   17  C   UNL     1      -8.824  14.125  66.590  1.00  0.00    -0.114 C  
HETATM   18  C   UNL     1     -10.246  16.107  66.527  1.00  0.00    -0.297 C  
HETATM   19  N   UNL     1     -11.983  10.354  70.161  1.00  0.00    -0.353 N  
HETATM   20  H   UNL     1     -10.589  13.332  66.013  1.00  0.00     0.000 HD 
HETATM   21  N   UNL     1      -9.585  13.148  66.013  1.00  0.00    -0.209 N  
HETATM   22  H   UNL     1      -8.373  15.604  68.994  1.00  0.00     0.000 HD 
HETATM   23  C   UNL     1      -9.568  15.237  67.285  1.00  0.00    -0.211 C  
HETATM   24  C   UNL     1     -10.366  15.214  69.575  1.00  0.00    -0.243 C  
HETATM   25  O   UNL     1     -11.489  11.417  64.714  1.00  0.00    -0.145 OA 
HETATM   26  O   UNL     1     -11.330  15.973  69.647  1.00  0.00    -0.308 OA 
HETATM   27  N   UNL     1     -10.680  10.083  66.377  1.00  0.00    -0.063 N  
HETATM   28  CA  UNL     1     -10.283  13.880  70.391  1.00  0.00     1.982 C  
HETATM   29  N   UNL     1     -11.475  13.517  71.190  1.00  0.00     0.278 N  
HETATM   30  C   UNL     1     -11.956   9.447  66.717  1.00  0.00     5.173 C  
HETATM   31  CA  UNL     1     -11.900   8.867  68.159  1.00  0.00     2.535 C  
HETATM   32  H   UNL     1      -9.848   9.796  66.894  1.00  0.00     0.000 HD 
HETATM   33  H   UNL     1     -12.242  14.169  71.349  1.00  0.00     0.000 HD 
HETATM   34  O   UNL     1     -13.928   9.809  69.120  1.00  0.00     3.449 OA 
HETATM   35  C   UNL     1     -11.479  12.216  71.715  1.00  0.00     3.728 C  
HETATM   36  C   UNL     1     -12.699   9.741  69.151  1.00  0.00     2.305 C  
HETATM   37  H   UNL     1     -10.980  10.172  70.216  1.00  0.00     0.000 HD 
HETATM   38  C   UNL     1     -10.535  11.048  65.400  1.00  0.00    -0.241 C  
HETATM   39  O   UNL     1     -10.488  11.778  72.306  1.00  0.00     9.433 OA 
HETATM   40  CA  UNL     1     -12.586  11.267  71.175  1.00  0.00    -0.397 C  
BRANCH  18  41
HETATM   41  N   UNL     1     -10.738  17.297  67.004  1.00  0.00    -0.219 N  
HETATM   42  H   UNL     1     -10.610  18.138  66.441  1.00  0.00     0.000 HD 
BRANCH  41  43
HETATM   43  C   UNL     1     -11.390  17.406  68.197  1.00  0.00     0.349 C  
HETATM   44  H2  UNL     1     -13.206  17.597  67.162  1.00  0.00     0.000 HD 
HETATM   45  N   UNL     1     -12.731  17.564  68.064  1.00  0.00     3.140 N  
HETATM   46  H1  UNL     1     -13.219  17.645  68.956  1.00  0.00     0.000 HD 
HETATM   47  O   UNL     1     -10.869  17.360  69.305  1.00  0.00    -0.117 OA 
ENDBRANCH  41  43
ENDBRANCH  18  41
BRANCH  28  48
HETATM   48  C   UNL     1     -10.098  12.764  69.344  1.00  0.00     0.723 C  
HETATM   49  O   UNL     1     -11.174  12.759  68.393  1.00  0.00    -0.243 OA 
HETATM   50  H   UNL     1     -11.060  12.071  67.747  1.00  0.00     0.000 HD 
ENDBRANCH  28  48
BRANCH  40  51
HETATM   51  CB  UNL     1     -13.175  10.458  72.336  1.00  0.00     0.006 C  
HETATM   52  O   UNL     1     -13.168   9.049  72.099  1.00  0.00    -0.381 OA 
HETATM   53  H   UNL     1     -13.532   8.548  72.819  1.00  0.00     0.000 HD 
ENDBRANCH  40  51
BRANCH  31  54
HETATM   54  N   UNL     1     -12.399   7.488  68.220  1.00  0.00     3.151 N  
HETATM   55  H   UNL     1     -13.405   7.321  68.244  1.00  0.00     0.000 HD 
HETATM   56  O   UNL     1     -10.315   6.566  68.189  1.00  0.00    -0.154 OA 
HETATM   57  C   UNL     1     -11.534   6.414  68.246  1.00  0.00     0.228 C  
BRANCH  57  58
HETATM   58  C   UNL     1     -12.225   5.056  68.330  1.00  0.00     9.284 C  
BRANCH  58  59
HETATM   59  C   UNL     1     -11.817   4.215  69.558  1.00  0.00    10.420 C  
HETATM   60  H1  UNL     1     -10.859   2.431  69.942  1.00  0.00     0.000 HD 
HETATM   61  N   UNL     1     -11.129   2.987  69.130  1.00  0.00     5.487 NA 
HETATM   62  H2  UNL     1     -10.333   3.188  68.525  1.00  0.00     0.000 HD 
BRANCH  59  63
HETATM   63  C   UNL     1     -10.860   4.963  70.516  1.00  0.00     0.324 C  
BRANCH  63  64
HETATM   64  C   UNL     1     -11.582   5.839  71.545  1.00  0.00    -0.034 C  
BRANCH  64  65
HETATM   65  C   UNL     1     -10.607   6.710  72.339  1.00  0.00    -0.214 C  
HETATM   66  N   UNL     1      -9.971   7.670  71.443  1.00  0.00    -0.181 NA 
HETATM   67  H2  UNL     1     -10.653   8.227  70.927  1.00  0.00     0.000 HD 
HETATM   68  H1  UNL     1      -9.321   8.251  71.973  1.00  0.00     0.000 HD 
ENDBRANCH  64  65
ENDBRANCH  63  64
ENDBRANCH  59  63
ENDBRANCH  58  59
ENDBRANCH  57  58
ENDBRANCH  31  54
ENDBRANCH   1  14
TORSDOF 11
ENDMDL
MODEL      111
REMARK 921   NORMALIZED FREE ENERGY PREDICTED BY IDOCK:   52.86 KCAL/MOL
REMARK 922        TOTAL FREE ENERGY PREDICTED BY IDOCK:   84.89 KCAL/MOL
REMARK 923 INTER-LIGAND FREE ENERGY PREDICTED BY IDOCK:   72.27 KCAL/MOL
REMARK 924 INTRA-LIGAND FREE ENERGY PREDICTED BY IDOCK:   12.63 KCAL/MOL
REMARK 927      BINDING AFFINITY PREDICTED BY RF-SCORE:    0.00 PKD
ROOT
HETATM    1  C   UNL     1      -9.803  11.410  70.747  1.00  0.00     4.583 C  
HETATM    2  C   UNL     1     -10.952  10.956  69.797  1.00  0.00    -0.290 C  
HETATM    3  H1  UNL     1      -7.460   8.728  71.666  1.00  0.00     0.000 HD 
HETATM    4  H   UNL     1      -9.532  10.414  72.671  1.00  0.00     0.000 HD 
HETATM    5  C   UNL     1     -10.675   9.560  69.247  1.00  0.00    -0.222 C  
HETATM    6  H2  UNL     1      -8.162   7.612  70.510  1.00  0.00     0.000 HD 
HETATM    7  N   UNL     1     -10.431   8.677  70.354  1.00  0.00    -0.202 NA 
HETATM    8  O   UNL     1     -11.778   9.078  68.515  1.00  0.00     0.308 OA 
HETATM    9  N   UNL     1      -9.560  10.282  71.659  1.00  0.00     2.544 NA 
HETATM   10  N   UNL     1      -8.258   8.437  71.102  1.00  0.00    -0.118 NA 
HETATM   11  H   UNL     1     -10.994   7.850  70.554  1.00  0.00     0.000 HD 
HETATM   12  C   UNL     1      -9.375   9.062  71.102  1.00  0.00    -0.266 C  
HETATM   13  H   UNL     1     -11.605   8.209  68.172  1.00  0.00     0.000 HD 
ENDROOT
BRANCH   1  14
HETATM   14  C   UNL     1      -8.497  11.882  70.024  1.00  0.00     2.821 C  
HETATM   15  N   UNL     1     -10.423  15.618  67.648  1.00  0.00    -0.276 N  
HETATM   16  O   UNL     1     -10.023  14.550  70.258  1.00  0.00     0.506 OA 
HETATM   17  C   UNL     1      -9.229  14.294  69.362  1.00  0.00     0.401 C  
HETATM   18  C   UNL     1      -8.023  15.913  67.992  1.00  0.00    -0.136 C  
HETATM   19  N   UNL     1     -11.240  10.314  65.231  1.00  0.00     0.971 N  
HETATM   20  H   UNL     1      -7.974  13.091  68.335  1.00  0.00     0.000 HD 
HETATM   21  N   UNL     1      -8.545  13.125  69.181  1.00  0.00     0.496 N  
HETATM   22  H   UNL     1     -11.150  16.067  68.206  1.00  0.00     0.000 HD 
HETATM   23  C   UNL     1      -9.182  15.287  68.228  1.00  0.00    -0.189 C  
HETATM   24  C   UNL     1     -10.645  15.323  66.294  1.00  0.00    -0.309 C  
HETATM   25  O   UNL     1      -6.810  10.909  68.558  1.00  0.00    -0.056 OA 
HETATM   26  O   UNL     1     -10.038  15.863  65.372  1.00  0.00    -0.390 OA 
HETATM   27  N   UNL     1      -8.877   9.950  68.452  1.00  0.00    -0.119 N  
HETATM   28  CA  UNL     1     -11.627  14.125  66.068  1.00  0.00    -0.361 C  
HETATM   29  N   UNL     1     -11.723  13.599  64.687  1.00  0.00    -0.371 N  
HETATM   30  C   UNL     1      -8.604   9.095  67.293  1.00  0.00    -0.118 C  
HETATM   31  CA  UNL     1      -9.935   8.687  66.601  1.00  0.00    -0.287 C  
HETATM   32  H   UNL     1      -9.802   9.898  68.878  1.00  0.00     0.000 HD 
HETATM   33  H   UNL     1     -11.314  14.086  63.890  1.00  0.00     0.000 HD 
HETATM   34  O   UNL     1      -9.457   9.268  64.287  1.00  0.00     0.056 OA 
HETATM   35  C   UNL     1     -12.413  12.386  64.548  1.00  0.00    -0.435 C  
HETATM   36  C   UNL     1     -10.151   9.465  65.284  1.00  0.00     0.347 C  
HETATM   37  H   UNL     1     -11.856  10.355  66.044  1.00  0.00     0.000 HD 
HETATM   38  C   UNL     1      -7.957  10.822  69.000  1.00  0.00    -0.137 C  
HETATM   39  O   UNL     1     -13.514  12.229  65.082  1.00  0.00     0.153 OA 
HETATM   40  CA  UNL     1     -11.570  11.174  64.058  1.00  0.00     0.408 C  
BRANCH  18  41
HETATM   41  N   UNL     1      -7.915  17.013  67.177  1.00  0.00    -0.179 N  
HETATM   42  H   UNL     1      -7.087  17.603  67.262  1.00  0.00     0.000 HD 
BRANCH  41  43
HETATM   43  C   UNL     1      -8.864  17.353  66.258  1.00  0.00    -0.203 C  
HETATM   44  H2  UNL     1      -7.931  16.091  64.862  1.00  0.00     0.000 HD 
HETATM   45  N   UNL     1      -8.693  16.741  65.058  1.00  0.00     2.470 N  
HETATM   46  H1  UNL     1      -9.403  16.995  64.371  1.00  0.00     0.000 HD 
HETATM   47  O   UNL     1      -9.804  18.116  66.447  1.00  0.00    -0.334 OA 
ENDBRANCH  41  43
ENDBRANCH  18  41
BRANCH  28  48
HETATM   48  C   UNL     1     -11.088  12.975  66.941  1.00  0.00    -0.277 C  
HETATM   49  O   UNL     1      -9.872  12.436  66.400  1.00  0.00    -0.229 OA 
HETATM   50  H   UNL     1      -9.540  11.728  66.938  1.00  0.00     0.000 HD 
ENDBRANCH  28  48
BRANCH  40  51
HETATM   51  CB  UNL     1     -12.374  10.379  63.023  1.00  0.00     4.993 C  
HETATM   52  O   UNL     1     -13.557   9.791  63.565  1.00  0.00     8.057 OA 
HETATM   53  H   UNL     1     -14.056   9.298  62.923  1.00  0.00     0.000 HD 
ENDBRANCH  40  51
BRANCH  31  54
HETATM   54  N   UNL     1      -9.997   7.246  66.325  1.00  0.00    -0.450 N  
HETATM   55  H   UNL     1     -10.906   6.790  66.251  1.00  0.00     0.000 HD 
HETATM   56  O   UNL     1      -7.733   7.010  66.216  1.00  0.00    -0.089 OA 
HETATM   57  C   UNL     1      -8.849   6.498  66.164  1.00  0.00    -0.150 C  
BRANCH  57  58
HETATM   58  C   UNL     1      -9.101   5.016  65.903  1.00  0.00    -0.150 C  
BRANCH  58  59
HETATM   59  C   UNL     1     -10.550   4.564  66.180  1.00  0.00    -0.042 C  
HETATM   60  H1  UNL     1     -12.244   4.103  65.100  1.00  0.00     0.000 HD 
HETATM   61  N   UNL     1     -11.286   4.401  64.917  1.00  0.00    -1.034 NA 
HETATM   62  H2  UNL     1     -10.806   3.768  64.277  1.00  0.00     0.000 HD 
BRANCH  59  63
HETATM   63  C   UNL     1     -10.633   3.215  66.933  1.00  0.00     2.940 C  
BRANCH  63  64
HETATM   64  C   UNL     1     -12.034   2.893  67.465  1.00  0.00    16.630 C  
BRANCH  64  65
HETATM   65  C   UNL     1     -11.999   2.416  68.917  1.00  0.00    16.156 C  
HETATM   66  N   UNL     1     -13.190   1.623  69.198  1.00  0.00    14.846 NA 
HETATM   67  H2  UNL     1     -13.303   0.850  68.542  1.00  0.00     0.000 HD 
HETATM   68  H1  UNL     1     -13.167   1.304  70.167  1.00  0.00     0.000 HD 
ENDBRANCH  64  65
ENDBRANCH  63  64
ENDBRANCH  59  63
ENDBRANCH  58  59
ENDBRANCH  57  58
ENDBRANCH  31  54
ENDBRANCH   1  14
TORSDOF 11
ENDMDL
MODEL      112
REMARK 921   NORMALIZED FREE ENERGY PREDICTED BY IDOCK:   58.23 KCAL/MOL
REMARK 922        TOTAL FREE ENERGY PREDICTED BY IDOCK:   93.73 KCAL/MOL
REMARK 923 INTER-LIGAND FREE ENERGY PREDICTED BY IDOCK:   71.26 KCAL/MOL
REMARK 924 INTRA-LIGAND FREE ENERGY PREDICTED BY IDOCK:   22.46 KCAL/MOL
REMARK 927      BINDING AFFINITY PREDICTED BY RF-SCORE:    0.00 PKD
ROOT
HETATM    1  C   UNL     1      -8.128  10.872  66.139  1.00  0.00    -0.160 C  
HETATM    2  C   UNL     1      -7.835  11.354  64.687  1.00  0.00     1.139 C  
HETATM    3  H1  UNL     1     -10.394   7.982  66.338  1.00  0.00     0.000 HD 
HETATM    4  H   UNL     1     -10.189  10.782  66.855  1.00  0.00     0.000 HD 
HETATM    5  C   UNL     1      -8.341  10.335  63.669  1.00  0.00    -0.169 C  
HETATM    6  H2  UNL     1     -10.353   7.731  64.604  1.00  0.00     0.000 HD 
HETATM    7  N   UNL     1      -9.726  10.072  63.944  1.00  0.00    -0.452 NA 
HETATM    8  O   UNL     1      -8.223  10.832  62.356  1.00  0.00    -0.193 OA 
HETATM    9  N   UNL     1      -9.534  10.442  66.149  1.00  0.00    -0.174 NA 
HETATM   10  N   UNL     1     -10.245   8.357  65.402  1.00  0.00     1.426 NA 
HETATM   11  H   UNL     1     -10.478  10.241  63.274  1.00  0.00     0.000 HD 
HETATM   12  C   UNL     1      -9.925   9.576  65.183  1.00  0.00     0.118 C  
HETATM   13  H   UNL     1      -8.537  10.198  61.723  1.00  0.00     0.000 HD 
ENDROOT
BRANCH   1  14
HETATM   14  C   UNL     1      -7.163   9.760  66.673  1.00  0.00    -0.090 C  
HETATM   15  N   UNL     1      -7.633   6.705  62.963  1.00  0.00    -0.081 N  
HETATM   16  O   UNL     1      -6.871   9.368  63.629  1.00  0.00    -0.091 OA 
HETATM   17  C   UNL     1      -6.739   8.468  64.448  1.00  0.00    -0.066 C  
HETATM   18  C   UNL     1      -5.510   6.385  64.126  1.00  0.00    -0.022 C  
HETATM   19  N   UNL     1     -11.917   6.560  66.997  1.00  0.00     0.423 N  
HETATM   20  H   UNL     1      -6.791   7.683  66.308  1.00  0.00     0.000 HD 
HETATM   21  N   UNL     1      -6.885   8.565  65.804  1.00  0.00    -0.067 N  
HETATM   22  H   UNL     1      -7.745   7.214  62.085  1.00  0.00     0.000 HD 
HETATM   23  C   UNL     1      -6.629   7.076  63.880  1.00  0.00    -0.043 C  
HETATM   24  C   UNL     1      -8.477   5.627  63.273  1.00  0.00     0.009 C  
HETATM   25  O   UNL     1      -6.934   8.399  68.681  1.00  0.00    -0.065 OA 
HETATM   26  O   UNL     1      -8.089   4.464  63.361  1.00  0.00    -0.083 OA 
HETATM   27  N   UNL     1      -9.052   9.096  68.201  1.00  0.00    -0.132 N  
HETATM   28  CA  UNL     1      -9.933   6.060  63.652  1.00  0.00     3.302 C  
HETATM   29  N   UNL     1     -10.808   5.012  64.223  1.00  0.00     0.562 N  
HETATM   30  C   UNL     1      -9.729   8.283  69.216  1.00  0.00    -0.177 C  
HETATM   31  CA  UNL     1     -11.226   8.092  68.841  1.00  0.00     0.453 C  
HETATM   32  H   UNL     1      -9.623   9.706  67.616  1.00  0.00     0.000 HD 
HETATM   33  H   UNL     1     -10.551   4.025  64.214  1.00  0.00     0.000 HD 
HETATM   34  O   UNL     1     -11.452   5.677  69.039  1.00  0.00     0.218 OA 
HETATM   35  C   UNL     1     -12.015   5.465  64.777  1.00  0.00     4.066 C  
HETATM   36  C   UNL     1     -11.498   6.667  68.309  1.00  0.00     0.206 C  
HETATM   37  H   UNL     1     -12.055   7.420  66.465  1.00  0.00     0.000 HD 
HETATM   38  C   UNL     1      -7.688   9.084  67.988  1.00  0.00    -0.097 C  
HETATM   39  O   UNL     1     -12.733   6.249  64.151  1.00  0.00     8.548 OA 
HETATM   40  CA  UNL     1     -12.179   5.262  66.310  1.00  0.00     4.540 C  
BRANCH  18  41
HETATM   41  N   UNL     1      -5.176   5.232  63.460  1.00  0.00    -0.009 N  
HETATM   42  H   UNL     1      -4.215   5.117  63.138  1.00  0.00     0.000 HD 
BRANCH  41  43
HETATM   43  C   UNL     1      -6.070   4.233  63.208  1.00  0.00    -0.018 C  
HETATM   44  H2  UNL     1      -5.093   3.033  64.626  1.00  0.00     0.000 HD 
HETATM   45  N   UNL     1      -5.851   3.117  63.949  1.00  0.00    -0.010 N  
HETATM   46  H1  UNL     1      -6.520   2.370  63.761  1.00  0.00     0.000 HD 
HETATM   47  O   UNL     1      -7.003   4.289  62.416  1.00  0.00    -0.030 OA 
ENDBRANCH  41  43
ENDBRANCH  18  41
BRANCH  28  48
HETATM   48  C   UNL     1      -9.775   7.141  64.739  1.00  0.00     2.614 C  
HETATM   49  O   UNL     1      -8.997   6.658  65.845  1.00  0.00    -0.239 OA 
HETATM   50  H   UNL     1      -8.899   7.325  66.515  1.00  0.00     0.000 HD 
ENDBRANCH  28  48
BRANCH  40  51
HETATM   51  CB  UNL     1     -13.603   4.778  66.610  1.00  0.00    20.663 C  
HETATM   52  O   UNL     1     -14.281   5.593  67.567  1.00  0.00    19.722 OA 
HETATM   53  H   UNL     1     -15.164   5.293  67.753  1.00  0.00     0.000 HD 
ENDBRANCH  40  51
BRANCH  31  54
HETATM   54  N   UNL     1     -12.120   8.363  69.973  1.00  0.00    -0.027 N  
HETATM   55  H   UNL     1     -12.891   7.724  70.165  1.00  0.00     0.000 HD 
HETATM   56  O   UNL     1     -11.004  10.247  70.607  1.00  0.00    -0.308 OA 
HETATM   57  C   UNL     1     -11.936   9.465  70.783  1.00  0.00    -0.231 C  
BRANCH  57  58
HETATM   58  C   UNL     1     -12.969   9.600  71.898  1.00  0.00    -0.527 C  
BRANCH  58  59
HETATM   59  C   UNL     1     -13.255  11.057  72.321  1.00  0.00    -0.003 C  
HETATM   60  H1  UNL     1     -13.357  12.154  74.062  1.00  0.00     0.000 HD 
HETATM   61  N   UNL     1     -13.169  11.191  73.783  1.00  0.00     6.694 NA 
HETATM   62  H2  UNL     1     -12.274  10.858  74.143  1.00  0.00     0.000 HD 
BRANCH  59  63
HETATM   63  C   UNL     1     -12.260  12.073  71.711  1.00  0.00     0.579 C  
BRANCH  63  64
HETATM   64  C   UNL     1     -12.570  12.439  70.256  1.00  0.00    -0.021 C  
BRANCH  64  65
HETATM   65  C   UNL     1     -11.412  13.187  69.594  1.00  0.00    -0.191 C  
HETATM   66  N   UNL     1     -11.111  12.577  68.304  1.00  0.00    -0.240 NA 
HETATM   67  H2  UNL     1     -11.932  12.526  67.700  1.00  0.00     0.000 HD 
HETATM   68  H1  UNL     1     -10.339  13.076  67.863  1.00  0.00     0.000 HD 
ENDBRANCH  64  65
ENDBRANCH  63  64
ENDBRANCH  59  63
ENDBRANCH  58  59
ENDBRANCH  57  58
ENDBRANCH  31  54
ENDBRANCH   1  14
TORSDOF 11
ENDMDL
MODEL      113
REMARK 921   NORMALIZED FREE ENERGY PREDICTED BY IDOCK:   60.06 KCAL/MOL
REMARK 922        TOTAL FREE ENERGY PREDICTED BY IDOCK:   96.72 KCAL/MOL
REMARK 923 INTER-LIGAND FREE ENERGY PREDICTED BY IDOCK:   69.32 KCAL/MOL
REMARK 924 INTRA-LIGAND FREE ENERGY PREDICTED BY IDOCK:   27.40 KCAL/MOL
REMARK 927      BINDING AFFINITY PREDICTED BY RF-SCORE:    0.00 PKD
ROOT
HETATM    1  C   UNL     1      -9.101  13.596  70.850  1.00  0.00     6.728 C  
HETATM    2  C   UNL     1      -9.761  14.987  71.085  1.00  0.00     1.957 C  
HETATM    3  H1  UNL     1     -11.383  11.061  69.474  1.00  0.00     0.000 HD 
HETATM    4  H   UNL     1      -9.937  11.824  71.813  1.00  0.00     0.000 HD 
HETATM    5  C   UNL     1     -11.137  15.049  70.427  1.00  0.00    -0.229 C  
HETATM    6  H2  UNL     1     -12.650  12.240  69.192  1.00  0.00     0.000 HD 
HETATM    7  N   UNL     1     -11.912  13.933  70.895  1.00  0.00    -0.488 NA 
HETATM    8  O   UNL     1     -11.805  16.242  70.767  1.00  0.00    -0.525 OA 
HETATM    9  N   UNL     1     -10.131  12.597  71.175  1.00  0.00     7.257 NA 
HETATM   10  N   UNL     1     -11.812  11.958  69.701  1.00  0.00    -0.328 NA 
HETATM   11  H   UNL     1     -12.794  14.028  71.398  1.00  0.00     0.000 HD 
HETATM   12  C   UNL     1     -11.345  12.745  70.595  1.00  0.00     1.127 C  
HETATM   13  H   UNL     1     -12.661  16.281  70.357  1.00  0.00     0.000 HD 
ENDROOT
BRANCH   1  14
HETATM   14  C   UNL     1      -8.500  13.385  69.419  1.00  0.00     0.977 C  
HETATM   15  N   UNL     1     -12.668  13.473  66.982  1.00  0.00    -0.058 N  
HETATM   16  O   UNL     1     -11.038  15.002  68.748  1.00  0.00    -0.239 OA 
HETATM   17  C   UNL     1     -10.526  14.189  67.989  1.00  0.00    -0.240 C  
HETATM   18  C   UNL     1     -10.784  14.110  65.564  1.00  0.00    -0.324 C  
HETATM   19  N   UNL     1     -11.296   8.374  69.583  1.00  0.00    -0.430 N  
HETATM   20  H   UNL     1      -9.192  12.757  67.491  1.00  0.00     0.000 HD 
HETATM   21  N   UNL     1      -9.425  13.418  68.234  1.00  0.00    -0.214 N  
HETATM   22  H   UNL     1     -13.324  14.128  67.408  1.00  0.00     0.000 HD 
HETATM   23  C   UNL     1     -11.328  13.848  66.758  1.00  0.00    -0.333 C  
HETATM   24  C   UNL     1     -13.088  12.186  66.611  1.00  0.00     4.294 C  
HETATM   25  O   UNL     1      -7.065  11.764  68.300  1.00  0.00    -0.069 OA 
HETATM   26  O   UNL     1     -13.145  11.799  65.446  1.00  0.00     1.298 OA 
HETATM   27  N   UNL     1      -8.268  10.960  70.063  1.00  0.00     0.067 N  
HETATM   28  CA  UNL     1     -13.329  11.231  67.828  1.00  0.00     7.831 C  
HETATM   29  N   UNL     1     -13.536   9.799  67.515  1.00  0.00    12.761 N  
HETATM   30  C   UNL     1      -7.944   9.546  69.854  1.00  0.00    -0.149 C  
HETATM   31  CA  UNL     1      -9.008   8.644  70.541  1.00  0.00    -0.164 C  
HETATM   32  H   UNL     1      -8.864  11.204  70.854  1.00  0.00     0.000 HD 
HETATM   33  H   UNL     1     -13.688   9.467  66.563  1.00  0.00     0.000 HD 
HETATM   34  O   UNL     1      -9.594   7.141  68.719  1.00  0.00    -0.144 OA 
HETATM   35  C   UNL     1     -13.508   8.928  68.615  1.00  0.00    11.249 C  
HETATM   36  C   UNL     1      -9.966   8.010  69.507  1.00  0.00    -0.186 C  
HETATM   37  H   UNL     1     -11.578   9.009  70.331  1.00  0.00     0.000 HD 
HETATM   38  C   UNL     1      -7.816  11.982  69.252  1.00  0.00     0.387 C  
HETATM   39  O   UNL     1     -14.160   9.185  69.630  1.00  0.00     2.483 OA 
HETATM   40  CA  UNL     1     -12.346   7.895  68.637  1.00  0.00     4.111 C  
BRANCH  18  41
HETATM   41  N   UNL     1     -11.500  14.095  64.392  1.00  0.00    -0.553 N  
HETATM   42  H   UNL     1     -11.401  13.292  63.770  1.00  0.00     0.000 HD 
BRANCH  41  43
HETATM   43  C   UNL     1     -12.340  15.104  64.022  1.00  0.00     0.027 C  
HETATM   44  H2  UNL     1     -13.823  13.682  63.593  1.00  0.00     0.000 HD 
HETATM   45  N   UNL     1     -13.560  14.667  63.617  1.00  0.00     2.212 N  
HETATM   46  H1  UNL     1     -14.188  15.422  63.340  1.00  0.00     0.000 HD 
HETATM   47  O   UNL     1     -12.076  16.301  64.045  1.00  0.00    -0.928 OA 
ENDBRANCH  41  43
ENDBRANCH  18  41
BRANCH  28  48
HETATM   48  C   UNL     1     -12.048  11.315  68.682  1.00  0.00    -0.141 C  
HETATM   49  O   UNL     1     -11.213  12.404  68.262  1.00  0.00    -0.226 OA 
HETATM   50  H   UNL     1     -10.424  12.456  68.788  1.00  0.00     0.000 HD 
ENDBRANCH  28  48
BRANCH  40  51
HETATM   51  CB  UNL     1     -12.885   6.532  69.085  1.00  0.00     5.183 C  
HETATM   52  O   UNL     1     -12.580   5.480  68.167  1.00  0.00     5.926 OA 
HETATM   53  H   UNL     1     -12.915   4.635  68.446  1.00  0.00     0.000 HD 
ENDBRANCH  40  51
BRANCH  31  54
HETATM   54  N   UNL     1      -8.396   7.580  71.347  1.00  0.00    -0.106 N  
HETATM   55  H   UNL     1      -7.739   6.936  70.907  1.00  0.00     0.000 HD 
HETATM   56  O   UNL     1      -9.456   8.206  73.265  1.00  0.00    -0.270 OA 
HETATM   57  C   UNL     1      -8.692   7.436  72.687  1.00  0.00    -0.124 C  
BRANCH  57  58
HETATM   58  C   UNL     1      -7.981   6.267  73.361  1.00  0.00    -0.101 C  
BRANCH  58  59
HETATM   59  C   UNL     1      -6.979   5.527  72.450  1.00  0.00    -0.082 C  
HETATM   60  H1  UNL     1      -6.275   3.608  72.187  1.00  0.00     0.000 HD 
HETATM   61  N   UNL     1      -6.938   4.097  72.790  1.00  0.00    -0.055 NA 
HETATM   62  H2  UNL     1      -7.865   3.672  72.760  1.00  0.00     0.000 HD 
BRANCH  59  63
HETATM   63  C   UNL     1      -7.334   5.628  70.947  1.00  0.00    -0.084 C  
BRANCH  63  64
HETATM   64  C   UNL     1      -8.806   5.328  70.643  1.00  0.00    -0.148 C  
BRANCH  64  65
HETATM   65  C   UNL     1      -8.967   4.472  69.386  1.00  0.00    -0.095 C  
HETATM   66  N   UNL     1     -10.375   4.138  69.201  1.00  0.00     0.481 NA 
HETATM   67  H2  UNL     1     -10.969   4.967  69.181  1.00  0.00     0.000 HD 
HETATM   68  H1  UNL     1     -10.482   3.567  68.363  1.00  0.00     0.000 HD 
ENDBRANCH  64  65
ENDBRANCH  63  64
ENDBRANCH  59  63
ENDBRANCH  58  59
ENDBRANCH  57  58
ENDBRANCH  31  54
ENDBRANCH   1  14
TORSDOF 11
ENDMDL
MODEL      114
REMARK 921   NORMALIZED FREE ENERGY PREDICTED BY IDOCK:   61.61 KCAL/MOL
REMARK 922        TOTAL FREE ENERGY PREDICTED BY IDOCK:   99.28 KCAL/MOL
REMARK 923 INTER-LIGAND FREE ENERGY PREDICTED BY IDOCK:   74.82 KCAL/MOL
REMARK 924 INTRA-LIGAND FREE ENERGY PREDICTED BY IDOCK:   24.45 KCAL/MOL
REMARK 927      BINDING AFFINITY PREDICTED BY RF-SCORE:    0.00 PKD
ROOT
HETATM    1  C   UNL     1      -8.128  10.872  66.139  1.00  0.00    -0.160 C  
HETATM    2  C   UNL     1      -7.823  11.368  64.694  1.00  0.00     1.139 C  
HETATM    3  H1  UNL     1     -10.386   7.972  66.291  1.00  0.00     0.000 HD 
HETATM    4  H   UNL     1     -10.195  10.768  66.834  1.00  0.00     0.000 HD 
HETATM    5  C   UNL     1      -8.315  10.356  63.663  1.00  0.00    -0.153 C  
HETATM    6  H2  UNL     1     -10.327   7.737  64.555  1.00  0.00     0.000 HD 
HETATM    7  N   UNL     1      -9.703  10.086  63.921  1.00  0.00    -0.452 NA 
HETATM    8  O   UNL     1      -8.186  10.866  62.355  1.00  0.00    -0.239 OA 
HETATM    9  N   UNL     1      -9.533  10.437  66.132  1.00  0.00    -0.174 NA 
HETATM   10  N   UNL     1     -10.228   8.356  65.359  1.00  0.00     1.426 NA 
HETATM   11  H   UNL     1     -10.448  10.258  63.247  1.00  0.00     0.000 HD 
HETATM   12  C   UNL     1      -9.911   9.578  65.155  1.00  0.00     0.118 C  
HETATM   13  H   UNL     1      -8.493  10.236  61.713  1.00  0.00     0.000 HD 
ENDROOT
BRANCH   1  14
HETATM   14  C   UNL     1      -7.164   9.759  66.672  1.00  0.00    -0.090 C  
HETATM   15  N   UNL     1      -7.588   6.736  62.931  1.00  0.00    -0.088 N  
HETATM   16  O   UNL     1      -6.842   9.395  63.628  1.00  0.00    -0.091 OA 
HETATM   17  C   UNL     1      -6.714   8.488  64.441  1.00  0.00    -0.066 C  
HETATM   18  C   UNL     1      -5.474   6.412  64.112  1.00  0.00    -0.022 C  
HETATM   19  N   UNL     1     -11.909   6.539  66.922  1.00  0.00    -0.026 N  
HETATM   20  H   UNL     1      -6.781   7.686  66.292  1.00  0.00     0.000 HD 
HETATM   21  N   UNL     1      -6.874   8.573  65.795  1.00  0.00    -0.067 N  
HETATM   22  H   UNL     1      -7.693   7.252  62.057  1.00  0.00     0.000 HD 
HETATM   23  C   UNL     1      -6.594   7.101  63.861  1.00  0.00    -0.044 C  
HETATM   24  C   UNL     1      -8.430   5.652  63.223  1.00  0.00     0.009 C  
HETATM   25  O   UNL     1      -6.950   8.381  68.670  1.00  0.00    -0.065 OA 
HETATM   26  O   UNL     1      -8.039   4.489  63.305  1.00  0.00    -0.083 OA 
HETATM   27  N   UNL     1      -9.065   9.074  68.176  1.00  0.00    -0.133 N  
HETATM   28  CA  UNL     1      -9.891   6.076  63.593  1.00  0.00     2.891 C  
HETATM   29  N   UNL     1     -10.768   5.019  64.145  1.00  0.00     0.575 N  
HETATM   30  C   UNL     1      -9.749   8.250  69.178  1.00  0.00    -0.171 C  
HETATM   31  CA  UNL     1     -11.241   8.057  68.787  1.00  0.00     0.504 C  
HETATM   32  H   UNL     1      -9.633   9.687  67.591  1.00  0.00     0.000 HD 
HETATM   33  H   UNL     1     -10.508   4.034  64.130  1.00  0.00     0.000 HD 
HETATM   34  O   UNL     1     -11.460   5.640  68.961  1.00  0.00     0.218 OA 
HETATM   35  C   UNL     1     -11.982   5.464  64.692  1.00  0.00     4.309 C  
HETATM   36  C   UNL     1     -11.503   6.636  68.240  1.00  0.00     0.206 C  
HETATM   37  H   UNL     1     -12.045   7.403  66.397  1.00  0.00     0.000 HD 
HETATM   38  C   UNL     1      -7.699   9.070  67.976  1.00  0.00    -0.097 C  
HETATM   39  O   UNL     1     -12.697   6.250  64.066  1.00  0.00     8.744 OA 
HETATM   40  CA  UNL     1     -12.160   5.246  66.222  1.00  0.00     3.822 C  
BRANCH  18  41
HETATM   41  N   UNL     1      -5.130   5.267  63.438  1.00  0.00    -0.009 N  
HETATM   42  H   UNL     1      -4.165   5.158  63.125  1.00  0.00     0.000 HD 
BRANCH  41  43
HETATM   43  C   UNL     1      -6.017   4.267  63.170  1.00  0.00    -0.017 C  
HETATM   44  H2  UNL     1      -5.050   3.057  64.586  1.00  0.00     0.000 HD 
HETATM   45  N   UNL     1      -5.802   3.145  63.902  1.00  0.00    -0.010 N  
HETATM   46  H1  UNL     1      -6.466   2.397  63.701  1.00  0.00     0.000 HD 
HETATM   47  O   UNL     1      -6.944   4.327  62.369  1.00  0.00    -0.030 OA 
ENDBRANCH  41  43
ENDBRANCH  18  41
BRANCH  28  48
HETATM   48  C   UNL     1      -9.747   7.148  64.691  1.00  0.00     2.894 C  
HETATM   49  O   UNL     1      -9.341   6.565  65.938  1.00  0.00    -0.356 OA 
HETATM   50  H   UNL     1      -9.252   7.225  66.615  1.00  0.00     0.000 HD 
ENDBRANCH  28  48
BRANCH  40  51
HETATM   51  CB  UNL     1     -13.584   4.755  66.503  1.00  0.00    19.792 C  
HETATM   52  O   UNL     1     -14.275   5.558  67.462  1.00  0.00    20.466 OA 
HETATM   53  H   UNL     1     -15.158   5.254  67.636  1.00  0.00     0.000 HD 
ENDBRANCH  40  51
BRANCH  31  54
HETATM   54  N   UNL     1     -12.147   8.315  69.913  1.00  0.00     0.131 N  
HETATM   55  H   UNL     1     -12.762   9.128  69.883  1.00  0.00     0.000 HD 
HETATM   56  O   UNL     1     -11.480   6.472  71.076  1.00  0.00    -0.302 OA 
HETATM   57  C   UNL     1     -12.182   7.479  71.010  1.00  0.00    -0.259 C  
BRANCH  57  58
HETATM   58  C   UNL     1     -13.167   7.910  72.092  1.00  0.00    -0.175 C  
BRANCH  58  59
HETATM   59  C   UNL     1     -12.753   7.500  73.522  1.00  0.00     3.013 C  
HETATM   60  H1  UNL     1     -13.598   6.567  75.153  1.00  0.00     0.000 HD 
HETATM   61  N   UNL     1     -13.871   6.837  74.208  1.00  0.00     7.774 NA 
HETATM   62  H2  UNL     1     -14.229   6.045  73.674  1.00  0.00     0.000 HD 
BRANCH  59  63
HETATM   63  C   UNL     1     -11.555   6.521  73.551  1.00  0.00     0.807 C  
BRANCH  63  64
HETATM   64  C   UNL     1     -10.191   7.218  73.515  1.00  0.00    -0.404 C  
BRANCH  64  65
HETATM   65  C   UNL     1      -9.054   6.235  73.232  1.00  0.00    -0.128 C  
HETATM   66  N   UNL     1      -8.191   6.775  72.188  1.00  0.00    -0.104 NA 
HETATM   67  H2  UNL     1      -7.846   7.708  72.416  1.00  0.00     0.000 HD 
HETATM   68  H1  UNL     1      -7.433   6.120  71.999  1.00  0.00     0.000 HD 
ENDBRANCH  64  65
ENDBRANCH  63  64
ENDBRANCH  59  63
ENDBRANCH  58  59
ENDBRANCH  57  58
ENDBRANCH  31  54
ENDBRANCH   1  14
TORSDOF 11
ENDMDL
MODEL      115
REMARK 921   NORMALIZED FREE ENERGY PREDICTED BY IDOCK:   71.84 KCAL/MOL
REMARK 922        TOTAL FREE ENERGY PREDICTED BY IDOCK:  116.08 KCAL/MOL
REMARK 923 INTER-LIGAND FREE ENERGY PREDICTED BY IDOCK:   97.59 KCAL/MOL
REMARK 924 INTRA-LIGAND FREE ENERGY PREDICTED BY IDOCK:   18.49 KCAL/MOL
REMARK 927      BINDING AFFINITY PREDICTED BY RF-SCORE:    0.00 PKD
ROOT
HETATM    1  C   UNL     1     -13.629   9.677  67.457  1.00  0.00    16.828 C  
HETATM    2  C   UNL     1     -13.064   9.359  68.874  1.00  0.00     5.545 C  
HETATM    3  H1  UNL     1     -12.862  13.068  66.257  1.00  0.00     0.000 HD 
HETATM    4  H   UNL     1     -14.968  11.379  67.184  1.00  0.00     0.000 HD 
HETATM    5  C   UNL     1     -12.083  10.441  69.318  1.00  0.00     0.050 C  
HETATM    6  H2  UNL     1     -11.768  13.378  67.592  1.00  0.00     0.000 HD 
HETATM    7  N   UNL     1     -12.736  11.716  69.208  1.00  0.00     0.172 NA 
HETATM    8  O   UNL     1     -11.688  10.245  70.656  1.00  0.00    -0.295 OA 
HETATM    9  N   UNL     1     -14.039  11.089  67.491  1.00  0.00    14.401 NA 
HETATM   10  N   UNL     1     -12.561  12.863  67.210  1.00  0.00     0.155 NA 
HETATM   11  H   UNL     1     -12.883  12.346  69.996  1.00  0.00     0.000 HD 
HETATM   12  C   UNL     1     -13.134  11.988  67.947  1.00  0.00     4.446 C  
HETATM   13  H   UNL     1     -11.077  10.918  70.932  1.00  0.00     0.000 HD 
ENDROOT
BRANCH   1  14
HETATM   14  C   UNL     1     -12.651   9.371  66.273  1.00  0.00    12.234 C  
HETATM   15  N   UNL     1     -11.097   5.080  67.852  1.00  0.00     0.629 N  
HETATM   16  O   UNL     1     -13.446   6.515  67.120  1.00  0.00    11.603 OA 
HETATM   17  C   UNL     1     -12.369   6.802  66.614  1.00  0.00     5.586 C  
HETATM   18  C   UNL     1     -10.876   5.279  65.428  1.00  0.00     0.581 C  
HETATM   19  N   UNL     1      -8.552   9.806  70.268  1.00  0.00    -0.291 N  
HETATM   20  H   UNL     1     -10.983   8.082  65.894  1.00  0.00     0.000 HD 
HETATM   21  N   UNL     1     -11.941   8.046  66.245  1.00  0.00     5.923 N  
HETATM   22  H   UNL     1     -11.845   4.576  68.329  1.00  0.00     0.000 HD 
HETATM   23  C   UNL     1     -11.335   5.704  66.611  1.00  0.00     0.570 C  
HETATM   24  C   UNL     1      -9.817   5.162  68.423  1.00  0.00    -0.152 C  
HETATM   25  O   UNL     1     -10.754  10.452  65.191  1.00  0.00    -0.094 OA 
HETATM   26  O   UNL     1      -8.820   4.634  67.935  1.00  0.00    -0.103 OA 
HETATM   27  N   UNL     1     -11.074  10.992  67.383  1.00  0.00    -0.296 N  
HETATM   28  CA  UNL     1      -9.743   6.120  69.659  1.00  0.00    -0.152 C  
HETATM   29  N   UNL     1      -8.390   6.447  70.163  1.00  0.00    -0.132 N  
HETATM   30  C   UNL     1      -9.822  11.734  67.557  1.00  0.00    -0.186 C  
HETATM   31  CA  UNL     1      -9.441  11.802  69.062  1.00  0.00     0.191 C  
HETATM   32  H   UNL     1     -11.705  10.923  68.182  1.00  0.00     0.000 HD 
HETATM   33  H   UNL     1      -7.557   5.950  69.847  1.00  0.00     0.000 HD 
HETATM   34  O   UNL     1      -7.131  11.041  68.995  1.00  0.00    -0.087 OA 
HETATM   35  C   UNL     1      -8.329   7.485  71.105  1.00  0.00    -0.109 C  
HETATM   36  C   UNL     1      -8.278  10.842  69.396  1.00  0.00    -0.023 C  
HETATM   37  H   UNL     1      -9.489   9.751  70.668  1.00  0.00     0.000 HD 
HETATM   38  C   UNL     1     -11.450  10.379  66.205  1.00  0.00     1.188 C  
HETATM   39  O   UNL     1      -9.098   7.499  72.069  1.00  0.00    -0.126 OA 
HETATM   40  CA  UNL     1      -7.561   8.763  70.661  1.00  0.00    -0.090 C  
BRANCH  18  41
HETATM   41  N   UNL     1     -10.144   4.127  65.275  1.00  0.00    -0.292 N  
HETATM   42  H   UNL     1     -10.637   3.233  65.280  1.00  0.00     0.000 HD 
BRANCH  41  43
HETATM   43  C   UNL     1      -8.790   4.122  65.116  1.00  0.00    -0.130 C  
HETATM   44  H2  UNL     1      -8.926   5.957  64.105  1.00  0.00     0.000 HD 
HETATM   45  N   UNL     1      -8.323   5.210  64.451  1.00  0.00    -0.134 N  
HETATM   46  H1  UNL     1      -7.310   5.207  64.332  1.00  0.00     0.000 HD 
HETATM   47  O   UNL     1      -8.023   3.257  65.523  1.00  0.00    -0.085 OA 
ENDBRANCH  41  43
ENDBRANCH  18  41
BRANCH  28  48
HETATM   48  C   UNL     1     -10.371   7.448  69.193  1.00  0.00    -0.208 C  
HETATM   49  O   UNL     1     -11.220   7.251  68.052  1.00  0.00    -0.485 OA 
HETATM   50  H   UNL     1     -11.608   8.069  67.765  1.00  0.00     0.000 HD 
ENDBRANCH  28  48
BRANCH  40  51
HETATM   51  CB  UNL     1      -6.692   9.263  71.820  1.00  0.00     0.155 C  
HETATM   52  O   UNL     1      -7.282  10.351  72.534  1.00  0.00     2.584 OA 
HETATM   53  H   UNL     1      -6.743  10.661  73.253  1.00  0.00     0.000 HD 
ENDBRANCH  40  51
BRANCH  31  54
HETATM   54  N   UNL     1      -9.080  13.161  69.482  1.00  0.00     0.679 N  
HETATM   55  H   UNL     1      -9.432  13.958  68.951  1.00  0.00     0.000 HD 
HETATM   56  O   UNL     1      -7.852  12.454  71.267  1.00  0.00     6.788 OA 
HETATM   57  C   UNL     1      -8.275  13.382  70.581  1.00  0.00     5.166 C  
BRANCH  57  58
HETATM   58  C   UNL     1      -7.987  14.854  70.859  1.00  0.00     2.113 C  
BRANCH  58  59
HETATM   59  C   UNL     1      -8.820  15.832  70.003  1.00  0.00     0.499 C  
HETATM   60  H1  UNL     1      -9.740  17.662  70.229  1.00  0.00     0.000 HD 
HETATM   61  N   UNL     1      -9.190  17.015  70.794  1.00  0.00     3.857 NA 
HETATM   62  H2  UNL     1      -8.374  17.469  71.205  1.00  0.00     0.000 HD 
BRANCH  59  63
HETATM   63  C   UNL     1      -8.065  16.339  68.751  1.00  0.00    -0.227 C  
BRANCH  63  64
HETATM   64  C   UNL     1      -8.694  15.885  67.430  1.00  0.00    -0.197 C  
BRANCH  64  65
HETATM   65  C   UNL     1      -9.995  15.112  67.652  1.00  0.00    -0.229 C  
HETATM   66  N   UNL     1      -9.845  13.752  67.146  1.00  0.00    -0.237 NA 
HETATM   67  H2  UNL     1      -9.039  13.276  67.554  1.00  0.00     0.000 HD 
HETATM   68  H1  UNL     1     -10.712  13.236  67.295  1.00  0.00     0.000 HD 
ENDBRANCH  64  65
ENDBRANCH  63  64
ENDBRANCH  59  63
ENDBRANCH  58  59
ENDBRANCH  57  58
ENDBRANCH  31  54
ENDBRANCH   1  14
TORSDOF 11
ENDMDL
MODEL      116
REMARK 921   NORMALIZED FREE ENERGY PREDICTED BY IDOCK:   87.52 KCAL/MOL
REMARK 922        TOTAL FREE ENERGY PREDICTED BY IDOCK:  141.84 KCAL/MOL
REMARK 923 INTER-LIGAND FREE ENERGY PREDICTED BY IDOCK:   84.46 KCAL/MOL
REMARK 924 INTRA-LIGAND FREE ENERGY PREDICTED BY IDOCK:   57.39 KCAL/MOL
REMARK 927      BINDING AFFINITY PREDICTED BY RF-SCORE:    0.00 PKD
ROOT
HETATM    1  C   UNL     1     -10.658   9.535  73.111  1.00  0.00     4.408 C  
HETATM    2  C   UNL     1      -9.601   8.928  74.081  1.00  0.00     3.696 C  
HETATM    3  H1  UNL     1      -9.831   9.146  69.548  1.00  0.00     0.000 HD 
HETATM    4  H   UNL     1     -10.053  11.051  71.661  1.00  0.00     0.000 HD 
HETATM    5  C   UNL     1      -8.600   8.066  73.315  1.00  0.00    -0.235 C  
HETATM    6  H2  UNL     1      -8.482   8.082  69.896  1.00  0.00     0.000 HD 
HETATM    7  N   UNL     1      -8.049   8.853  72.247  1.00  0.00    -0.363 NA 
HETATM    8  O   UNL     1      -7.552   7.642  74.157  1.00  0.00    -0.120 OA 
HETATM    9  N   UNL     1      -9.900  10.094  71.981  1.00  0.00     2.828 NA 
HETATM   10  N   UNL     1      -9.119   8.818  70.200  1.00  0.00    -0.159 NA 
HETATM   11  H   UNL     1      -7.054   9.061  72.152  1.00  0.00     0.000 HD 
HETATM   12  C   UNL     1      -8.991   9.288  71.383  1.00  0.00     0.058 C  
HETATM   13  H   UNL     1      -6.929   7.106  73.681  1.00  0.00     0.000 HD 
ENDROOT
BRANCH   1  14
HETATM   14  C   UNL     1     -11.772   8.538  72.643  1.00  0.00    -0.231 C  
HETATM   15  N   UNL     1      -9.327   6.555  68.982  1.00  0.00    -0.129 N  
HETATM   16  O   UNL     1      -9.234   7.009  71.792  1.00  0.00    -0.142 OA 
HETATM   17  C   UNL     1     -10.313   6.912  71.221  1.00  0.00    -0.203 C  
HETATM   18  C   UNL     1     -11.052   5.049  69.829  1.00  0.00     1.228 C  
HETATM   19  N   UNL     1     -11.874  11.747  67.884  1.00  0.00    -0.275 N  
HETATM   20  H   UNL     1     -12.242   7.405  70.888  1.00  0.00     0.000 HD 
HETATM   21  N   UNL     1     -11.464   7.582  71.524  1.00  0.00    -0.258 N  
HETATM   22  H   UNL     1      -8.333   6.486  69.203  1.00  0.00     0.000 HD 
HETATM   23  C   UNL     1     -10.298   6.151  69.919  1.00  0.00    -0.213 C  
HETATM   24  C   UNL     1      -9.745   7.055  67.738  1.00  0.00    -0.135 C  
HETATM   25  O   UNL     1     -14.105   8.657  71.949  1.00  0.00    -0.411 OA 
HETATM   26  O   UNL     1     -10.321   6.375  66.891  1.00  0.00    -0.198 OA 
HETATM   27  N   UNL     1     -12.871  10.539  71.577  1.00  0.00    -0.427 N  
HETATM   28  CA  UNL     1      -9.553   8.601  67.587  1.00  0.00    -0.155 C  
HETATM   29  N   UNL     1     -10.188   9.236  66.411  1.00  0.00    -0.260 N  
HETATM   30  C   UNL     1     -13.881  11.246  70.783  1.00  0.00     1.920 C  
HETATM   31  CA  UNL     1     -13.207  12.340  69.908  1.00  0.00     1.559 C  
HETATM   32  H   UNL     1     -11.985  11.011  71.756  1.00  0.00     0.000 HD 
HETATM   33  H   UNL     1     -10.581   8.690  65.644  1.00  0.00     0.000 HD 
HETATM   34  O   UNL     1     -14.140  11.829  67.720  1.00  0.00    10.120 OA 
HETATM   35  C   UNL     1     -10.213  10.639  66.419  1.00  0.00    -0.234 C  
HETATM   36  C   UNL     1     -13.135  11.914  68.425  1.00  0.00     3.728 C  
HETATM   37  H   UNL     1     -11.068  11.945  68.477  1.00  0.00     0.000 HD 
HETATM   38  C   UNL     1     -13.047   9.272  72.096  1.00  0.00    -0.443 C  
HETATM   39  O   UNL     1      -9.192  11.279  66.680  1.00  0.00    -0.171 OA 
HETATM   40  CA  UNL     1     -11.622  11.294  66.485  1.00  0.00     0.259 C  
BRANCH  18  41
HETATM   41  N   UNL     1     -10.928   4.134  68.813  1.00  0.00     2.566 N  
HETATM   42  H   UNL     1     -10.253   3.377  68.919  1.00  0.00     0.000 HD 
BRANCH  41  43
HETATM   43  C   UNL     1     -11.668   4.189  67.669  1.00  0.00     8.880 C  
HETATM   44  H2  UNL     1     -10.486   5.794  67.009  1.00  0.00     0.000 HD 
HETATM   45  N   UNL     1     -11.265   5.164  66.815  1.00  0.00    -0.026 N  
HETATM   46  H1  UNL     1     -11.818   5.206  65.959  1.00  0.00     0.000 HD 
HETATM   47  O   UNL     1     -12.603   3.450  67.383  1.00  0.00    17.192 OA 
ENDBRANCH  41  43
ENDBRANCH  18  41
BRANCH  28  48
HETATM   48  C   UNL     1     -10.212   9.225  68.833  1.00  0.00    -0.202 C  
HETATM   49  O   UNL     1     -11.614   8.921  68.888  1.00  0.00    -0.017 OA 
HETATM   50  H   UNL     1     -12.020   9.305  69.656  1.00  0.00     0.000 HD 
ENDBRANCH  28  48
BRANCH  40  51
HETATM   51  CB  UNL     1     -11.675  12.485  65.522  1.00  0.00    -0.409 C  
HETATM   52  O   UNL     1     -12.027  12.112  64.189  1.00  0.00    -0.388 OA 
HETATM   53  H   UNL     1     -12.060  12.851  63.592  1.00  0.00     0.000 HD 
ENDBRANCH  40  51
BRANCH  31  54
HETATM   54  N   UNL     1     -13.899  13.631  70.006  1.00  0.00     1.549 N  
HETATM   55  H   UNL     1     -14.900  13.677  69.813  1.00  0.00     0.000 HD 
HETATM   56  O   UNL     1     -12.024  14.769  70.624  1.00  0.00    -0.272 OA 
HETATM   57  C   UNL     1     -13.223  14.783  70.354  1.00  0.00    -0.048 C  
BRANCH  57  58
HETATM   58  C   UNL     1     -14.095  16.034  70.387  1.00  0.00     2.485 C  
BRANCH  58  59
HETATM   59  C   UNL     1     -13.609  17.166  69.458  1.00  0.00     9.490 C  
HETATM   60  H1  UNL     1     -12.891  19.090  69.635  1.00  0.00     0.000 HD 
HETATM   61  N   UNL     1     -13.212  18.341  70.249  1.00  0.00    17.727 NA 
HETATM   62  H2  UNL     1     -12.517  18.105  70.957  1.00  0.00     0.000 HD 
BRANCH  59  63
HETATM   63  C   UNL     1     -12.389  16.764  68.596  1.00  0.00     1.841 C  
BRANCH  63  64
HETATM   64  C   UNL     1     -11.783  15.411  68.983  1.00  0.00    -0.380 C  
BRANCH  64  65
HETATM   65  C   UNL     1     -12.594  14.713  70.076  1.00  0.00    -0.230 C  
HETATM   66  N   UNL     1     -12.382  15.393  71.349  1.00  0.00    -0.343 NA 
HETATM   67  H2  UNL     1     -12.589  16.391  71.293  1.00  0.00     0.000 HD 
HETATM   68  H1  UNL     1     -12.922  14.928  72.078  1.00  0.00     0.000 HD 
ENDBRANCH  64  65
ENDBRANCH  63  64
ENDBRANCH  59  63
ENDBRANCH  58  59
ENDBRANCH  57  58
ENDBRANCH  31  54
ENDBRANCH   1  14
TORSDOF 11
ENDMDL
MODEL      117
REMARK 921   NORMALIZED FREE ENERGY PREDICTED BY IDOCK:   89.12 KCAL/MOL
REMARK 922        TOTAL FREE ENERGY PREDICTED BY IDOCK:  144.47 KCAL/MOL
REMARK 923 INTER-LIGAND FREE ENERGY PREDICTED BY IDOCK:  126.97 KCAL/MOL
REMARK 924 INTRA-LIGAND FREE ENERGY PREDICTED BY IDOCK:   17.50 KCAL/MOL
REMARK 927      BINDING AFFINITY PREDICTED BY RF-SCORE:    0.00 PKD
ROOT
HETATM    1  C   UNL     1      -8.416  14.334  65.664  1.00  0.00     2.253 C  
HETATM    2  C   UNL     1      -9.587  14.681  66.631  1.00  0.00    -0.294 C  
HETATM    3  H1  UNL     1      -5.201  15.869  66.579  1.00  0.00     0.000 HD 
HETATM    4  H   UNL     1      -7.321  15.940  64.669  1.00  0.00     0.000 HD 
HETATM    5  C   UNL     1      -9.060  15.358  67.894  1.00  0.00    -0.178 C  
HETATM    6  H2  UNL     1      -5.820  16.434  68.120  1.00  0.00     0.000 HD 
HETATM    7  N   UNL     1      -8.254  16.481  67.502  1.00  0.00    -0.152 NA 
HETATM    8  O   UNL     1     -10.120  15.816  68.701  1.00  0.00    -0.203 OA 
HETATM    9  N   UNL     1      -7.591  15.548  65.573  1.00  0.00     3.312 NA 
HETATM   10  N   UNL     1      -5.995  16.139  67.159  1.00  0.00    -0.324 NA 
HETATM   11  H   UNL     1      -8.455  17.444  67.775  1.00  0.00     0.000 HD 
HETATM   12  C   UNL     1      -7.203  16.124  66.735  1.00  0.00    -0.155 C  
HETATM   13  H   UNL     1      -9.792  16.236  69.487  1.00  0.00     0.000 HD 
ENDROOT
BRANCH   1  14
HETATM   14  C   UNL     1      -7.577  13.075  66.069  1.00  0.00     2.604 C  
HETATM   15  N   UNL     1     -11.105   9.811  65.601  1.00  0.00     1.085 N  
HETATM   16  O   UNL     1      -9.653  11.804  64.176  1.00  0.00    -0.177 OA 
HETATM   17  C   UNL     1      -9.127  11.211  65.110  1.00  0.00    -0.144 C  
HETATM   18  C   UNL     1      -8.900   8.793  65.345  1.00  0.00    -0.178 C  
HETATM   19  N   UNL     1     -11.074  12.890  70.618  1.00  0.00     0.792 N  
HETATM   20  H   UNL     1      -7.953  11.078  66.747  1.00  0.00     0.000 HD 
HETATM   21  N   UNL     1      -8.228  11.721  66.003  1.00  0.00     0.147 N  
HETATM   22  H   UNL     1     -11.727  10.056  64.830  1.00  0.00     0.000 HD 
HETATM   23  C   UNL     1      -9.707   9.857  65.434  1.00  0.00    -0.306 C  
HETATM   24  C   UNL     1     -11.632   9.423  66.844  1.00  0.00     2.432 C  
HETATM   25  O   UNL     1      -6.208  12.366  67.955  1.00  0.00    -0.066 OA 
HETATM   26  O   UNL     1     -11.510   8.293  67.311  1.00  0.00     0.838 OA 
HETATM   27  N   UNL     1      -7.850  13.871  68.444  1.00  0.00    -0.133 N  
HETATM   28  CA  UNL     1     -12.255  10.607  67.656  1.00  0.00     1.968 C  
HETATM   29  N   UNL     1     -12.608  10.328  69.067  1.00  0.00     0.292 N  
HETATM   30  C   UNL     1      -7.708  13.806  69.901  1.00  0.00     1.046 C  
HETATM   31  CA  UNL     1      -9.013  14.296  70.590  1.00  0.00     3.178 C  
HETATM   32  H   UNL     1      -8.549  14.506  68.058  1.00  0.00     0.000 HD 
HETATM   33  H   UNL     1     -12.614   9.383  69.449  1.00  0.00     0.000 HD 
HETATM   34  O   UNL     1      -9.439  12.467  72.138  1.00  0.00    16.431 OA 
HETATM   35  C   UNL     1     -12.936  11.451  69.842  1.00  0.00     0.430 C  
HETATM   36  C   UNL     1      -9.827  13.115  71.166  1.00  0.00     8.777 C  
HETATM   37  H   UNL     1     -11.402  13.529  69.893  1.00  0.00     0.000 HD 
HETATM   38  C   UNL     1      -7.094  13.125  67.561  1.00  0.00    -0.150 C  
HETATM   39  O   UNL     1     -13.733  12.291  69.419  1.00  0.00     3.420 OA 
HETATM   40  CA  UNL     1     -11.971  11.769  71.021  1.00  0.00     0.131 C  
BRANCH  18  41
HETATM   41  N   UNL     1      -9.359   7.499  65.354  1.00  0.00    -0.173 N  
HETATM   42  H   UNL     1      -9.562   7.048  64.462  1.00  0.00     0.000 HD 
BRANCH  41  43
HETATM   43  C   UNL     1      -9.555   6.788  66.501  1.00  0.00    -0.140 C  
HETATM   44  H2  UNL     1      -9.063   5.028  65.469  1.00  0.00     0.000 HD 
HETATM   45  N   UNL     1      -9.342   5.456  66.352  1.00  0.00    -0.145 N  
HETATM   46  H1  UNL     1      -9.489   4.925  67.210  1.00  0.00     0.000 HD 
HETATM   47  O   UNL     1      -9.877   7.256  67.587  1.00  0.00    -0.140 OA 
ENDBRANCH  41  43
ENDBRANCH  18  41
BRANCH  28  48
HETATM   48  C   UNL     1     -11.175  11.707  67.682  1.00  0.00    -0.281 C  
HETATM   49  O   UNL     1     -11.213  12.445  68.913  1.00  0.00    -0.249 OA 
HETATM   50  H   UNL     1     -10.548  13.123  68.929  1.00  0.00     0.000 HD 
ENDBRANCH  28  48
BRANCH  40  51
HETATM   51  CB  UNL     1     -12.790  12.159  72.257  1.00  0.00     0.176 C  
HETATM   52  O   UNL     1     -13.877  13.035  71.955  1.00  0.00    -0.396 OA 
HETATM   53  H   UNL     1     -14.384  13.277  72.722  1.00  0.00     0.000 HD 
ENDBRANCH  40  51
BRANCH  31  54
HETATM   54  N   UNL     1      -8.744  15.264  71.661  1.00  0.00     3.511 N  
HETATM   55  H   UNL     1      -8.451  16.210  71.417  1.00  0.00     0.000 HD 
HETATM   56  O   UNL     1      -9.258  13.800  73.330  1.00  0.00     8.945 OA 
HETATM   57  C   UNL     1      -8.880  14.919  72.990  1.00  0.00     8.999 C  
BRANCH  57  58
HETATM   58  C   UNL     1      -8.541  16.042  73.965  1.00  0.00    17.514 C  
BRANCH  58  59
HETATM   59  C   UNL     1      -9.157  17.408  73.593  1.00  0.00    15.506 C  
HETATM   60  H1  UNL     1      -8.977  19.377  74.172  1.00  0.00     0.000 HD 
HETATM   61  N   UNL     1      -8.569  18.475  74.417  1.00  0.00     6.710 NA 
HETATM   62  H2  UNL     1      -7.551  18.487  74.355  1.00  0.00     0.000 HD 
BRANCH  59  63
HETATM   63  C   UNL     1      -8.926  17.796  72.113  1.00  0.00    14.277 C  
BRANCH  63  64
HETATM   64  C   UNL     1      -9.615  19.103  71.707  1.00  0.00     4.671 C  
BRANCH  64  65
HETATM   65  C   UNL     1      -9.773  19.219  70.190  1.00  0.00     0.883 C  
HETATM   66  N   UNL     1      -8.820  20.195  69.674  1.00  0.00     0.627 NA 
HETATM   67  H2  UNL     1      -7.861  19.979  69.946  1.00  0.00     0.000 HD 
HETATM   68  H1  UNL     1      -8.926  20.272  68.663  1.00  0.00     0.000 HD 
ENDBRANCH  64  65
ENDBRANCH  63  64
ENDBRANCH  59  63
ENDBRANCH  58  59
ENDBRANCH  57  58
ENDBRANCH  31  54
ENDBRANCH   1  14
TORSDOF 11
ENDMDL
MODEL      118
REMARK 921   NORMALIZED FREE ENERGY PREDICTED BY IDOCK:   92.51 KCAL/MOL
REMARK 922        TOTAL FREE ENERGY PREDICTED BY IDOCK:  150.04 KCAL/MOL
REMARK 923 INTER-LIGAND FREE ENERGY PREDICTED BY IDOCK:  145.29 KCAL/MOL
REMARK 924 INTRA-LIGAND FREE ENERGY PREDICTED BY IDOCK:    4.75 KCAL/MOL
REMARK 927      BINDING AFFINITY PREDICTED BY RF-SCORE:    0.00 PKD
ROOT
HETATM    1  C   UNL     1      -8.560  11.583  65.547  1.00  0.00     0.183 C  
HETATM    2  C   UNL     1      -8.224  10.217  64.878  1.00  0.00    -0.157 C  
HETATM    3  H1  UNL     1      -9.102  14.333  63.166  1.00  0.00     0.000 HD 
HETATM    4  H   UNL     1      -7.307  13.324  65.142  1.00  0.00     0.000 HD 
HETATM    5  C   UNL     1      -8.472  10.279  63.372  1.00  0.00    -0.185 C  
HETATM    6  H2  UNL     1      -9.081  13.249  61.788  1.00  0.00     0.000 HD 
HETATM    7  N   UNL     1      -7.747  11.400  62.841  1.00  0.00    -0.055 NA 
HETATM    8  O   UNL     1      -8.023   9.104  62.738  1.00  0.00    -0.124 OA 
HETATM    9  N   UNL     1      -7.905  12.611  64.724  1.00  0.00     4.369 NA 
HETATM   10  N   UNL     1      -8.813  13.447  62.752  1.00  0.00     7.510 NA 
HETATM   11  H   UNL     1      -7.022  11.318  62.127  1.00  0.00     0.000 HD 
HETATM   12  C   UNL     1      -8.129  12.573  63.388  1.00  0.00     4.888 C  
HETATM   13  H   UNL     1      -8.178   9.142  61.802  1.00  0.00     0.000 HD 
ENDROOT
BRANCH   1  14
HETATM   14  C   UNL     1     -10.088  11.863  65.743  1.00  0.00    -0.241 C  
HETATM   15  N   UNL     1      -9.693  14.786  69.566  1.00  0.00    -0.426 N  
HETATM   16  O   UNL     1      -8.876  14.469  66.856  1.00  0.00    -0.228 OA 
HETATM   17  C   UNL     1      -9.938  13.994  67.236  1.00  0.00    -0.242 C  
HETATM   18  C   UNL     1     -11.756  15.202  68.326  1.00  0.00    -0.314 C  
HETATM   19  N   UNL     1      -9.416   9.013  70.680  1.00  0.00    -0.215 N  
HETATM   20  H   UNL     1     -11.377  12.579  67.297  1.00  0.00     0.000 HD 
HETATM   21  N   UNL     1     -10.515  12.831  66.810  1.00  0.00    -0.240 N  
HETATM   22  H   UNL     1      -8.850  15.357  69.501  1.00  0.00     0.000 HD 
HETATM   23  C   UNL     1     -10.546  14.644  68.453  1.00  0.00    -0.241 C  
HETATM   24  C   UNL     1     -10.019  14.132  70.764  1.00  0.00     2.844 C  
HETATM   25  O   UNL     1     -12.122  10.558  66.061  1.00  0.00     1.827 OA 
HETATM   26  O   UNL     1     -11.002  14.413  71.447  1.00  0.00     0.544 OA 
HETATM   27  N   UNL     1     -10.197   9.572  66.786  1.00  0.00    -0.244 N  
HETATM   28  CA  UNL     1      -9.102  12.901  71.075  1.00  0.00    11.049 C  
HETATM   29  N   UNL     1      -9.531  12.021  72.185  1.00  0.00    17.256 N  
HETATM   30  C   UNL     1     -10.835   8.440  67.465  1.00  0.00    -0.013 C  
HETATM   31  CA  UNL     1      -9.872   7.838  68.527  1.00  0.00    -0.172 C  
HETATM   32  H   UNL     1      -9.178   9.623  66.792  1.00  0.00     0.000 HD 
HETATM   33  H   UNL     1     -10.277  12.281  72.829  1.00  0.00     0.000 HD 
HETATM   34  O   UNL     1     -11.315   7.780  70.486  1.00  0.00    -0.274 OA 
HETATM   35  C   UNL     1      -8.841  10.803  72.293  1.00  0.00    11.303 C  
HETATM   36  C   UNL     1     -10.296   8.228  69.960  1.00  0.00    -0.212 C  
HETATM   37  H   UNL     1      -8.528   9.262  70.243  1.00  0.00     0.000 HD 
HETATM   38  C   UNL     1     -10.892  10.574  66.139  1.00  0.00     0.043 C  
HETATM   39  O   UNL     1      -7.608  10.779  72.254  1.00  0.00     5.220 OA 
HETATM   40  CA  UNL     1      -9.685   9.519  72.058  1.00  0.00     1.198 C  
BRANCH  18  41
HETATM   41  N   UNL     1     -12.299  16.042  69.267  1.00  0.00    -0.346 N  
HETATM   42  H   UNL     1     -11.801  16.174  70.148  1.00  0.00     0.000 HD 
BRANCH  41  43
HETATM   43  C   UNL     1     -13.473  16.710  69.078  1.00  0.00     5.457 C  
HETATM   44  H2  UNL     1     -14.199  15.075  67.979  1.00  0.00     0.000 HD 
HETATM   45  N   UNL     1     -14.378  16.009  68.349  1.00  0.00     7.447 N  
HETATM   46  H1  UNL     1     -15.256  16.508  68.207  1.00  0.00     0.000 HD 
HETATM   47  O   UNL     1     -13.742  17.824  69.511  1.00  0.00    11.999 OA 
ENDBRANCH  41  43
ENDBRANCH  18  41
BRANCH  28  48
HETATM   48  C   UNL     1      -9.117  12.039  69.798  1.00  0.00     2.174 C  
HETATM   49  O   UNL     1      -8.982  10.644  70.109  1.00  0.00    -0.147 OA 
HETATM   50  H   UNL     1      -8.991  10.113  69.322  1.00  0.00     0.000 HD 
ENDBRANCH  28  48
BRANCH  40  51
HETATM   51  CB  UNL     1      -9.303   8.460  73.098  1.00  0.00    -0.135 C  
HETATM   52  O   UNL     1      -7.915   8.124  73.071  1.00  0.00    -0.149 OA 
HETATM   53  H   UNL     1      -7.678   7.467  73.716  1.00  0.00     0.000 HD 
ENDBRANCH  40  51
BRANCH  31  54
HETATM   54  N   UNL     1      -9.786   6.376  68.430  1.00  0.00    -0.130 N  
HETATM   55  H   UNL     1     -10.004   5.808  69.249  1.00  0.00     0.000 HD 
HETATM   56  O   UNL     1      -9.172   6.399  66.235  1.00  0.00    -0.158 OA 
HETATM   57  C   UNL     1      -9.416   5.756  67.254  1.00  0.00    -0.114 C  
BRANCH  57  58
HETATM   58  C   UNL     1      -9.360   4.234  67.342  1.00  0.00    -0.190 C  
BRANCH  58  59
HETATM   59  C   UNL     1     -10.026   3.509  66.153  1.00  0.00     0.205 C  
HETATM   60  H1  UNL     1      -9.620   1.917  64.908  1.00  0.00     0.000 HD 
HETATM   61  N   UNL     1      -9.180   2.396  65.694  1.00  0.00    -0.283 NA 
HETATM   62  H2  UNL     1      -8.953   1.753  66.453  1.00  0.00     0.000 HD 
BRANCH  59  63
HETATM   63  C   UNL     1     -11.411   2.915  66.501  1.00  0.00     8.707 C  
BRANCH  63  64
HETATM   64  C   UNL     1     -11.804   3.095  67.971  1.00  0.00    15.291 C  
BRANCH  64  65
HETATM   65  C   UNL     1     -12.191   1.769  68.627  1.00  0.00    15.302 C  
HETATM   66  N   UNL     1     -13.603   1.799  68.992  1.00  0.00    15.712 NA 
HETATM   67  H2  UNL     1     -14.202   2.026  68.198  1.00  0.00     0.000 HD 
HETATM   68  H1  UNL     1     -13.861   0.915  69.429  1.00  0.00     0.000 HD 
ENDBRANCH  64  65
ENDBRANCH  63  64
ENDBRANCH  59  63
ENDBRANCH  58  59
ENDBRANCH  57  58
ENDBRANCH  31  54
ENDBRANCH   1  14
TORSDOF 11
ENDMDL
MODEL      119
REMARK 921   NORMALIZED FREE ENERGY PREDICTED BY IDOCK:   92.79 KCAL/MOL
REMARK 922        TOTAL FREE ENERGY PREDICTED BY IDOCK:  150.49 KCAL/MOL
REMARK 923 INTER-LIGAND FREE ENERGY PREDICTED BY IDOCK:  131.60 KCAL/MOL
REMARK 924 INTRA-LIGAND FREE ENERGY PREDICTED BY IDOCK:   18.89 KCAL/MOL
REMARK 927      BINDING AFFINITY PREDICTED BY RF-SCORE:    0.00 PKD
ROOT
HETATM    1  C   UNL     1      -9.515  12.202  72.567  1.00  0.00    22.764 C  
HETATM    2  C   UNL     1     -10.326  12.048  71.246  1.00  0.00     7.360 C  
HETATM    3  H1  UNL     1      -6.344  10.338  72.612  1.00  0.00     0.000 HD 
HETATM    4  H   UNL     1      -8.974  10.427  73.718  1.00  0.00     0.000 HD 
HETATM    5  C   UNL     1      -9.478  11.378  70.168  1.00  0.00     2.307 C  
HETATM    6  H2  UNL     1      -6.469   9.930  70.911  1.00  0.00     0.000 HD 
HETATM    7  N   UNL     1      -8.962  10.147  70.699  1.00  0.00    -0.201 NA 
HETATM    8  O   UNL     1     -10.250  11.092  69.024  1.00  0.00    -0.226 OA 
HETATM    9  N   UNL     1      -8.889  10.894  72.814  1.00  0.00    12.791 NA 
HETATM   10  N   UNL     1      -6.923  10.195  71.785  1.00  0.00     0.767 NA 
HETATM   11  H   UNL     1      -9.154   9.230  70.293  1.00  0.00     0.000 HD 
HETATM   12  C   UNL     1      -8.195  10.334  71.794  1.00  0.00     4.391 C  
HETATM   13  H   UNL     1      -9.722  10.676  68.353  1.00  0.00     0.000 HD 
ENDROOT
BRANCH   1  14
HETATM   14  C   UNL     1      -8.471  13.370  72.567  1.00  0.00    14.818 C  
HETATM   15  N   UNL     1     -11.607  16.998  72.007  1.00  0.00    -0.185 N  
HETATM   16  O   UNL     1     -10.949  14.808  73.705  1.00  0.00     1.059 OA 
HETATM   17  C   UNL     1     -10.074  15.366  73.056  1.00  0.00     5.221 C  
HETATM   18  C   UNL     1      -9.548  17.749  73.084  1.00  0.00    11.163 C  
HETATM   19  N   UNL     1     -10.102  14.097  67.112  1.00  0.00    -0.255 N  
HETATM   20  H   UNL     1      -8.390  15.417  71.943  1.00  0.00     0.000 HD 
HETATM   21  N   UNL     1      -8.970  14.786  72.498  1.00  0.00     6.328 N  
HETATM   22  H   UNL     1     -12.481  16.802  72.495  1.00  0.00     0.000 HD 
HETATM   23  C   UNL     1     -10.369  16.788  72.647  1.00  0.00     5.702 C  
HETATM   24  C   UNL     1     -11.621  17.483  70.690  1.00  0.00     2.883 C  
HETATM   25  O   UNL     1      -6.462  13.977  71.329  1.00  0.00     0.019 OA 
HETATM   26  O   UNL     1     -11.235  18.606  70.374  1.00  0.00     2.794 OA 
HETATM   27  N   UNL     1      -7.962  12.685  70.197  1.00  0.00     2.083 N  
HETATM   28  CA  UNL     1     -12.028  16.404  69.630  1.00  0.00     0.321 C  
HETATM   29  N   UNL     1     -11.832  16.766  68.208  1.00  0.00     0.407 N  
HETATM   30  C   UNL     1      -7.310  12.780  68.887  1.00  0.00    -0.008 C  
HETATM   31  CA  UNL     1      -8.328  12.465  67.755  1.00  0.00    -0.164 C  
HETATM   32  H   UNL     1      -8.810  12.122  70.270  1.00  0.00     0.000 HD 
HETATM   33  H   UNL     1     -11.613  17.718  67.915  1.00  0.00     0.000 HD 
HETATM   34  O   UNL     1      -8.003  14.379  66.288  1.00  0.00     0.787 OA 
HETATM   35  C   UNL     1     -11.970  15.714  67.291  1.00  0.00     0.527 C  
HETATM   36  C   UNL     1      -8.769  13.748  67.017  1.00  0.00    -0.198 C  
HETATM   37  H   UNL     1     -10.724  13.476  67.631  1.00  0.00     0.000 HD 
HETATM   38  C   UNL     1      -7.499  13.312  71.336  1.00  0.00     6.098 C  
HETATM   39  O   UNL     1     -12.942  14.957  67.351  1.00  0.00     1.248 OA 
HETATM   40  CA  UNL     1     -10.688  15.326  66.501  1.00  0.00    -0.311 C  
BRANCH  18  41
HETATM   41  N   UNL     1      -9.848  19.087  73.007  1.00  0.00     3.872 N  
HETATM   42  H   UNL     1      -9.167  19.760  73.359  1.00  0.00     0.000 HD 
BRANCH  41  43
HETATM   43  C   UNL     1     -11.014  19.557  72.480  1.00  0.00     5.499 C  
HETATM   44  H2  UNL     1     -10.577  18.562  70.684  1.00  0.00     0.000 HD 
HETATM   45  N   UNL     1     -11.226  19.156  71.200  1.00  0.00     3.229 N  
HETATM   46  H1  UNL     1     -12.098  19.508  70.806  1.00  0.00     0.000 HD 
HETATM   47  O   UNL     1     -11.831  20.262  73.062  1.00  0.00    11.059 OA 
ENDBRANCH  41  43
ENDBRANCH  18  41
BRANCH  28  48
HETATM   48  C   UNL     1     -11.119  15.190  69.904  1.00  0.00    -0.284 C  
HETATM   49  O   UNL     1      -9.872  15.303  69.202  1.00  0.00    -0.215 OA 
HETATM   50  H   UNL     1      -9.312  14.555  69.371  1.00  0.00     0.000 HD 
ENDBRANCH  28  48
BRANCH  40  51
HETATM   51  CB  UNL     1     -11.050  15.071  65.034  1.00  0.00    -0.413 C  
HETATM   52  O   UNL     1     -11.814  13.878  64.845  1.00  0.00    -0.352 OA 
HETATM   53  H   UNL     1     -12.039  13.721  63.935  1.00  0.00     0.000 HD 
ENDBRANCH  40  51
BRANCH  31  54
HETATM   54  N   UNL     1      -7.792  11.507  66.780  1.00  0.00    -0.189 N  
HETATM   55  H   UNL     1      -8.436  10.907  66.264  1.00  0.00     0.000 HD 
HETATM   56  O   UNL     1      -5.626  12.125  67.125  1.00  0.00    -0.128 OA 
HETATM   57  C   UNL     1      -6.436  11.403  66.548  1.00  0.00    -0.081 C  
BRANCH  57  58
HETATM   58  C   UNL     1      -6.058  10.343  65.518  1.00  0.00    -0.123 C  
BRANCH  58  59
HETATM   59  C   UNL     1      -7.170   9.310  65.239  1.00  0.00    -0.090 C  
HETATM   60  H1  UNL     1      -8.553   8.909  63.764  1.00  0.00     0.000 HD 
HETATM   61  N   UNL     1      -7.818   9.592  63.948  1.00  0.00    -0.126 NA 
HETATM   62  H2  UNL     1      -7.142   9.639  63.186  1.00  0.00     0.000 HD 
BRANCH  59  63
HETATM   63  C   UNL     1      -6.647   7.855  65.177  1.00  0.00    -0.048 C  
BRANCH  63  64
HETATM   64  C   UNL     1      -7.758   6.801  65.213  1.00  0.00    -0.106 C  
BRANCH  64  65
HETATM   65  C   UNL     1      -7.446   5.675  66.201  1.00  0.00    -0.082 C  
HETATM   66  N   UNL     1      -8.173   4.472  65.813  1.00  0.00    -0.109 NA 
HETATM   67  H2  UNL     1      -7.984   4.201  64.848  1.00  0.00     0.000 HD 
HETATM   68  H1  UNL     1      -7.965   3.721  66.471  1.00  0.00     0.000 HD 
ENDBRANCH  64  65
ENDBRANCH  63  64
ENDBRANCH  59  63
ENDBRANCH  58  59
ENDBRANCH  57  58
ENDBRANCH  31  54
ENDBRANCH   1  14
TORSDOF 11
ENDMDL
MODEL      120
REMARK 921   NORMALIZED FREE ENERGY PREDICTED BY IDOCK:  103.08 KCAL/MOL
REMARK 922        TOTAL FREE ENERGY PREDICTED BY IDOCK:  167.41 KCAL/MOL
REMARK 923 INTER-LIGAND FREE ENERGY PREDICTED BY IDOCK:  138.98 KCAL/MOL
REMARK 924 INTRA-LIGAND FREE ENERGY PREDICTED BY IDOCK:   28.43 KCAL/MOL
REMARK 927      BINDING AFFINITY PREDICTED BY RF-SCORE:    0.00 PKD
ROOT
HETATM    1  C   UNL     1      -8.040  12.213  66.220  1.00  0.00     0.341 C  
HETATM    2  C   UNL     1      -7.618  12.938  64.907  1.00  0.00     7.060 C  
HETATM    3  H1  UNL     1      -6.031  13.134  69.160  1.00  0.00     0.000 HD 
HETATM    4  H   UNL     1      -6.576  11.023  67.318  1.00  0.00     0.000 HD 
HETATM    5  C   UNL     1      -6.643  14.073  65.208  1.00  0.00    12.833 C  
HETATM    6  H2  UNL     1      -5.222  14.430  68.300  1.00  0.00     0.000 HD 
HETATM    7  N   UNL     1      -5.551  13.540  65.974  1.00  0.00     3.815 NA 
HETATM    8  O   UNL     1      -6.135  14.631  64.018  1.00  0.00    20.385 OA 
HETATM    9  N   UNL     1      -6.795  11.953  66.959  1.00  0.00    -0.143 NA 
HETATM   10  N   UNL     1      -5.727  13.544  68.278  1.00  0.00    -0.091 NA 
HETATM   11  H   UNL     1      -4.578  13.568  65.668  1.00  0.00     0.000 HD 
HETATM   12  C   UNL     1      -5.952  12.997  67.143  1.00  0.00     0.298 C  
HETATM   13  H   UNL     1      -5.529  15.338  64.205  1.00  0.00     0.000 HD 
ENDROOT
BRANCH   1  14
HETATM   14  C   UNL     1      -9.096  12.980  67.086  1.00  0.00    -0.225 C  
HETATM   15  N   UNL     1      -6.780  12.653  71.311  1.00  0.00     2.070 N  
HETATM   16  O   UNL     1      -6.508  13.606  68.641  1.00  0.00    -0.081 OA 
HETATM   17  C   UNL     1      -7.615  13.537  69.158  1.00  0.00     0.177 C  
HETATM   18  C   UNL     1      -8.295  14.567  71.263  1.00  0.00     4.165 C  
HETATM   19  N   UNL     1      -9.850   7.908  69.666  1.00  0.00    -0.177 N  
HETATM   20  H   UNL     1      -9.601  13.170  69.159  1.00  0.00     0.000 HD 
HETATM   21  N   UNL     1      -8.794  13.234  68.537  1.00  0.00    -0.112 N  
HETATM   22  H   UNL     1      -5.770  12.706  71.177  1.00  0.00     0.000 HD 
HETATM   23  C   UNL     1      -7.636  13.568  70.666  1.00  0.00     3.113 C  
HETATM   24  C   UNL     1      -7.336  11.666  72.141  1.00  0.00     9.820 C  
HETATM   25  O   UNL     1     -11.477  12.809  67.574  1.00  0.00    -0.294 OA 
HETATM   26  O   UNL     1      -7.914  11.913  73.197  1.00  0.00    16.617 OA 
HETATM   27  N   UNL     1     -10.446  10.854  67.011  1.00  0.00    -0.232 N  
HETATM   28  CA  UNL     1      -7.292  10.229  71.521  1.00  0.00     2.248 C  
HETATM   29  N   UNL     1      -8.071   9.183  72.221  1.00  0.00     0.473 N  
HETATM   30  C   UNL     1     -11.572   9.973  67.331  1.00  0.00     1.053 C  
HETATM   31  CA  UNL     1     -11.068   8.523  67.576  1.00  0.00     0.415 C  
HETATM   32  H   UNL     1      -9.593  10.429  66.646  1.00  0.00     0.000 HD 
HETATM   33  H   UNL     1      -8.473   9.331  73.146  1.00  0.00     0.000 HD 
HETATM   34  O   UNL     1     -12.120   8.017  69.711  1.00  0.00     0.665 OA 
HETATM   35  C   UNL     1      -8.218   7.971  71.528  1.00  0.00    -0.115 C  
HETATM   36  C   UNL     1     -11.074   8.168  69.080  1.00  0.00     0.207 C  
HETATM   37  H   UNL     1      -9.020   7.930  69.073  1.00  0.00     0.000 HD 
HETATM   38  C   UNL     1     -10.469  12.225  67.172  1.00  0.00    -0.219 C  
HETATM   39  O   UNL     1      -7.240   7.425  71.012  1.00  0.00    -0.066 OA 
HETATM   40  CA  UNL     1      -9.669   7.596  71.113  1.00  0.00    -0.162 C  
BRANCH  18  41
HETATM   41  N   UNL     1      -8.172  14.857  72.600  1.00  0.00     5.837 N  
HETATM   42  H   UNL     1      -8.997  15.174  73.108  1.00  0.00     0.000 HD 
BRANCH  41  43
HETATM   43  C   UNL     1      -6.995  14.739  73.279  1.00  0.00     3.802 C  
HETATM   44  H2  UNL     1      -6.761  16.823  73.191  1.00  0.00     0.000 HD 
HETATM   45  N   UNL     1      -6.381  15.929  73.502  1.00  0.00     3.419 N  
HETATM   46  H1  UNL     1      -5.501  15.841  74.010  1.00  0.00     0.000 HD 
HETATM   47  O   UNL     1      -6.503  13.692  73.685  1.00  0.00     0.525 OA 
ENDBRANCH  41  43
ENDBRANCH  18  41
BRANCH  28  48
HETATM   48  C   UNL     1      -7.904  10.365  70.113  1.00  0.00     0.208 C  
HETATM   49  O   UNL     1      -7.159  11.291  69.308  1.00  0.00    -0.113 OA 
HETATM   50  H   UNL     1      -7.536  11.374  68.440  1.00  0.00     0.000 HD 
ENDBRANCH  28  48
BRANCH  40  51
HETATM   51  CB  UNL     1      -9.901   6.103  71.370  1.00  0.00    -0.175 C  
HETATM   52  O   UNL     1      -8.750   5.438  71.893  1.00  0.00    -0.133 OA 
HETATM   53  H   UNL     1      -8.895   4.512  72.052  1.00  0.00     0.000 HD 
ENDBRANCH  40  51
BRANCH  31  54
HETATM   54  N   UNL     1     -11.860   7.529  66.843  1.00  0.00     1.558 N  
HETATM   55  H   UNL     1     -11.834   7.522  65.823  1.00  0.00     0.000 HD 
HETATM   56  O   UNL     1     -12.681   6.556  68.734  1.00  0.00     3.351 OA 
HETATM   57  C   UNL     1     -12.640   6.603  67.506  1.00  0.00     7.112 C  
BRANCH  57  58
HETATM   58  C   UNL     1     -13.410   5.661  66.586  1.00  0.00    14.482 C  
BRANCH  58  59
HETATM   59  C   UNL     1     -12.737   5.426  65.217  1.00  0.00     5.894 C  
HETATM   60  H1  UNL     1     -12.918   6.112  63.283  1.00  0.00     0.000 HD 
HETATM   61  N   UNL     1     -13.364   6.268  64.187  1.00  0.00     7.418 NA 
HETATM   62  H2  UNL     1     -13.360   7.254  64.448  1.00  0.00     0.000 HD 
BRANCH  59  63
HETATM   63  C   UNL     1     -11.225   5.757  65.219  1.00  0.00     2.544 C  
BRANCH  63  64
HETATM   64  C   UNL     1     -10.615   5.831  66.622  1.00  0.00    -0.347 C  
BRANCH  64  65
HETATM   65  C   UNL     1      -9.118   5.516  66.611  1.00  0.00    -0.126 C  
HETATM   66  N   UNL     1      -8.922   4.080  66.781  1.00  0.00    -0.123 NA 
HETATM   67  H2  UNL     1      -9.435   3.536  66.088  1.00  0.00     0.000 HD 
HETATM   68  H1  UNL     1      -7.924   3.870  66.774  1.00  0.00     0.000 HD 
ENDBRANCH  64  65
ENDBRANCH  63  64
ENDBRANCH  59  63
ENDBRANCH  58  59
ENDBRANCH  57  58
ENDBRANCH  31  54
ENDBRANCH   1  14
TORSDOF 11
ENDMDL
