MODEL        1
REMARK 921   NORMALIZED FREE ENERGY PREDICTED BY IDOCK:   -7.50 KCAL/MOL
REMARK 922        TOTAL FREE ENERGY PREDICTED BY IDOCK:   -9.87 KCAL/MOL
REMARK 923 INTER-LIGAND FREE ENERGY PREDICTED BY IDOCK:   -9.25 KCAL/MOL
REMARK 924 INTRA-LIGAND FREE ENERGY PREDICTED BY IDOCK:   -0.62 KCAL/MOL
REMARK 927      BINDING AFFINITY PREDICTED BY RF-SCORE:    0.00 PKD
ROOT
HETATM    1  C   UNL     1     -10.508  19.377  67.581  1.00  0.00    -0.457 C  
HETATM    2  S   UNL     1     -10.046  18.328  66.227  1.00  0.00    -0.358 S  
HETATM    3  O   UNL     1      -8.610  18.421  66.041  1.00  0.00    -0.501 OA 
HETATM    4  O   UNL     1     -10.957  18.578  65.124  1.00  0.00    -0.571 OA 
ENDROOT
BRANCH   2   5
HETATM    5  C   UNL     1     -10.400  16.696  66.837  1.00  0.00    -0.299 A  
HETATM    6  C   UNL     1     -10.065  15.575  66.069  1.00  0.00    -0.354 A  
HETATM    7  C   UNL     1     -10.397  14.287  66.520  1.00  0.00    -0.278 A  
HETATM    8  C   UNL     1     -11.048  14.115  67.749  1.00  0.00    -0.292 A  
HETATM    9 CL   UNL     1     -10.013  12.982  65.454  1.00  0.00    -0.242 Cl 
HETATM   10  C   UNL     1     -11.332  15.265  68.524  1.00  0.00    -0.337 A  
HETATM   11  C   UNL     1     -11.007  16.548  68.081  1.00  0.00    -0.336 A  
BRANCH   8  12
HETATM   12  C   UNL     1     -11.579  12.827  68.293  1.00  0.00    -0.334 C  
HETATM   13  O   UNL     1     -12.249  12.153  67.510  1.00  0.00    -0.474 OA 
HETATM   14  N   UNL     1     -11.318  12.493  69.614  1.00  0.00    -0.479 N  
HETATM   15  H   UNL     1     -10.792  13.171  70.165  1.00  0.00     0.000 HD 
BRANCH  14  16
HETATM   16  C   UNL     1     -11.713  11.297  70.276  1.00  0.00    -0.324 A  
HETATM   17  C   UNL     1     -12.722  11.262  71.234  1.00  0.00    -0.510 A  
HETATM   18  C   UNL     1     -13.104  10.060  71.823  1.00  0.00    -0.562 A  
HETATM   19  C   UNL     1     -12.467   8.863  71.485  1.00  0.00    -0.324 A  
HETATM   20  C   UNL     1     -11.386   8.850  70.580  1.00  0.00    -0.299 A  
HETATM   21 CL   UNL     1     -13.158   7.441  72.198  1.00  0.00    -0.136 Cl 
HETATM   22  C   UNL     1     -11.060  10.090  69.955  1.00  0.00    -0.350 A  
BRANCH  20  23
HETATM   23  C   UNL     1     -10.575   7.639  70.274  1.00  0.00    -0.230 A  
HETATM   24  C   UNL     1     -11.078   6.532  69.581  1.00  0.00    -0.435 A  
HETATM   25  C   UNL     1     -10.262   5.432  69.327  1.00  0.00    -0.315 A  
HETATM   26  C   UNL     1      -8.966   5.428  69.810  1.00  0.00    -0.146 A  
HETATM   27  C   UNL     1      -8.543   6.534  70.525  1.00  0.00    -0.143 A  
HETATM   28  N   UNL     1      -9.308   7.628  70.765  1.00  0.00    -0.161 NA 
ENDBRANCH  20  23
ENDBRANCH  14  16
ENDBRANCH   8  12
ENDBRANCH   2   5
TORSDOF 4
ENDMDL
MODEL        2
REMARK 921   NORMALIZED FREE ENERGY PREDICTED BY IDOCK:   -7.35 KCAL/MOL
REMARK 922        TOTAL FREE ENERGY PREDICTED BY IDOCK:   -9.69 KCAL/MOL
REMARK 923 INTER-LIGAND FREE ENERGY PREDICTED BY IDOCK:   -9.17 KCAL/MOL
REMARK 924 INTRA-LIGAND FREE ENERGY PREDICTED BY IDOCK:   -0.52 KCAL/MOL
REMARK 927      BINDING AFFINITY PREDICTED BY RF-SCORE:    0.00 PKD
ROOT
HETATM    1  C   UNL     1     -10.411  18.933  66.118  1.00  0.00    -0.457 C  
HETATM    2  S   UNL     1      -9.115  17.967  66.848  1.00  0.00    -0.267 S  
HETATM    3  O   UNL     1      -8.666  18.635  68.055  1.00  0.00    -0.288 OA 
HETATM    4  O   UNL     1      -8.173  17.602  65.805  1.00  0.00    -0.543 OA 
ENDROOT
BRANCH   2   5
HETATM    5  C   UNL     1      -9.948  16.476  67.343  1.00  0.00    -0.267 A  
HETATM    6  C   UNL     1     -10.885  16.510  68.381  1.00  0.00    -0.348 A  
HETATM    7  C   UNL     1     -11.501  15.324  68.815  1.00  0.00    -0.331 A  
HETATM    8  C   UNL     1     -11.195  14.104  68.199  1.00  0.00    -0.299 A  
HETATM    9 CL   UNL     1     -12.577  15.470  70.158  1.00  0.00    -0.371 Cl 
HETATM   10  C   UNL     1     -10.277  14.108  67.120  1.00  0.00    -0.258 A  
HETATM   11  C   UNL     1      -9.660  15.282  66.686  1.00  0.00    -0.276 A  
BRANCH   8  12
HETATM   12  C   UNL     1     -11.666  12.753  68.636  1.00  0.00    -0.324 C  
HETATM   13  O   UNL     1     -12.123  12.034  67.747  1.00  0.00    -0.537 OA 
HETATM   14  N   UNL     1     -11.590  12.413  69.979  1.00  0.00    -0.525 N  
HETATM   15  H   UNL     1     -11.237  13.127  70.615  1.00  0.00     0.000 HD 
BRANCH  14  16
HETATM   16  C   UNL     1     -11.956  11.165  70.555  1.00  0.00    -0.380 A  
HETATM   17  C   UNL     1     -12.999  11.031  71.467  1.00  0.00    -0.553 A  
HETATM   18  C   UNL     1     -13.351   9.782  71.970  1.00  0.00    -0.547 A  
HETATM   19  C   UNL     1     -12.648   8.635  71.593  1.00  0.00    -0.338 A  
HETATM   20  C   UNL     1     -11.532   8.720  70.735  1.00  0.00    -0.309 A  
HETATM   21 CL   UNL     1     -13.302   7.146  72.194  1.00  0.00    -0.115 Cl 
HETATM   22  C   UNL     1     -11.238  10.007  70.195  1.00  0.00    -0.367 A  
BRANCH  20  23
HETATM   23  C   UNL     1     -10.656   7.565  70.395  1.00  0.00    -0.229 A  
HETATM   24  C   UNL     1     -11.101   6.447  69.680  1.00  0.00    -0.465 A  
HETATM   25  C   UNL     1     -10.226   5.401  69.394  1.00  0.00    -0.334 A  
HETATM   26  C   UNL     1      -8.928   5.460  69.870  1.00  0.00    -0.147 A  
HETATM   27  C   UNL     1      -8.563   6.571  70.608  1.00  0.00    -0.139 A  
HETATM   28  N   UNL     1      -9.387   7.614  70.878  1.00  0.00    -0.157 NA 
ENDBRANCH  20  23
ENDBRANCH  14  16
ENDBRANCH   8  12
ENDBRANCH   2   5
TORSDOF 4
ENDMDL
MODEL        3
REMARK 921   NORMALIZED FREE ENERGY PREDICTED BY IDOCK:   -7.30 KCAL/MOL
REMARK 922        TOTAL FREE ENERGY PREDICTED BY IDOCK:   -9.63 KCAL/MOL
REMARK 923 INTER-LIGAND FREE ENERGY PREDICTED BY IDOCK:   -8.90 KCAL/MOL
REMARK 924 INTRA-LIGAND FREE ENERGY PREDICTED BY IDOCK:   -0.74 KCAL/MOL
REMARK 927      BINDING AFFINITY PREDICTED BY RF-SCORE:    0.00 PKD
ROOT
HETATM    1  C   UNL     1      -8.523  18.419  68.325  1.00  0.00    -0.303 C  
HETATM    2  S   UNL     1      -9.716  17.918  67.111  1.00  0.00    -0.301 S  
HETATM    3  O   UNL     1      -9.045  17.788  65.831  1.00  0.00    -0.516 OA 
HETATM    4  O   UNL     1     -10.893  18.756  67.254  1.00  0.00    -0.443 OA 
ENDROOT
BRANCH   2   5
HETATM    5  C   UNL     1     -10.173  16.283  67.641  1.00  0.00    -0.272 A  
HETATM    6  C   UNL     1      -9.589  15.164  67.038  1.00  0.00    -0.235 A  
HETATM    7  C   UNL     1      -9.991  13.870  67.412  1.00  0.00    -0.240 A  
HETATM    8  C   UNL     1     -10.966  13.694  68.402  1.00  0.00    -0.284 A  
HETATM    9 CL   UNL     1      -9.265  12.565  66.544  1.00  0.00    -0.230 Cl 
HETATM   10  C   UNL     1     -11.505  14.844  69.026  1.00  0.00    -0.322 A  
HETATM   11  C   UNL     1     -11.111  16.132  68.658  1.00  0.00    -0.356 A  
BRANCH   8  12
HETATM   12  C   UNL     1     -11.586  12.393  68.807  1.00  0.00    -0.326 C  
HETATM   13  O   UNL     1     -12.159  11.773  67.911  1.00  0.00    -0.592 OA 
HETATM   14  N   UNL     1     -11.505  11.991  70.132  1.00  0.00    -0.526 N  
HETATM   15  H   UNL     1     -11.045  12.629  70.780  1.00  0.00     0.000 HD 
BRANCH  14  16
HETATM   16  C   UNL     1     -12.003  10.774  70.675  1.00  0.00    -0.367 A  
HETATM   17  C   UNL     1     -13.115  10.720  71.512  1.00  0.00    -0.517 A  
HETATM   18  C   UNL     1     -13.593   9.501  71.985  1.00  0.00    -0.492 A  
HETATM   19  C   UNL     1     -12.954   8.304  71.651  1.00  0.00    -0.337 A  
HETATM   20  C   UNL     1     -11.778   8.304  70.872  1.00  0.00    -0.256 A  
HETATM   21 CL   UNL     1     -13.758   6.869  72.199  1.00  0.00    -0.117 Cl 
HETATM   22  C   UNL     1     -11.351   9.566  70.360  1.00  0.00    -0.318 A  
BRANCH  20  23
HETATM   23  C   UNL     1     -10.970   7.086  70.588  1.00  0.00    -0.260 A  
HETATM   24  C   UNL     1     -11.029   6.390  69.376  1.00  0.00    -0.421 A  
HETATM   25  C   UNL     1     -10.243   5.257  69.176  1.00  0.00    -0.281 A  
HETATM   26  C   UNL     1      -9.443   4.802  70.209  1.00  0.00    -0.243 A  
HETATM   27  C   UNL     1      -9.462   5.510  71.398  1.00  0.00    -0.148 A  
HETATM   28  N   UNL     1     -10.199   6.629  71.609  1.00  0.00    -0.192 NA 
ENDBRANCH  20  23
ENDBRANCH  14  16
ENDBRANCH   8  12
ENDBRANCH   2   5
TORSDOF 4
ENDMDL
MODEL        4
REMARK 921   NORMALIZED FREE ENERGY PREDICTED BY IDOCK:   -7.25 KCAL/MOL
REMARK 922        TOTAL FREE ENERGY PREDICTED BY IDOCK:   -9.57 KCAL/MOL
REMARK 923 INTER-LIGAND FREE ENERGY PREDICTED BY IDOCK:   -8.99 KCAL/MOL
REMARK 924 INTRA-LIGAND FREE ENERGY PREDICTED BY IDOCK:   -0.57 KCAL/MOL
REMARK 927      BINDING AFFINITY PREDICTED BY RF-SCORE:    0.00 PKD
ROOT
HETATM    1  C   UNL     1     -10.748  18.888  67.289  1.00  0.00    -0.449 C  
HETATM    2  S   UNL     1     -10.135  17.814  66.016  1.00  0.00    -0.188 S  
HETATM    3  O   UNL     1      -8.694  17.969  65.936  1.00  0.00    -0.506 OA 
HETATM    4  O   UNL     1     -10.968  17.980  64.838  1.00  0.00    -0.776 OA 
ENDROOT
BRANCH   2   5
HETATM    5  C   UNL     1     -10.461  16.190  66.661  1.00  0.00    -0.300 A  
HETATM    6  C   UNL     1     -10.023  15.059  65.963  1.00  0.00    -0.334 A  
HETATM    7  C   UNL     1     -10.331  13.774  66.439  1.00  0.00    -0.290 A  
HETATM    8  C   UNL     1     -11.062  13.616  67.623  1.00  0.00    -0.293 A  
HETATM    9 CL   UNL     1      -9.813  12.452  65.455  1.00  0.00    -0.246 Cl 
HETATM   10  C   UNL     1     -11.452  14.778  68.331  1.00  0.00    -0.336 A  
HETATM   11  C   UNL     1     -11.151  16.058  67.863  1.00  0.00    -0.307 A  
BRANCH   8  12
HETATM   12  C   UNL     1     -11.576  12.324  68.177  1.00  0.00    -0.339 C  
HETATM   13  O   UNL     1     -12.158  11.594  67.376  1.00  0.00    -0.605 OA 
HETATM   14  N   UNL     1     -11.396  12.049  69.525  1.00  0.00    -0.426 N  
HETATM   15  H   UNL     1     -10.940  12.768  70.085  1.00  0.00     0.000 HD 
BRANCH  14  16
HETATM   16  C   UNL     1     -11.785  10.860  70.202  1.00  0.00    -0.347 A  
HETATM   17  C   UNL     1     -12.847  10.816  71.102  1.00  0.00    -0.513 A  
HETATM   18  C   UNL     1     -13.219   9.620  71.707  1.00  0.00    -0.520 A  
HETATM   19  C   UNL     1     -12.521   8.438  71.446  1.00  0.00    -0.288 A  
HETATM   20  C   UNL     1     -11.389   8.437  70.606  1.00  0.00    -0.262 A  
HETATM   21 CL   UNL     1     -13.202   7.013  72.165  1.00  0.00    -0.117 Cl 
HETATM   22  C   UNL     1     -11.072   9.669  69.960  1.00  0.00    -0.293 A  
BRANCH  20  23
HETATM   23  C   UNL     1     -10.519   7.249  70.387  1.00  0.00    -0.220 A  
HETATM   24  C   UNL     1      -9.165   7.213  70.739  1.00  0.00    -0.157 A  
HETATM   25  C   UNL     1      -8.408   6.066  70.507  1.00  0.00    -0.128 A  
HETATM   26  C   UNL     1      -9.000   4.984  69.880  1.00  0.00    -0.142 A  
HETATM   27  C   UNL     1     -10.331   5.099  69.517  1.00  0.00    -0.222 A  
HETATM   28  N   UNL     1     -11.095   6.194  69.754  1.00  0.00    -0.387 NA 
ENDBRANCH  20  23
ENDBRANCH  14  16
ENDBRANCH   8  12
ENDBRANCH   2   5
TORSDOF 4
ENDMDL
MODEL        5
REMARK 921   NORMALIZED FREE ENERGY PREDICTED BY IDOCK:   -7.12 KCAL/MOL
REMARK 922        TOTAL FREE ENERGY PREDICTED BY IDOCK:   -9.40 KCAL/MOL
REMARK 923 INTER-LIGAND FREE ENERGY PREDICTED BY IDOCK:   -8.97 KCAL/MOL
REMARK 924 INTRA-LIGAND FREE ENERGY PREDICTED BY IDOCK:   -0.43 KCAL/MOL
REMARK 927      BINDING AFFINITY PREDICTED BY RF-SCORE:    0.00 PKD
ROOT
HETATM    1  C   UNL     1     -10.644  18.579  67.346  1.00  0.00    -0.424 C  
HETATM    2  S   UNL     1     -10.153  17.426  66.090  1.00  0.00    -0.264 S  
HETATM    3  O   UNL     1      -8.703  17.396  66.034  1.00  0.00    -0.499 OA 
HETATM    4  O   UNL     1     -10.939  17.687  64.898  1.00  0.00    -0.886 OA 
ENDROOT
BRANCH   2   5
HETATM    5  C   UNL     1     -10.693  15.862  66.739  1.00  0.00    -0.281 A  
HETATM    6  C   UNL     1     -11.348  15.807  67.975  1.00  0.00    -0.310 A  
HETATM    7  C   UNL     1     -11.724  14.567  68.519  1.00  0.00    -0.318 A  
HETATM    8  C   UNL     1     -11.462  13.381  67.821  1.00  0.00    -0.351 A  
HETATM    9 CL   UNL     1     -12.449  14.610  70.087  1.00  0.00    -0.381 Cl 
HETATM   10  C   UNL     1     -10.840  13.473  66.552  1.00  0.00    -0.283 A  
HETATM   11  C   UNL     1     -10.463  14.701  66.007  1.00  0.00    -0.313 A  
BRANCH   8  12
HETATM   12  C   UNL     1     -11.681  11.991  68.330  1.00  0.00    -0.334 C  
HETATM   13  O   UNL     1     -12.151  11.194  67.518  1.00  0.00    -0.444 OA 
HETATM   14  N   UNL     1     -11.379  11.701  69.653  1.00  0.00    -0.405 N  
HETATM   15  H   UNL     1     -11.044  12.473  70.229  1.00  0.00     0.000 HD 
BRANCH  14  16
HETATM   16  C   UNL     1     -11.490  10.432  70.284  1.00  0.00    -0.325 A  
HETATM   17  C   UNL     1     -12.237  10.226  71.441  1.00  0.00    -0.481 A  
HETATM   18  C   UNL     1     -12.354   8.956  71.999  1.00  0.00    -0.460 A  
HETATM   19  C   UNL     1     -11.703   7.861  71.425  1.00  0.00    -0.281 A  
HETATM   20  C   UNL     1     -10.869   8.022  70.300  1.00  0.00    -0.241 A  
HETATM   21 CL   UNL     1     -12.068   6.330  72.155  1.00  0.00    -0.360 Cl 
HETATM   22  C   UNL     1     -10.820   9.327  69.723  1.00  0.00    -0.239 A  
BRANCH  20  23
HETATM   23  C   UNL     1     -10.042   6.931  69.716  1.00  0.00    -0.184 A  
HETATM   24  C   UNL     1     -10.580   5.865  68.986  1.00  0.00    -0.360 A  
HETATM   25  C   UNL     1      -9.745   4.877  68.466  1.00  0.00    -0.218 A  
HETATM   26  C   UNL     1      -8.387   4.938  68.723  1.00  0.00    -0.083 A  
HETATM   27  C   UNL     1      -7.924   5.994  69.488  1.00  0.00    -0.106 A  
HETATM   28  N   UNL     1      -8.711   6.981  69.984  1.00  0.00    -0.141 NA 
ENDBRANCH  20  23
ENDBRANCH  14  16
ENDBRANCH   8  12
ENDBRANCH   2   5
TORSDOF 4
ENDMDL
MODEL        6
REMARK 921   NORMALIZED FREE ENERGY PREDICTED BY IDOCK:   -6.99 KCAL/MOL
REMARK 922        TOTAL FREE ENERGY PREDICTED BY IDOCK:   -9.25 KCAL/MOL
REMARK 923 INTER-LIGAND FREE ENERGY PREDICTED BY IDOCK:   -8.60 KCAL/MOL
REMARK 924 INTRA-LIGAND FREE ENERGY PREDICTED BY IDOCK:   -0.65 KCAL/MOL
REMARK 927      BINDING AFFINITY PREDICTED BY RF-SCORE:    0.00 PKD
ROOT
HETATM    1  C   UNL     1      -8.582  18.252  66.334  1.00  0.00    -0.242 C  
HETATM    2  S   UNL     1     -10.344  18.039  66.351  1.00  0.00    -0.351 S  
HETATM    3  O   UNL     1     -10.836  18.157  64.992  1.00  0.00    -0.707 OA 
HETATM    4  O   UNL     1     -10.892  18.859  67.416  1.00  0.00    -0.458 OA 
ENDROOT
BRANCH   2   5
HETATM    5  C   UNL     1     -10.543  16.343  66.845  1.00  0.00    -0.252 A  
HETATM    6  C   UNL     1     -10.275  15.314  65.935  1.00  0.00    -0.353 A  
HETATM    7  C   UNL     1     -10.489  13.974  66.302  1.00  0.00    -0.286 A  
HETATM    8  C   UNL     1     -10.955  13.660  67.585  1.00  0.00    -0.283 A  
HETATM    9 CL   UNL     1     -10.205  12.792  65.074  1.00  0.00    -0.302 Cl 
HETATM   10  C   UNL     1     -11.173  14.720  68.498  1.00  0.00    -0.291 A  
HETATM   11  C   UNL     1     -10.964  16.052  68.139  1.00  0.00    -0.339 A  
BRANCH   8  12
HETATM   12  C   UNL     1     -11.353  12.302  68.070  1.00  0.00    -0.293 C  
HETATM   13  O   UNL     1     -12.161  11.698  67.365  1.00  0.00    -0.605 OA 
HETATM   14  N   UNL     1     -10.826  11.830  69.265  1.00  0.00    -0.416 N  
HETATM   15  H   UNL     1     -10.206  12.459  69.774  1.00  0.00     0.000 HD 
BRANCH  14  16
HETATM   16  C   UNL     1     -11.067  10.556  69.847  1.00  0.00    -0.307 A  
HETATM   17  C   UNL     1     -11.723  10.394  71.065  1.00  0.00    -0.430 A  
HETATM   18  C   UNL     1     -11.976   9.124  71.575  1.00  0.00    -0.422 A  
HETATM   19  C   UNL     1     -11.556   7.981  70.890  1.00  0.00    -0.269 A  
HETATM   20  C   UNL     1     -10.818   8.085  69.693  1.00  0.00    -0.172 A  
HETATM   21 CL   UNL     1     -12.076   6.479  71.585  1.00  0.00    -0.395 Cl 
HETATM   22  C   UNL     1     -10.628   9.400  69.173  1.00  0.00    -0.234 A  
BRANCH  20  23
HETATM   23  C   UNL     1     -10.224   6.921  68.980  1.00  0.00    -0.181 A  
HETATM   24  C   UNL     1     -10.835   6.296  67.887  1.00  0.00    -0.417 A  
HETATM   25  C   UNL     1     -10.221   5.210  67.265  1.00  0.00    -0.239 A  
HETATM   26  C   UNL     1      -9.027   4.729  67.772  1.00  0.00    -0.122 A  
HETATM   27  C   UNL     1      -8.497   5.364  68.882  1.00  0.00    -0.099 A  
HETATM   28  N   UNL     1      -9.061   6.437  69.490  1.00  0.00    -0.138 NA 
ENDBRANCH  20  23
ENDBRANCH  14  16
ENDBRANCH   8  12
ENDBRANCH   2   5
TORSDOF 4
ENDMDL
MODEL        7
REMARK 921   NORMALIZED FREE ENERGY PREDICTED BY IDOCK:   -6.88 KCAL/MOL
REMARK 922        TOTAL FREE ENERGY PREDICTED BY IDOCK:   -9.11 KCAL/MOL
REMARK 923 INTER-LIGAND FREE ENERGY PREDICTED BY IDOCK:   -8.29 KCAL/MOL
REMARK 924 INTRA-LIGAND FREE ENERGY PREDICTED BY IDOCK:   -0.82 KCAL/MOL
REMARK 927      BINDING AFFINITY PREDICTED BY RF-SCORE:    0.00 PKD
ROOT
HETATM    1  C   UNL     1      -9.750   2.565  72.197  1.00  0.00    -0.136 C  
HETATM    2  S   UNL     1     -10.574   3.571  73.405  1.00  0.00    -0.208 S  
HETATM    3  O   UNL     1      -9.702   3.718  74.555  1.00  0.00    -0.111 OA 
HETATM    4  O   UNL     1     -11.932   3.080  73.557  1.00  0.00     0.006 OA 
ENDROOT
BRANCH   2   5
HETATM    5  C   UNL     1     -10.679   5.157  72.609  1.00  0.00    -0.237 A  
HETATM    6  C   UNL     1     -10.819   5.234  71.219  1.00  0.00    -0.139 A  
HETATM    7  C   UNL     1     -10.843   6.486  70.581  1.00  0.00    -0.266 A  
HETATM    8  C   UNL     1     -10.744   7.663  71.333  1.00  0.00    -0.247 A  
HETATM    9 CL   UNL     1     -10.935   6.461  68.856  1.00  0.00    -0.380 Cl 
HETATM   10  C   UNL     1     -10.650   7.554  72.741  1.00  0.00    -0.365 A  
HETATM   11  C   UNL     1     -10.624   6.314  73.381  1.00  0.00    -0.293 A  
BRANCH   8  12
HETATM   12  C   UNL     1     -10.621   9.051  70.787  1.00  0.00    -0.240 C  
HETATM   13  O   UNL     1      -9.536   9.603  70.970  1.00  0.00    -0.149 OA 
HETATM   14  N   UNL     1     -11.713   9.626  70.152  1.00  0.00    -0.435 N  
HETATM   15  H   UNL     1     -12.568   9.073  70.116  1.00  0.00     0.000 HD 
BRANCH  14  16
HETATM   16  C   UNL     1     -11.755  10.912  69.546  1.00  0.00    -0.328 A  
HETATM   17  C   UNL     1     -11.995  12.079  70.267  1.00  0.00    -0.398 A  
HETATM   18  C   UNL     1     -11.983  13.321  69.639  1.00  0.00    -0.376 A  
HETATM   19  C   UNL     1     -11.754  13.425  68.264  1.00  0.00    -0.356 A  
HETATM   20  C   UNL     1     -11.584  12.272  67.470  1.00  0.00    -0.422 A  
HETATM   21 CL   UNL     1     -11.627  15.047  67.665  1.00  0.00    -0.348 Cl 
HETATM   22  C   UNL     1     -11.546  11.022  68.157  1.00  0.00    -0.345 A  
BRANCH  20  23
HETATM   23  C   UNL     1     -11.469  12.296  65.986  1.00  0.00    -0.381 A  
HETATM   24  C   UNL     1     -10.244  12.275  65.309  1.00  0.00    -0.305 A  
HETATM   25  C   UNL     1     -10.210  12.298  63.916  1.00  0.00    -0.421 A  
HETATM   26  C   UNL     1     -11.398  12.391  63.214  1.00  0.00    -0.399 A  
HETATM   27  C   UNL     1     -12.573  12.453  63.943  1.00  0.00    -0.427 A  
HETATM   28  N   UNL     1     -12.635  12.407  65.298  1.00  0.00    -0.588 NA 
ENDBRANCH  20  23
ENDBRANCH  14  16
ENDBRANCH   8  12
ENDBRANCH   2   5
TORSDOF 4
ENDMDL
MODEL        8
REMARK 921   NORMALIZED FREE ENERGY PREDICTED BY IDOCK:   -6.88 KCAL/MOL
REMARK 922        TOTAL FREE ENERGY PREDICTED BY IDOCK:   -9.11 KCAL/MOL
REMARK 923 INTER-LIGAND FREE ENERGY PREDICTED BY IDOCK:   -8.48 KCAL/MOL
REMARK 924 INTRA-LIGAND FREE ENERGY PREDICTED BY IDOCK:   -0.63 KCAL/MOL
REMARK 927      BINDING AFFINITY PREDICTED BY RF-SCORE:    0.00 PKD
ROOT
HETATM    1  C   UNL     1     -10.157  18.624  67.673  1.00  0.00    -0.367 C  
HETATM    2  S   UNL     1      -9.910  17.511  66.313  1.00  0.00    -0.256 S  
HETATM    3  O   UNL     1      -8.485  17.382  66.076  1.00  0.00    -0.503 OA 
HETATM    4  O   UNL     1     -10.812  17.893  65.242  1.00  0.00    -0.614 OA 
ENDROOT
BRANCH   2   5
HETATM    5  C   UNL     1     -10.488  15.955  66.951  1.00  0.00    -0.309 A  
HETATM    6  C   UNL     1     -11.235  15.918  68.134  1.00  0.00    -0.339 A  
HETATM    7  C   UNL     1     -11.642  14.686  68.673  1.00  0.00    -0.314 A  
HETATM    8  C   UNL     1     -11.318  13.490  68.021  1.00  0.00    -0.318 A  
HETATM    9 CL   UNL     1     -12.485  14.754  70.179  1.00  0.00    -0.372 Cl 
HETATM   10  C   UNL     1     -10.602  13.562  66.802  1.00  0.00    -0.272 A  
HETATM   11  C   UNL     1     -10.193  14.782  66.262  1.00  0.00    -0.309 A  
BRANCH   8  12
HETATM   12  C   UNL     1     -11.565  12.108  68.540  1.00  0.00    -0.315 C  
HETATM   13  O   UNL     1     -12.074  11.321  67.741  1.00  0.00    -0.631 OA 
HETATM   14  N   UNL     1     -11.244  11.814  69.857  1.00  0.00    -0.487 N  
HETATM   15  H   UNL     1     -10.876  12.578  70.423  1.00  0.00     0.000 HD 
BRANCH  14  16
HETATM   16  C   UNL     1     -11.378  10.550  70.495  1.00  0.00    -0.314 A  
HETATM   17  C   UNL     1     -12.553  10.138  71.117  1.00  0.00    -0.486 A  
HETATM   18  C   UNL     1     -12.652   8.874  71.691  1.00  0.00    -0.403 A  
HETATM   19  C   UNL     1     -11.565   7.996  71.679  1.00  0.00    -0.275 A  
HETATM   20  C   UNL     1     -10.325   8.387  71.133  1.00  0.00    -0.264 A  
HETATM   21 CL   UNL     1     -11.898   6.412  72.303  1.00  0.00    -0.338 Cl 
HETATM   22  C   UNL     1     -10.279   9.668  70.505  1.00  0.00    -0.351 A  
BRANCH  20  23
HETATM   23  C   UNL     1      -9.089   7.560  71.203  1.00  0.00    -0.147 A  
HETATM   24  C   UNL     1      -8.493   6.974  70.081  1.00  0.00    -0.139 A  
HETATM   25  C   UNL     1      -7.334   6.212  70.219  1.00  0.00    -0.088 A  
HETATM   26  C   UNL     1      -6.811   6.002  71.482  1.00  0.00    -0.067 A  
HETATM   27  C   UNL     1      -7.473   6.573  72.555  1.00  0.00    -0.090 A  
HETATM   28  N   UNL     1      -8.587   7.339  72.446  1.00  0.00    -0.115 NA 
ENDBRANCH  20  23
ENDBRANCH  14  16
ENDBRANCH   8  12
ENDBRANCH   2   5
TORSDOF 4
ENDMDL
MODEL        9
REMARK 921   NORMALIZED FREE ENERGY PREDICTED BY IDOCK:   -6.88 KCAL/MOL
REMARK 922        TOTAL FREE ENERGY PREDICTED BY IDOCK:   -9.11 KCAL/MOL
REMARK 923 INTER-LIGAND FREE ENERGY PREDICTED BY IDOCK:   -8.48 KCAL/MOL
REMARK 924 INTRA-LIGAND FREE ENERGY PREDICTED BY IDOCK:   -0.63 KCAL/MOL
REMARK 927      BINDING AFFINITY PREDICTED BY RF-SCORE:    0.00 PKD
ROOT
HETATM    1  C   UNL     1      -8.144  18.481  66.382  1.00  0.00    -0.273 C  
HETATM    2  S   UNL     1      -9.882  18.584  66.723  1.00  0.00    -0.363 S  
HETATM    3  O   UNL     1     -10.542  19.177  65.576  1.00  0.00    -0.536 OA 
HETATM    4  O   UNL     1     -10.054  19.142  68.053  1.00  0.00    -0.354 OA 
ENDROOT
BRANCH   2   5
HETATM    5  C   UNL     1     -10.382  16.880  66.804  1.00  0.00    -0.298 A  
HETATM    6  C   UNL     1     -10.972  16.379  67.970  1.00  0.00    -0.327 A  
HETATM    7  C   UNL     1     -11.314  15.019  68.060  1.00  0.00    -0.327 A  
HETATM    8  C   UNL     1     -11.083  14.161  66.977  1.00  0.00    -0.314 A  
HETATM    9 CL   UNL     1     -11.959  14.493  69.574  1.00  0.00    -0.348 Cl 
HETATM   10  C   UNL     1     -10.528  14.707  65.795  1.00  0.00    -0.338 A  
HETATM   11  C   UNL     1     -10.184  16.056  65.700  1.00  0.00    -0.412 A  
BRANCH   8  12
HETATM   12  C   UNL     1     -11.271  12.676  66.973  1.00  0.00    -0.300 C  
HETATM   13  O   UNL     1     -12.257  12.265  66.364  1.00  0.00    -0.613 OA 
HETATM   14  N   UNL     1     -10.366  11.880  67.660  1.00  0.00    -0.198 N  
HETATM   15  H   UNL     1      -9.622  12.360  68.167  1.00  0.00     0.000 HD 
BRANCH  14  16
HETATM   16  C   UNL     1     -10.374  10.459  67.727  1.00  0.00    -0.206 A  
HETATM   17  C   UNL     1     -10.270   9.650  66.599  1.00  0.00    -0.302 A  
HETATM   18  C   UNL     1     -10.238   8.263  66.717  1.00  0.00    -0.375 A  
HETATM   19  C   UNL     1     -10.335   7.649  67.968  1.00  0.00    -0.205 A  
HETATM   20  C   UNL     1     -10.523   8.415  69.137  1.00  0.00    -0.218 A  
HETATM   21 CL   UNL     1     -10.133   5.927  67.954  1.00  0.00    -0.169 Cl 
HETATM   22  C   UNL     1     -10.493   9.833  68.983  1.00  0.00    -0.229 A  
BRANCH  20  23
HETATM   23  C   UNL     1     -10.767   7.828  70.483  1.00  0.00    -0.236 A  
HETATM   24  C   UNL     1     -11.775   6.892  70.742  1.00  0.00    -0.417 A  
HETATM   25  C   UNL     1     -11.947   6.382  72.028  1.00  0.00    -0.375 A  
HETATM   26  C   UNL     1     -11.143   6.850  73.051  1.00  0.00    -0.267 A  
HETATM   27  C   UNL     1     -10.194   7.808  72.739  1.00  0.00    -0.299 A  
HETATM   28  N   UNL     1      -9.990   8.302  71.492  1.00  0.00    -0.185 NA 
ENDBRANCH  20  23
ENDBRANCH  14  16
ENDBRANCH   8  12
ENDBRANCH   2   5
TORSDOF 4
ENDMDL
MODEL       10
REMARK 921   NORMALIZED FREE ENERGY PREDICTED BY IDOCK:   -6.80 KCAL/MOL
REMARK 922        TOTAL FREE ENERGY PREDICTED BY IDOCK:   -9.02 KCAL/MOL
REMARK 923 INTER-LIGAND FREE ENERGY PREDICTED BY IDOCK:   -8.21 KCAL/MOL
REMARK 924 INTRA-LIGAND FREE ENERGY PREDICTED BY IDOCK:   -0.81 KCAL/MOL
REMARK 927      BINDING AFFINITY PREDICTED BY RF-SCORE:    0.00 PKD
ROOT
HETATM    1  C   UNL     1      -9.804   2.053  71.928  1.00  0.00    -0.146 C  
HETATM    2  S   UNL     1     -10.442   3.059  73.243  1.00  0.00    -0.173 S  
HETATM    3  O   UNL     1      -9.443   3.135  74.292  1.00  0.00    -0.088 OA 
HETATM    4  O   UNL     1     -11.796   2.624  73.534  1.00  0.00    -0.140 OA 
ENDROOT
BRANCH   2   5
HETATM    5  C   UNL     1     -10.560   4.670  72.502  1.00  0.00    -0.179 A  
HETATM    6  C   UNL     1     -10.420   4.815  71.117  1.00  0.00    -0.121 A  
HETATM    7  C   UNL     1     -10.453   6.093  70.534  1.00  0.00    -0.234 A  
HETATM    8  C   UNL     1     -10.644   7.228  71.333  1.00  0.00    -0.229 A  
HETATM    9 CL   UNL     1     -10.185   6.161  68.828  1.00  0.00    -0.202 Cl 
HETATM   10  C   UNL     1     -10.830   7.045  72.724  1.00  0.00    -0.321 A  
HETATM   11  C   UNL     1     -10.796   5.779  73.310  1.00  0.00    -0.306 A  
BRANCH   8  12
HETATM   12  C   UNL     1     -10.570   8.651  70.875  1.00  0.00    -0.214 C  
HETATM   13  O   UNL     1      -9.588   9.284  71.262  1.00  0.00    -0.271 OA 
HETATM   14  N   UNL     1     -11.594   9.163  70.093  1.00  0.00    -0.458 N  
HETATM   15  H   UNL     1     -12.375   8.539  69.890  1.00  0.00     0.000 HD 
BRANCH  14  16
HETATM   16  C   UNL     1     -11.662  10.474  69.545  1.00  0.00    -0.241 A  
HETATM   17  C   UNL     1     -11.334  10.757  68.222  1.00  0.00    -0.376 A  
HETATM   18  C   UNL     1     -11.458  12.049  67.717  1.00  0.00    -0.394 A  
HETATM   19  C   UNL     1     -11.890  13.097  68.534  1.00  0.00    -0.342 A  
HETATM   20  C   UNL     1     -12.159  12.886  69.902  1.00  0.00    -0.335 A  
HETATM   21 CL   UNL     1     -12.129  14.609  67.717  1.00  0.00    -0.297 Cl 
HETATM   22  C   UNL     1     -12.076  11.540  70.368  1.00  0.00    -0.471 A  
BRANCH  20  23
HETATM   23  C   UNL     1     -12.493  13.975  70.860  1.00  0.00    -0.369 A  
HETATM   24  C   UNL     1     -11.560  14.916  71.309  1.00  0.00    -0.359 A  
HETATM   25  C   UNL     1     -11.941  15.912  72.206  1.00  0.00    -0.617 A  
HETATM   26  C   UNL     1     -13.239  15.926  72.684  1.00  0.00    -0.555 A  
HETATM   27  C   UNL     1     -14.102  14.941  72.236  1.00  0.00    -0.499 A  
HETATM   28  N   UNL     1     -13.763  13.977  71.344  1.00  0.00    -0.274 NA 
ENDBRANCH  20  23
ENDBRANCH  14  16
ENDBRANCH   8  12
ENDBRANCH   2   5
TORSDOF 4
ENDMDL
MODEL       11
REMARK 921   NORMALIZED FREE ENERGY PREDICTED BY IDOCK:   -6.80 KCAL/MOL
REMARK 922        TOTAL FREE ENERGY PREDICTED BY IDOCK:   -9.01 KCAL/MOL
REMARK 923 INTER-LIGAND FREE ENERGY PREDICTED BY IDOCK:   -8.45 KCAL/MOL
REMARK 924 INTRA-LIGAND FREE ENERGY PREDICTED BY IDOCK:   -0.56 KCAL/MOL
REMARK 927      BINDING AFFINITY PREDICTED BY RF-SCORE:    0.00 PKD
ROOT
HETATM    1  C   UNL     1      -8.987   5.742  72.209  1.00  0.00    -0.139 C  
HETATM    2  S   UNL     1     -10.435   6.502  72.896  1.00  0.00    -0.237 S  
HETATM    3  O   UNL     1     -10.111   6.999  74.220  1.00  0.00    -0.314 OA 
HETATM    4  O   UNL     1     -11.561   5.609  72.690  1.00  0.00    -0.307 OA 
ENDROOT
BRANCH   2   5
HETATM    5  C   UNL     1     -10.691   7.913  71.845  1.00  0.00    -0.237 A  
HETATM    6  C   UNL     1     -11.664   8.863  72.174  1.00  0.00    -0.411 A  
HETATM    7  C   UNL     1     -11.911   9.947  71.315  1.00  0.00    -0.395 A  
HETATM    8  C   UNL     1     -11.171  10.094  70.134  1.00  0.00    -0.377 A  
HETATM    9 CL   UNL     1     -13.191  11.011  71.777  1.00  0.00    -0.541 Cl 
HETATM   10  C   UNL     1     -10.162   9.143  69.852  1.00  0.00    -0.222 A  
HETATM   11  C   UNL     1      -9.913   8.062  70.700  1.00  0.00    -0.198 A  
BRANCH   8  12
HETATM   12  C   UNL     1     -11.410  11.114  69.066  1.00  0.00    -0.276 C  
HETATM   13  O   UNL     1     -12.519  11.079  68.533  1.00  0.00    -0.440 OA 
HETATM   14  N   UNL     1     -10.389  11.992  68.730  1.00  0.00    -0.348 N  
HETATM   15  H   UNL     1      -9.502  11.874  69.218  1.00  0.00     0.000 HD 
BRANCH  14  16
HETATM   16  C   UNL     1     -10.460  13.039  67.770  1.00  0.00    -0.228 A  
HETATM   17  C   UNL     1     -10.826  12.826  66.444  1.00  0.00    -0.294 A  
HETATM   18  C   UNL     1     -10.924  13.889  65.551  1.00  0.00    -0.302 A  
HETATM   19  C   UNL     1     -10.633  15.193  65.958  1.00  0.00    -0.322 A  
HETATM   20  C   UNL     1     -10.180  15.460  67.267  1.00  0.00    -0.254 A  
HETATM   21 CL   UNL     1     -10.945  16.416  64.768  1.00  0.00    -0.362 Cl 
HETATM   22  C   UNL     1     -10.147  14.354  68.168  1.00  0.00    -0.226 A  
BRANCH  20  23
HETATM   23  C   UNL     1      -9.725  16.799  67.731  1.00  0.00    -0.248 A  
HETATM   24  C   UNL     1     -10.594  17.877  67.938  1.00  0.00    -0.387 A  
HETATM   25  C   UNL     1     -10.099  19.104  68.376  1.00  0.00    -0.498 A  
HETATM   26  C   UNL     1      -8.736  19.256  68.556  1.00  0.00    -0.405 A  
HETATM   27  C   UNL     1      -7.927  18.164  68.292  1.00  0.00    -0.295 A  
HETATM   28  N   UNL     1      -8.385  16.953  67.890  1.00  0.00    -0.195 NA 
ENDBRANCH  20  23
ENDBRANCH  14  16
ENDBRANCH   8  12
ENDBRANCH   2   5
TORSDOF 4
ENDMDL
MODEL       12
REMARK 921   NORMALIZED FREE ENERGY PREDICTED BY IDOCK:   -6.79 KCAL/MOL
REMARK 922        TOTAL FREE ENERGY PREDICTED BY IDOCK:   -9.01 KCAL/MOL
REMARK 923 INTER-LIGAND FREE ENERGY PREDICTED BY IDOCK:   -8.20 KCAL/MOL
REMARK 924 INTRA-LIGAND FREE ENERGY PREDICTED BY IDOCK:   -0.81 KCAL/MOL
REMARK 927      BINDING AFFINITY PREDICTED BY RF-SCORE:    0.00 PKD
ROOT
HETATM    1  C   UNL     1      -8.574  18.898  66.507  1.00  0.00    -0.305 C  
HETATM    2  S   UNL     1     -10.326  18.619  66.509  1.00  0.00    -0.428 S  
HETATM    3  O   UNL     1     -10.844  18.932  65.190  1.00  0.00    -0.497 OA 
HETATM    4  O   UNL     1     -10.886  19.240  67.696  1.00  0.00    -0.458 OA 
ENDROOT
BRANCH   2   5
HETATM    5  C   UNL     1     -10.458  16.860  66.730  1.00  0.00    -0.260 A  
HETATM    6  C   UNL     1     -10.395  16.009  65.621  1.00  0.00    -0.414 A  
HETATM    7  C   UNL     1     -10.559  14.623  65.785  1.00  0.00    -0.320 A  
HETATM    8  C   UNL     1     -10.768  14.084  67.060  1.00  0.00    -0.284 A  
HETATM    9 CL   UNL     1     -10.547  13.677  64.339  1.00  0.00    -0.419 Cl 
HETATM   10  C   UNL     1     -10.780  14.965  68.168  1.00  0.00    -0.251 A  
HETATM   11  C   UNL     1     -10.620  16.342  68.012  1.00  0.00    -0.314 A  
BRANCH   8  12
HETATM   12  C   UNL     1     -11.089  12.656  67.372  1.00  0.00    -0.273 C  
HETATM   13  O   UNL     1     -12.281  12.402  67.543  1.00  0.00    -0.442 OA 
HETATM   14  N   UNL     1     -10.053  11.738  67.476  1.00  0.00    -0.190 N  
HETATM   15  H   UNL     1      -9.106  12.097  67.361  1.00  0.00     0.000 HD 
BRANCH  14  16
HETATM   16  C   UNL     1     -10.184  10.344  67.726  1.00  0.00    -0.193 A  
HETATM   17  C   UNL     1     -10.380   9.409  66.713  1.00  0.00    -0.303 A  
HETATM   18  C   UNL     1     -10.458   8.050  67.002  1.00  0.00    -0.410 A  
HETATM   19  C   UNL     1     -10.368   7.592  68.319  1.00  0.00    -0.198 A  
HETATM   20  C   UNL     1     -10.249   8.498  69.393  1.00  0.00    -0.211 A  
HETATM   21 CL   UNL     1     -10.337   5.867  68.492  1.00  0.00    -0.239 Cl 
HETATM   22  C   UNL     1     -10.115   9.877  69.054  1.00  0.00    -0.199 A  
BRANCH  20  23
HETATM   23  C   UNL     1     -10.280   8.095  70.826  1.00  0.00    -0.194 A  
HETATM   24  C   UNL     1     -11.427   7.604  71.461  1.00  0.00    -0.295 A  
HETATM   25  C   UNL     1     -11.385   7.244  72.807  1.00  0.00    -0.318 A  
HETATM   26  C   UNL     1     -10.211   7.423  73.516  1.00  0.00    -0.400 A  
HETATM   27  C   UNL     1      -9.126   7.953  72.841  1.00  0.00    -0.220 A  
HETATM   28  N   UNL     1      -9.133   8.289  71.527  1.00  0.00    -0.160 NA 
ENDBRANCH  20  23
ENDBRANCH  14  16
ENDBRANCH   8  12
ENDBRANCH   2   5
TORSDOF 4
ENDMDL
MODEL       13
REMARK 921   NORMALIZED FREE ENERGY PREDICTED BY IDOCK:   -6.75 KCAL/MOL
REMARK 922        TOTAL FREE ENERGY PREDICTED BY IDOCK:   -8.96 KCAL/MOL
REMARK 923 INTER-LIGAND FREE ENERGY PREDICTED BY IDOCK:   -8.19 KCAL/MOL
REMARK 924 INTRA-LIGAND FREE ENERGY PREDICTED BY IDOCK:   -0.77 KCAL/MOL
REMARK 927      BINDING AFFINITY PREDICTED BY RF-SCORE:    0.00 PKD
ROOT
HETATM    1  C   UNL     1      -8.108  19.477  66.345  1.00  0.00    -0.320 C  
HETATM    2  S   UNL     1      -9.843  19.590  66.699  1.00  0.00    -0.432 S  
HETATM    3  O   UNL     1     -10.515  20.143  65.538  1.00  0.00    -0.387 OA 
HETATM    4  O   UNL     1     -10.003  20.193  68.010  1.00  0.00    -0.396 OA 
ENDROOT
BRANCH   2   5
HETATM    5  C   UNL     1     -10.340  17.889  66.843  1.00  0.00    -0.355 A  
HETATM    6  C   UNL     1     -10.839  17.408  68.059  1.00  0.00    -0.281 A  
HETATM    7  C   UNL     1     -11.177  16.051  68.194  1.00  0.00    -0.325 A  
HETATM    8  C   UNL     1     -11.033  15.176  67.110  1.00  0.00    -0.326 A  
HETATM    9 CL   UNL     1     -11.703  15.548  69.762  1.00  0.00    -0.335 Cl 
HETATM   10  C   UNL     1     -10.569  15.702  65.880  1.00  0.00    -0.354 A  
HETATM   11  C   UNL     1     -10.230  17.049  65.739  1.00  0.00    -0.262 A  
BRANCH   8  12
HETATM   12  C   UNL     1     -11.224  13.692  67.142  1.00  0.00    -0.309 C  
HETATM   13  O   UNL     1     -12.285  13.280  66.674  1.00  0.00    -0.370 OA 
HETATM   14  N   UNL     1     -10.237  12.897  67.707  1.00  0.00    -0.219 N  
HETATM   15  H   UNL     1      -9.431  13.377  68.105  1.00  0.00     0.000 HD 
BRANCH  14  16
HETATM   16  C   UNL     1     -10.241  11.477  67.785  1.00  0.00    -0.182 A  
HETATM   17  C   UNL     1     -10.149  10.658  66.662  1.00  0.00    -0.270 A  
HETATM   18  C   UNL     1     -10.112   9.273  66.791  1.00  0.00    -0.331 A  
HETATM   19  C   UNL     1     -10.193   8.669  68.048  1.00  0.00    -0.210 A  
HETATM   20  C   UNL     1     -10.368   9.443  69.213  1.00  0.00    -0.217 A  
HETATM   21 CL   UNL     1      -9.986   6.946  68.045  1.00  0.00    -0.163 Cl 
HETATM   22  C   UNL     1     -10.344  10.860  69.048  1.00  0.00    -0.230 A  
BRANCH  20  23
HETATM   23  C   UNL     1     -10.594   8.866  70.567  1.00  0.00    -0.220 A  
HETATM   24  C   UNL     1      -9.561   8.601  71.472  1.00  0.00    -0.327 A  
HETATM   25  C   UNL     1      -9.845   8.062  72.726  1.00  0.00    -0.351 A  
HETATM   26  C   UNL     1     -11.154   7.747  73.042  1.00  0.00    -0.419 A  
HETATM   27  C   UNL     1     -12.124   7.992  72.087  1.00  0.00    -0.343 A  
HETATM   28  N   UNL     1     -11.878   8.540  70.870  1.00  0.00    -0.258 NA 
ENDBRANCH  20  23
ENDBRANCH  14  16
ENDBRANCH   8  12
ENDBRANCH   2   5
TORSDOF 4
ENDMDL
MODEL       14
REMARK 921   NORMALIZED FREE ENERGY PREDICTED BY IDOCK:   -6.69 KCAL/MOL
REMARK 922        TOTAL FREE ENERGY PREDICTED BY IDOCK:   -8.88 KCAL/MOL
REMARK 923 INTER-LIGAND FREE ENERGY PREDICTED BY IDOCK:   -8.20 KCAL/MOL
REMARK 924 INTRA-LIGAND FREE ENERGY PREDICTED BY IDOCK:   -0.68 KCAL/MOL
REMARK 927      BINDING AFFINITY PREDICTED BY RF-SCORE:    0.00 PKD
ROOT
HETATM    1  C   UNL     1     -11.097  15.323  64.819  1.00  0.00    -0.394 C  
HETATM    2  S   UNL     1     -12.285  14.026  64.582  1.00  0.00    -0.421 S  
HETATM    3  O   UNL     1     -12.466  13.823  63.157  1.00  0.00    -0.786 OA 
HETATM    4  O   UNL     1     -13.421  14.284  65.448  1.00  0.00    -0.581 OA 
ENDROOT
BRANCH   2   5
HETATM    5  C   UNL     1     -11.454  12.592  65.224  1.00  0.00    -0.333 A  
HETATM    6  C   UNL     1     -10.707  11.775  64.368  1.00  0.00    -0.381 A  
HETATM    7  C   UNL     1     -10.098  10.608  64.860  1.00  0.00    -0.335 A  
HETATM    8  C   UNL     1     -10.221  10.264  66.212  1.00  0.00    -0.287 A  
HETATM    9 CL   UNL     1      -9.271   9.631  63.699  1.00  0.00    -0.239 Cl 
HETATM   10  C   UNL     1     -10.945  11.135  67.063  1.00  0.00    -0.348 A  
HETATM   11  C   UNL     1     -11.553  12.294  66.580  1.00  0.00    -0.438 A  
BRANCH   8  12
HETATM   12  C   UNL     1      -9.746   8.995  66.846  1.00  0.00    -0.200 C  
HETATM   13  O   UNL     1      -8.525   8.846  66.892  1.00  0.00    -0.111 OA 
HETATM   14  N   UNL     1     -10.680   8.077  67.304  1.00  0.00    -0.489 N  
HETATM   15  H   UNL     1     -11.662   8.307  67.154  1.00  0.00     0.000 HD 
BRANCH  14  16
HETATM   16  C   UNL     1     -10.402   6.847  67.961  1.00  0.00    -0.192 A  
HETATM   17  C   UNL     1     -10.192   5.654  67.274  1.00  0.00    -0.250 A  
HETATM   18  C   UNL     1      -9.879   4.483  67.958  1.00  0.00    -0.154 A  
HETATM   19  C   UNL     1      -9.793   4.470  69.352  1.00  0.00    -0.190 A  
HETATM   20  C   UNL     1     -10.074   5.629  70.106  1.00  0.00    -0.293 A  
HETATM   21 CL   UNL     1      -9.252   2.971  70.037  1.00  0.00    -0.203 Cl 
HETATM   22  C   UNL     1     -10.335   6.822  69.368  1.00  0.00    -0.221 A  
BRANCH  20  23
HETATM   23  C   UNL     1     -10.133   5.658  71.592  1.00  0.00    -0.195 A  
HETATM   24  C   UNL     1     -10.888   4.755  72.350  1.00  0.00    -0.171 A  
HETATM   25  C   UNL     1     -10.897   4.839  73.741  1.00  0.00    -0.379 A  
HETATM   26  C   UNL     1     -10.190   5.855  74.359  1.00  0.00    -0.304 A  
HETATM   27  C   UNL     1      -9.499   6.741  73.552  1.00  0.00    -0.163 A  
HETATM   28  N   UNL     1      -9.454   6.667  72.198  1.00  0.00    -0.145 NA 
ENDBRANCH  20  23
ENDBRANCH  14  16
ENDBRANCH   8  12
ENDBRANCH   2   5
TORSDOF 4
ENDMDL
MODEL       15
REMARK 921   NORMALIZED FREE ENERGY PREDICTED BY IDOCK:   -6.65 KCAL/MOL
REMARK 922        TOTAL FREE ENERGY PREDICTED BY IDOCK:   -8.83 KCAL/MOL
REMARK 923 INTER-LIGAND FREE ENERGY PREDICTED BY IDOCK:   -8.04 KCAL/MOL
REMARK 924 INTRA-LIGAND FREE ENERGY PREDICTED BY IDOCK:   -0.79 KCAL/MOL
REMARK 927      BINDING AFFINITY PREDICTED BY RF-SCORE:    0.00 PKD
ROOT
HETATM    1  C   UNL     1      -9.424   5.393  72.266  1.00  0.00    -0.145 C  
HETATM    2  S   UNL     1     -10.809   6.440  72.634  1.00  0.00    -0.252 S  
HETATM    3  O   UNL     1     -10.531   7.157  73.864  1.00  0.00    -0.370 OA 
HETATM    4  O   UNL     1     -12.024   5.659  72.484  1.00  0.00    -0.258 OA 
ENDROOT
BRANCH   2   5
HETATM    5  C   UNL     1     -10.785   7.626  71.309  1.00  0.00    -0.228 A  
HETATM    6  C   UNL     1     -10.696   7.190  69.982  1.00  0.00    -0.268 A  
HETATM    7  C   UNL     1     -10.616   8.125  68.937  1.00  0.00    -0.140 A  
HETATM    8  C   UNL     1     -10.643   9.498  69.214  1.00  0.00    -0.236 A  
HETATM    9 CL   UNL     1     -10.425   7.477  67.346  1.00  0.00    -0.343 Cl 
HETATM   10  C   UNL     1     -10.781   9.907  70.563  1.00  0.00    -0.382 A  
HETATM   11  C   UNL     1     -10.858   8.984  71.606  1.00  0.00    -0.437 A  
BRANCH   8  12
HETATM   12  C   UNL     1     -10.435  10.602  68.226  1.00  0.00    -0.187 C  
HETATM   13  O   UNL     1      -9.323  10.645  67.700  1.00  0.00    -0.145 OA 
HETATM   14  N   UNL     1     -11.466  11.501  67.990  1.00  0.00    -0.299 N  
HETATM   15  H   UNL     1     -12.318  11.377  68.536  1.00  0.00     0.000 HD 
BRANCH  14  16
HETATM   16  C   UNL     1     -11.449  12.578  67.062  1.00  0.00    -0.356 A  
HETATM   17  C   UNL     1     -11.959  12.470  65.770  1.00  0.00    -0.482 A  
HETATM   18  C   UNL     1     -11.961  13.564  64.911  1.00  0.00    -0.410 A  
HETATM   19  C   UNL     1     -11.428  14.792  65.314  1.00  0.00    -0.352 A  
HETATM   20  C   UNL     1     -10.826  14.938  66.581  1.00  0.00    -0.319 A  
HETATM   21 CL   UNL     1     -11.640  16.088  64.181  1.00  0.00    -0.246 Cl 
HETATM   22  C   UNL     1     -10.894  13.812  67.454  1.00  0.00    -0.285 A  
BRANCH  20  23
HETATM   23  C   UNL     1     -10.122  16.171  67.027  1.00  0.00    -0.270 A  
HETATM   24  C   UNL     1      -8.874  16.566  66.532  1.00  0.00    -0.317 A  
HETATM   25  C   UNL     1      -8.271  17.735  66.993  1.00  0.00    -0.239 A  
HETATM   26  C   UNL     1      -8.899  18.471  67.982  1.00  0.00    -0.317 A  
HETATM   27  C   UNL     1     -10.110  18.004  68.461  1.00  0.00    -0.393 A  
HETATM   28  N   UNL     1     -10.730  16.884  68.012  1.00  0.00    -0.364 NA 
ENDBRANCH  20  23
ENDBRANCH  14  16
ENDBRANCH   8  12
ENDBRANCH   2   5
TORSDOF 4
ENDMDL
MODEL       16
REMARK 921   NORMALIZED FREE ENERGY PREDICTED BY IDOCK:   -6.60 KCAL/MOL
REMARK 922        TOTAL FREE ENERGY PREDICTED BY IDOCK:   -8.76 KCAL/MOL
REMARK 923 INTER-LIGAND FREE ENERGY PREDICTED BY IDOCK:   -8.00 KCAL/MOL
REMARK 924 INTRA-LIGAND FREE ENERGY PREDICTED BY IDOCK:   -0.77 KCAL/MOL
REMARK 927      BINDING AFFINITY PREDICTED BY RF-SCORE:    0.00 PKD
ROOT
HETATM    1  C   UNL     1      -7.985  19.852  67.882  1.00  0.00    -0.288 C  
HETATM    2  S   UNL     1      -9.736  19.723  67.631  1.00  0.00    -0.394 S  
HETATM    3  O   UNL     1     -10.065  20.330  66.355  1.00  0.00    -0.439 OA 
HETATM    4  O   UNL     1     -10.404  20.143  68.850  1.00  0.00    -0.382 OA 
ENDROOT
BRANCH   2   5
HETATM    5  C   UNL     1      -9.997  17.972  67.471  1.00  0.00    -0.327 A  
HETATM    6  C   UNL     1     -10.388  17.433  66.241  1.00  0.00    -0.330 A  
HETATM    7  C   UNL     1     -10.653  16.057  66.125  1.00  0.00    -0.297 A  
HETATM    8  C   UNL     1     -10.509  15.216  67.236  1.00  0.00    -0.271 A  
HETATM    9 CL   UNL     1     -11.211  15.515  64.583  1.00  0.00    -0.420 Cl 
HETATM   10  C   UNL     1     -10.066  15.783  68.455  1.00  0.00    -0.222 A  
HETATM   11  C   UNL     1      -9.804  17.148  68.577  1.00  0.00    -0.297 A  
BRANCH   8  12
HETATM   12  C   UNL     1     -10.880  13.767  67.298  1.00  0.00    -0.285 C  
HETATM   13  O   UNL     1     -12.069  13.512  67.106  1.00  0.00    -0.378 OA 
HETATM   14  N   UNL     1      -9.898  12.831  67.589  1.00  0.00    -0.209 N  
HETATM   15  H   UNL     1      -8.962  13.189  67.778  1.00  0.00     0.000 HD 
BRANCH  14  16
HETATM   16  C   UNL     1     -10.070  11.420  67.649  1.00  0.00    -0.180 A  
HETATM   17  C   UNL     1     -10.113  10.616  66.514  1.00  0.00    -0.275 A  
HETATM   18  C   UNL     1     -10.238   9.234  66.624  1.00  0.00    -0.323 A  
HETATM   19  C   UNL     1     -10.350   8.623  67.875  1.00  0.00    -0.229 A  
HETATM   20  C   UNL     1     -10.393   9.393  69.056  1.00  0.00    -0.224 A  
HETATM   21 CL   UNL     1     -10.352   6.888  67.844  1.00  0.00    -0.217 Cl 
HETATM   22  C   UNL     1     -10.205  10.800  68.907  1.00  0.00    -0.219 A  
BRANCH  20  23
HETATM   23  C   UNL     1     -10.643   8.826  70.409  1.00  0.00    -0.221 A  
HETATM   24  C   UNL     1     -11.890   8.872  71.043  1.00  0.00    -0.324 A  
HETATM   25  C   UNL     1     -12.054   8.319  72.312  1.00  0.00    -0.439 A  
HETATM   26  C   UNL     1     -10.959   7.769  72.954  1.00  0.00    -0.467 A  
HETATM   27  C   UNL     1      -9.745   7.793  72.291  1.00  0.00    -0.186 A  
HETATM   28  N   UNL     1      -9.564   8.303  71.047  1.00  0.00    -0.155 NA 
ENDBRANCH  20  23
ENDBRANCH  14  16
ENDBRANCH   8  12
ENDBRANCH   2   5
TORSDOF 4
ENDMDL
MODEL       17
REMARK 921   NORMALIZED FREE ENERGY PREDICTED BY IDOCK:   -6.59 KCAL/MOL
REMARK 922        TOTAL FREE ENERGY PREDICTED BY IDOCK:   -8.76 KCAL/MOL
REMARK 923 INTER-LIGAND FREE ENERGY PREDICTED BY IDOCK:   -8.01 KCAL/MOL
REMARK 924 INTRA-LIGAND FREE ENERGY PREDICTED BY IDOCK:   -0.75 KCAL/MOL
REMARK 927      BINDING AFFINITY PREDICTED BY RF-SCORE:    0.00 PKD
ROOT
HETATM    1  C   UNL     1     -11.275   7.706  72.871  1.00  0.00    -0.372 C  
HETATM    2  S   UNL     1     -12.644   8.222  71.868  1.00  0.00    -0.357 S  
HETATM    3  O   UNL     1     -13.564   8.977  72.697  1.00  0.00    -0.465 OA 
HETATM    4  O   UNL     1     -13.101   7.080  71.097  1.00  0.00    -0.345 OA 
ENDROOT
BRANCH   2   5
HETATM    5  C   UNL     1     -11.902   9.361  70.722  1.00  0.00    -0.256 A  
HETATM    6  C   UNL     1     -10.837   8.946  69.914  1.00  0.00    -0.219 A  
HETATM    7  C   UNL     1     -10.210   9.860  69.051  1.00  0.00    -0.200 A  
HETATM    8  C   UNL     1     -10.657  11.186  68.980  1.00  0.00    -0.251 A  
HETATM    9 CL   UNL     1      -8.853   9.263  68.163  1.00  0.00    -0.129 Cl 
HETATM   10  C   UNL     1     -11.766  11.563  69.775  1.00  0.00    -0.426 A  
HETATM   11  C   UNL     1     -12.393  10.661  70.636  1.00  0.00    -0.462 A  
BRANCH   8  12
HETATM   12  C   UNL     1     -10.009  12.295  68.214  1.00  0.00    -0.216 C  
HETATM   13  O   UNL     1     -10.394  12.439  67.053  1.00  0.00    -0.219 OA 
HETATM   14  N   UNL     1      -9.022  13.054  68.828  1.00  0.00    -0.384 N  
HETATM   15  H   UNL     1      -8.764  12.791  69.778  1.00  0.00     0.000 HD 
BRANCH  14  16
HETATM   16  C   UNL     1      -8.335  14.162  68.260  1.00  0.00    -0.157 A  
HETATM   17  C   UNL     1      -6.976  14.134  67.958  1.00  0.00    -0.149 A  
HETATM   18  C   UNL     1      -6.356  15.228  67.362  1.00  0.00    -0.039 A  
HETATM   19  C   UNL     1      -7.076  16.391  67.076  1.00  0.00    -0.224 A  
HETATM   20  C   UNL     1      -8.436  16.506  67.432  1.00  0.00    -0.194 A  
HETATM   21 CL   UNL     1      -6.192  17.602  66.203  1.00  0.00    -0.264 Cl 
HETATM   22  C   UNL     1      -9.050  15.345  67.988  1.00  0.00    -0.175 A  
BRANCH  20  23
HETATM   23  C   UNL     1      -9.230  17.756  67.281  1.00  0.00    -0.253 A  
HETATM   24  C   UNL     1      -9.461  18.651  68.331  1.00  0.00    -0.377 A  
HETATM   25  C   UNL     1     -10.214  19.805  68.118  1.00  0.00    -0.577 A  
HETATM   26  C   UNL     1     -10.769  20.027  66.871  1.00  0.00    -0.361 A  
HETATM   27  C   UNL     1     -10.540  19.081  65.887  1.00  0.00    -0.393 A  
HETATM   28  N   UNL     1      -9.791  17.964  66.061  1.00  0.00    -0.542 NA 
ENDBRANCH  20  23
ENDBRANCH  14  16
ENDBRANCH   8  12
ENDBRANCH   2   5
TORSDOF 4
ENDMDL
MODEL       18
REMARK 921   NORMALIZED FREE ENERGY PREDICTED BY IDOCK:   -6.58 KCAL/MOL
REMARK 922        TOTAL FREE ENERGY PREDICTED BY IDOCK:   -8.75 KCAL/MOL
REMARK 923 INTER-LIGAND FREE ENERGY PREDICTED BY IDOCK:   -8.62 KCAL/MOL
REMARK 924 INTRA-LIGAND FREE ENERGY PREDICTED BY IDOCK:   -0.13 KCAL/MOL
REMARK 927      BINDING AFFINITY PREDICTED BY RF-SCORE:    0.00 PKD
ROOT
HETATM    1  C   UNL     1     -11.723   6.818  70.422  1.00  0.00    -0.363 C  
HETATM    2  S   UNL     1     -12.510   7.761  71.702  1.00  0.00    -0.334 S  
HETATM    3  O   UNL     1     -11.769   7.573  72.935  1.00  0.00    -0.244 OA 
HETATM    4  O   UNL     1     -13.938   7.505  71.645  1.00  0.00    -0.393 OA 
ENDROOT
BRANCH   2   5
HETATM    5  C   UNL     1     -12.260   9.442  71.181  1.00  0.00    -0.323 A  
HETATM    6  C   UNL     1     -12.931  10.483  71.833  1.00  0.00    -0.553 A  
HETATM    7  C   UNL     1     -12.783  11.807  71.386  1.00  0.00    -0.308 A  
HETATM    8  C   UNL     1     -11.950  12.094  70.297  1.00  0.00    -0.389 A  
HETATM    9 CL   UNL     1     -13.721  13.000  72.210  1.00  0.00    -0.646 Cl 
HETATM   10  C   UNL     1     -11.249  11.026  69.687  1.00  0.00    -0.345 A  
HETATM   11  C   UNL     1     -11.393   9.709  70.125  1.00  0.00    -0.275 A  
BRANCH   8  12
HETATM   12  C   UNL     1     -11.798  13.425  69.630  1.00  0.00    -0.331 C  
HETATM   13  O   UNL     1     -12.749  14.197  69.756  1.00  0.00    -0.212 OA 
HETATM   14  N   UNL     1     -10.644  13.692  68.908  1.00  0.00    -0.360 N  
HETATM   15  H   UNL     1      -9.958  12.940  68.844  1.00  0.00     0.000 HD 
BRANCH  14  16
HETATM   16  C   UNL     1     -10.324  14.910  68.249  1.00  0.00    -0.232 A  
HETATM   17  C   UNL     1     -10.925  15.305  67.057  1.00  0.00    -0.324 A  
HETATM   18  C   UNL     1     -10.612  16.528  66.471  1.00  0.00    -0.217 A  
HETATM   19  C   UNL     1      -9.668  17.379  67.051  1.00  0.00    -0.276 A  
HETATM   20  C   UNL     1      -8.969  16.997  68.215  1.00  0.00    -0.242 A  
HETATM   21 CL   UNL     1      -9.502  18.922  66.278  1.00  0.00    -0.340 Cl 
HETATM   22  C   UNL     1      -9.357  15.763  68.818  1.00  0.00    -0.218 A  
BRANCH  20  23
HETATM   23  C   UNL     1      -7.859  17.788  68.813  1.00  0.00    -0.250 A  
HETATM   24  C   UNL     1      -7.850  19.187  68.861  1.00  0.00    -0.351 A  
HETATM   25  C   UNL     1      -6.778  19.864  69.438  1.00  0.00    -0.355 A  
HETATM   26  C   UNL     1      -5.702  19.139  69.918  1.00  0.00    -0.266 A  
HETATM   27  C   UNL     1      -5.752  17.761  69.801  1.00  0.00    -0.241 A  
HETATM   28  N   UNL     1      -6.794  17.076  69.267  1.00  0.00    -0.236 NA 
ENDBRANCH  20  23
ENDBRANCH  14  16
ENDBRANCH   8  12
ENDBRANCH   2   5
TORSDOF 4
ENDMDL
MODEL       19
REMARK 921   NORMALIZED FREE ENERGY PREDICTED BY IDOCK:   -6.58 KCAL/MOL
REMARK 922        TOTAL FREE ENERGY PREDICTED BY IDOCK:   -8.74 KCAL/MOL
REMARK 923 INTER-LIGAND FREE ENERGY PREDICTED BY IDOCK:   -8.10 KCAL/MOL
REMARK 924 INTRA-LIGAND FREE ENERGY PREDICTED BY IDOCK:   -0.65 KCAL/MOL
REMARK 927      BINDING AFFINITY PREDICTED BY RF-SCORE:    0.00 PKD
ROOT
HETATM    1  C   UNL     1      -9.686   2.251  71.873  1.00  0.00    -0.142 C  
HETATM    2  S   UNL     1     -10.214   3.051  73.366  1.00  0.00    -0.137 S  
HETATM    3  O   UNL     1      -9.107   3.055  74.303  1.00  0.00    -0.078 OA 
HETATM    4  O   UNL     1     -11.506   2.506  73.743  1.00  0.00    -0.213 OA 
ENDROOT
BRANCH   2   5
HETATM    5  C   UNL     1     -10.486   4.731  72.853  1.00  0.00    -0.201 A  
HETATM    6  C   UNL     1     -10.659   5.029  71.497  1.00  0.00    -0.175 A  
HETATM    7  C   UNL     1     -10.814   6.362  71.082  1.00  0.00    -0.258 A  
HETATM    8  C   UNL     1     -10.814   7.399  72.024  1.00  0.00    -0.263 A  
HETATM    9 CL   UNL     1     -10.936   6.621  69.378  1.00  0.00    -0.336 Cl 
HETATM   10  C   UNL     1     -10.683   7.062  73.392  1.00  0.00    -0.379 A  
HETATM   11  C   UNL     1     -10.527   5.740  73.811  1.00  0.00    -0.291 A  
BRANCH   8  12
HETATM   12  C   UNL     1     -10.835   8.864  71.722  1.00  0.00    -0.365 C  
HETATM   13  O   UNL     1      -9.738   9.422  71.709  1.00  0.00    -0.226 OA 
HETATM   14  N   UNL     1     -12.054   9.493  71.510  1.00  0.00    -0.364 N  
HETATM   15  H   UNL     1     -12.891   8.917  71.602  1.00  0.00     0.000 HD 
BRANCH  14  16
HETATM   16  C   UNL     1     -12.250  10.861  71.177  1.00  0.00    -0.336 A  
HETATM   17  C   UNL     1     -12.923  11.752  72.009  1.00  0.00    -0.370 A  
HETATM   18  C   UNL     1     -13.052  13.094  71.661  1.00  0.00    -0.444 A  
HETATM   19  C   UNL     1     -12.532  13.574  70.457  1.00  0.00    -0.302 A  
HETATM   20  C   UNL     1     -11.910  12.703  69.538  1.00  0.00    -0.376 A  
HETATM   21 CL   UNL     1     -12.649  15.291  70.243  1.00  0.00    -0.402 Cl 
HETATM   22  C   UNL     1     -11.747  11.348  69.954  1.00  0.00    -0.424 A  
BRANCH  20  23
HETATM   23  C   UNL     1     -11.453  13.114  68.183  1.00  0.00    -0.314 A  
HETATM   24  C   UNL     1     -10.458  14.074  67.966  1.00  0.00    -0.241 A  
HETATM   25  C   UNL     1     -10.076  14.411  66.669  1.00  0.00    -0.276 A  
HETATM   26  C   UNL     1     -10.727  13.821  65.601  1.00  0.00    -0.288 A  
HETATM   27  C   UNL     1     -11.732  12.912  65.882  1.00  0.00    -0.399 A  
HETATM   28  N   UNL     1     -12.105  12.549  67.134  1.00  0.00    -0.495 NA 
ENDBRANCH  20  23
ENDBRANCH  14  16
ENDBRANCH   8  12
ENDBRANCH   2   5
TORSDOF 4
ENDMDL
MODEL       20
REMARK 921   NORMALIZED FREE ENERGY PREDICTED BY IDOCK:   -6.56 KCAL/MOL
REMARK 922        TOTAL FREE ENERGY PREDICTED BY IDOCK:   -8.72 KCAL/MOL
REMARK 923 INTER-LIGAND FREE ENERGY PREDICTED BY IDOCK:   -8.41 KCAL/MOL
REMARK 924 INTRA-LIGAND FREE ENERGY PREDICTED BY IDOCK:   -0.31 KCAL/MOL
REMARK 927      BINDING AFFINITY PREDICTED BY RF-SCORE:    0.00 PKD
ROOT
HETATM    1  C   UNL     1     -11.091  15.133  64.707  1.00  0.00    -0.382 C  
HETATM    2  S   UNL     1     -12.258  13.797  64.722  1.00  0.00    -0.403 S  
HETATM    3  O   UNL     1     -12.197  13.117  63.442  1.00  0.00    -0.646 OA 
HETATM    4  O   UNL     1     -13.519  14.298  65.240  1.00  0.00    -0.564 OA 
ENDROOT
BRANCH   2   5
HETATM    5  C   UNL     1     -11.594  12.691  65.946  1.00  0.00    -0.396 A  
HETATM    6  C   UNL     1     -10.945  11.517  65.548  1.00  0.00    -0.290 A  
HETATM    7  C   UNL     1     -10.472  10.611  66.513  1.00  0.00    -0.224 A  
HETATM    8  C   UNL     1     -10.631  10.886  67.877  1.00  0.00    -0.246 A  
HETATM    9 CL   UNL     1      -9.761   9.156  65.910  1.00  0.00    -0.350 Cl 
HETATM   10  C   UNL     1     -11.251  12.104  68.248  1.00  0.00    -0.319 A  
HETATM   11  C   UNL     1     -11.725  13.007  67.295  1.00  0.00    -0.429 A  
BRANCH   8  12
HETATM   12  C   UNL     1     -10.302   9.962  69.007  1.00  0.00    -0.209 C  
HETATM   13  O   UNL     1      -9.161  10.059  69.460  1.00  0.00    -0.200 OA 
HETATM   14  N   UNL     1     -11.261   9.060  69.444  1.00  0.00    -0.439 N  
HETATM   15  H   UNL     1     -12.149   9.054  68.943  1.00  0.00     0.000 HD 
BRANCH  14  16
HETATM   16  C   UNL     1     -11.128   8.144  70.523  1.00  0.00    -0.253 A  
HETATM   17  C   UNL     1     -11.335   8.506  71.852  1.00  0.00    -0.399 A  
HETATM   18  C   UNL     1     -11.236   7.564  72.871  1.00  0.00    -0.396 A  
HETATM   19  C   UNL     1     -10.901   6.237  72.589  1.00  0.00    -0.242 A  
HETATM   20  C   UNL     1     -10.602   5.830  71.273  1.00  0.00    -0.319 A  
HETATM   21 CL   UNL     1     -10.963   5.163  73.950  1.00  0.00    -0.310 Cl 
HETATM   22  C   UNL     1     -10.769   6.809  70.248  1.00  0.00    -0.284 A  
BRANCH  20  23
HETATM   23  C   UNL     1     -10.110   4.472  70.915  1.00  0.00    -0.158 A  
HETATM   24  C   UNL     1      -9.828   3.482  71.864  1.00  0.00    -0.237 A  
HETATM   25  C   UNL     1      -9.372   2.229  71.458  1.00  0.00    -0.191 A  
HETATM   26  C   UNL     1      -9.155   1.994  70.113  1.00  0.00    -0.165 A  
HETATM   27  C   UNL     1      -9.411   3.028  69.230  1.00  0.00    -0.147 A  
HETATM   28  N   UNL     1      -9.879   4.248  69.595  1.00  0.00    -0.212 NA 
ENDBRANCH  20  23
ENDBRANCH  14  16
ENDBRANCH   8  12
ENDBRANCH   2   5
TORSDOF 4
ENDMDL
MODEL       21
REMARK 921   NORMALIZED FREE ENERGY PREDICTED BY IDOCK:   -6.47 KCAL/MOL
REMARK 922        TOTAL FREE ENERGY PREDICTED BY IDOCK:   -8.60 KCAL/MOL
REMARK 923 INTER-LIGAND FREE ENERGY PREDICTED BY IDOCK:   -8.69 KCAL/MOL
REMARK 924 INTRA-LIGAND FREE ENERGY PREDICTED BY IDOCK:    0.09 KCAL/MOL
REMARK 927      BINDING AFFINITY PREDICTED BY RF-SCORE:    0.00 PKD
ROOT
HETATM    1  C   UNL     1      -8.428   6.300  72.681  1.00  0.00    -0.123 C  
HETATM    2  S   UNL     1      -9.298   7.683  73.373  1.00  0.00    -0.287 S  
HETATM    3  O   UNL     1      -8.360   8.481  74.141  1.00  0.00    -0.301 OA 
HETATM    4  O   UNL     1     -10.527   7.195  73.973  1.00  0.00    -0.353 OA 
ENDROOT
BRANCH   2   5
HETATM    5  C   UNL     1      -9.758   8.632  71.942  1.00  0.00    -0.313 A  
HETATM    6  C   UNL     1      -8.804   8.924  70.960  1.00  0.00    -0.285 A  
HETATM    7  C   UNL     1      -9.149   9.724  69.858  1.00  0.00    -0.229 A  
HETATM    8  C   UNL     1     -10.453  10.218  69.725  1.00  0.00    -0.300 A  
HETATM    9 CL   UNL     1      -7.873  10.090  68.753  1.00  0.00    -0.090 Cl 
HETATM   10  C   UNL     1     -11.407   9.867  70.710  1.00  0.00    -0.430 A  
HETATM   11  C   UNL     1     -11.071   9.075  71.808  1.00  0.00    -0.444 A  
BRANCH   8  12
HETATM   12  C   UNL     1     -10.928  11.183  68.685  1.00  0.00    -0.220 C  
HETATM   13  O   UNL     1     -12.102  11.056  68.336  1.00  0.00    -0.594 OA 
HETATM   14  N   UNL     1     -10.038  12.115  68.171  1.00  0.00    -0.201 N  
HETATM   15  H   UNL     1      -9.079  12.073  68.514  1.00  0.00     0.000 HD 
BRANCH  14  16
HETATM   16  C   UNL     1     -10.333  13.122  67.211  1.00  0.00    -0.243 A  
HETATM   17  C   UNL     1     -10.708  12.832  65.902  1.00  0.00    -0.294 A  
HETATM   18  C   UNL     1     -11.030  13.851  65.010  1.00  0.00    -0.371 A  
HETATM   19  C   UNL     1     -10.959  15.191  65.399  1.00  0.00    -0.374 A  
HETATM   20  C   UNL     1     -10.509  15.548  66.687  1.00  0.00    -0.299 A  
HETATM   21 CL   UNL     1     -11.532  16.326  64.219  1.00  0.00    -0.267 Cl 
HETATM   22  C   UNL     1     -10.243  14.476  67.590  1.00  0.00    -0.225 A  
BRANCH  20  23
HETATM   23  C   UNL     1     -10.281  16.952  67.127  1.00  0.00    -0.297 A  
HETATM   24  C   UNL     1     -10.300  17.350  68.469  1.00  0.00    -0.378 A  
HETATM   25  C   UNL     1     -10.076  18.682  68.810  1.00  0.00    -0.398 A  
HETATM   26  C   UNL     1      -9.884  19.612  67.804  1.00  0.00    -0.498 A  
HETATM   27  C   UNL     1      -9.921  19.163  66.496  1.00  0.00    -0.383 A  
HETATM   28  N   UNL     1     -10.111  17.868  66.138  1.00  0.00    -0.490 NA 
ENDBRANCH  20  23
ENDBRANCH  14  16
ENDBRANCH   8  12
ENDBRANCH   2   5
TORSDOF 4
ENDMDL
MODEL       22
REMARK 921   NORMALIZED FREE ENERGY PREDICTED BY IDOCK:   -6.43 KCAL/MOL
REMARK 922        TOTAL FREE ENERGY PREDICTED BY IDOCK:   -8.55 KCAL/MOL
REMARK 923 INTER-LIGAND FREE ENERGY PREDICTED BY IDOCK:   -7.92 KCAL/MOL
REMARK 924 INTRA-LIGAND FREE ENERGY PREDICTED BY IDOCK:   -0.63 KCAL/MOL
REMARK 927      BINDING AFFINITY PREDICTED BY RF-SCORE:    0.00 PKD
ROOT
HETATM    1  C   UNL     1      -7.560   2.862  70.062  1.00  0.00    -0.043 C  
HETATM    2  S   UNL     1      -9.318   2.780  69.837  1.00  0.00    -0.099 S  
HETATM    3  O   UNL     1      -9.877   1.943  70.882  1.00  0.00    -0.105 OA 
HETATM    4  O   UNL     1      -9.587   2.504  68.437  1.00  0.00    -0.190 OA 
ENDROOT
BRANCH   2   5
HETATM    5  C   UNL     1      -9.846   4.448  70.150  1.00  0.00    -0.217 A  
HETATM    6  C   UNL     1     -10.055   5.327  69.081  1.00  0.00    -0.289 A  
HETATM    7  C   UNL     1     -10.415   6.663  69.327  1.00  0.00    -0.214 A  
HETATM    8  C   UNL     1     -10.584   7.118  70.641  1.00  0.00    -0.243 A  
HETATM    9 CL   UNL     1     -10.565   7.681  67.939  1.00  0.00    -0.259 Cl 
HETATM   10  C   UNL     1     -10.411   6.193  71.699  1.00  0.00    -0.259 A  
HETATM   11  C   UNL     1     -10.052   4.866  71.462  1.00  0.00    -0.266 A  
BRANCH   8  12
HETATM   12  C   UNL     1     -10.833   8.533  71.059  1.00  0.00    -0.241 C  
HETATM   13  O   UNL     1     -10.105   8.961  71.955  1.00  0.00    -0.332 OA 
HETATM   14  N   UNL     1     -11.856   9.247  70.452  1.00  0.00    -0.461 N  
HETATM   15  H   UNL     1     -12.416   8.750  69.759  1.00  0.00     0.000 HD 
BRANCH  14  16
HETATM   16  C   UNL     1     -12.201  10.604  70.701  1.00  0.00    -0.365 A  
HETATM   17  C   UNL     1     -13.042  10.990  71.742  1.00  0.00    -0.554 A  
HETATM   18  C   UNL     1     -13.316  12.335  71.975  1.00  0.00    -0.491 A  
HETATM   19  C   UNL     1     -12.775  13.328  71.155  1.00  0.00    -0.320 A  
HETATM   20  C   UNL     1     -11.981  12.992  70.038  1.00  0.00    -0.383 A  
HETATM   21 CL   UNL     1     -13.095  14.954  71.667  1.00  0.00    -0.386 Cl 
HETATM   22  C   UNL     1     -11.676  11.609  69.865  1.00  0.00    -0.414 A  
BRANCH  20  23
HETATM   23  C   UNL     1     -11.482  13.983  69.046  1.00  0.00    -0.296 A  
HETATM   24  C   UNL     1     -10.572  14.997  69.364  1.00  0.00    -0.262 A  
HETATM   25  C   UNL     1     -10.144  15.891  68.384  1.00  0.00    -0.223 A  
HETATM   26  C   UNL     1     -10.669  15.793  67.108  1.00  0.00    -0.312 A  
HETATM   27  C   UNL     1     -11.598  14.795  66.869  1.00  0.00    -0.327 A  
HETATM   28  N   UNL     1     -12.011  13.898  67.798  1.00  0.00    -0.371 NA 
ENDBRANCH  20  23
ENDBRANCH  14  16
ENDBRANCH   8  12
ENDBRANCH   2   5
TORSDOF 4
ENDMDL
MODEL       23
REMARK 921   NORMALIZED FREE ENERGY PREDICTED BY IDOCK:   -6.42 KCAL/MOL
REMARK 922        TOTAL FREE ENERGY PREDICTED BY IDOCK:   -8.55 KCAL/MOL
REMARK 923 INTER-LIGAND FREE ENERGY PREDICTED BY IDOCK:   -7.77 KCAL/MOL
REMARK 924 INTRA-LIGAND FREE ENERGY PREDICTED BY IDOCK:   -0.78 KCAL/MOL
REMARK 927      BINDING AFFINITY PREDICTED BY RF-SCORE:    0.00 PKD
ROOT
HETATM    1  C   UNL     1      -7.609   3.153  70.095  1.00  0.00    -0.044 C  
HETATM    2  S   UNL     1      -9.375   3.201  69.932  1.00  0.00    -0.137 S  
HETATM    3  O   UNL     1      -9.964   2.673  71.147  1.00  0.00    -0.094 OA 
HETATM    4  O   UNL     1      -9.728   2.654  68.634  1.00  0.00    -0.087 OA 
ENDROOT
BRANCH   2   5
HETATM    5  C   UNL     1      -9.731   4.942  69.879  1.00  0.00    -0.206 A  
HETATM    6  C   UNL     1     -10.097   5.544  68.670  1.00  0.00    -0.246 A  
HETATM    7  C   UNL     1     -10.321   6.930  68.612  1.00  0.00    -0.186 A  
HETATM    8  C   UNL     1     -10.197   7.714  69.766  1.00  0.00    -0.210 A  
HETATM    9 CL   UNL     1     -10.685   7.579  67.052  1.00  0.00    -0.422 Cl 
HETATM   10  C   UNL     1      -9.871   7.069  70.983  1.00  0.00    -0.185 A  
HETATM   11  C   UNL     1      -9.645   5.693  71.048  1.00  0.00    -0.210 A  
BRANCH   8  12
HETATM   12  C   UNL     1     -10.274   9.207  69.831  1.00  0.00    -0.205 C  
HETATM   13  O   UNL     1      -9.213   9.786  70.065  1.00  0.00    -0.222 OA 
HETATM   14  N   UNL     1     -11.502   9.828  69.657  1.00  0.00    -0.433 N  
HETATM   15  H   UNL     1     -12.310   9.221  69.522  1.00  0.00     0.000 HD 
BRANCH  14  16
HETATM   16  C   UNL     1     -11.745  11.229  69.651  1.00  0.00    -0.350 A  
HETATM   17  C   UNL     1     -12.215  11.920  70.764  1.00  0.00    -0.401 A  
HETATM   18  C   UNL     1     -12.395  13.299  70.724  1.00  0.00    -0.425 A  
HETATM   19  C   UNL     1     -12.134  14.021  69.557  1.00  0.00    -0.347 A  
HETATM   20  C   UNL     1     -11.732  13.366  68.375  1.00  0.00    -0.390 A  
HETATM   21 CL   UNL     1     -12.269  15.743  69.718  1.00  0.00    -0.315 Cl 
HETATM   22  C   UNL     1     -11.503  11.960  68.471  1.00  0.00    -0.349 A  
BRANCH  20  23
HETATM   23  C   UNL     1     -11.564  14.048  67.063  1.00  0.00    -0.371 A  
HETATM   24  C   UNL     1     -12.403  13.823  65.966  1.00  0.00    -0.499 A  
HETATM   25  C   UNL     1     -12.189  14.499  64.766  1.00  0.00    -0.441 A  
HETATM   26  C   UNL     1     -11.109  15.356  64.660  1.00  0.00    -0.361 A  
HETATM   27  C   UNL     1     -10.291  15.502  65.766  1.00  0.00    -0.363 A  
HETATM   28  N   UNL     1     -10.492  14.876  66.953  1.00  0.00    -0.275 NA 
ENDBRANCH  20  23
ENDBRANCH  14  16
ENDBRANCH   8  12
ENDBRANCH   2   5
TORSDOF 4
ENDMDL
MODEL       24
REMARK 921   NORMALIZED FREE ENERGY PREDICTED BY IDOCK:   -6.34 KCAL/MOL
REMARK 922        TOTAL FREE ENERGY PREDICTED BY IDOCK:   -8.44 KCAL/MOL
REMARK 923 INTER-LIGAND FREE ENERGY PREDICTED BY IDOCK:   -7.84 KCAL/MOL
REMARK 924 INTRA-LIGAND FREE ENERGY PREDICTED BY IDOCK:   -0.60 KCAL/MOL
REMARK 927      BINDING AFFINITY PREDICTED BY RF-SCORE:    0.00 PKD
ROOT
HETATM    1  C   UNL     1      -7.387   3.616  67.635  1.00  0.00    -0.062 C  
HETATM    2  S   UNL     1      -9.159   3.611  67.709  1.00  0.00    -0.172 S  
HETATM    3  O   UNL     1      -9.585   2.451  68.469  1.00  0.00    -0.185 OA 
HETATM    4  O   UNL     1      -9.673   3.856  66.374  1.00  0.00    -0.203 OA 
ENDROOT
BRANCH   2   5
HETATM    5  C   UNL     1      -9.529   5.052  68.683  1.00  0.00    -0.139 A  
HETATM    6  C   UNL     1     -10.206   4.918  69.900  1.00  0.00    -0.299 A  
HETATM    7  C   UNL     1     -10.553   6.059  70.644  1.00  0.00    -0.260 A  
HETATM    8  C   UNL     1     -10.208   7.335  70.180  1.00  0.00    -0.209 A  
HETATM    9 CL   UNL     1     -11.459   5.782  72.088  1.00  0.00    -0.325 Cl 
HETATM   10  C   UNL     1      -9.484   7.435  68.967  1.00  0.00    -0.148 A  
HETATM   11  C   UNL     1      -9.138   6.306  68.224  1.00  0.00    -0.113 A  
BRANCH   8  12
HETATM   12  C   UNL     1     -10.623   8.637  70.789  1.00  0.00    -0.210 C  
HETATM   13  O   UNL     1      -9.995   8.981  71.791  1.00  0.00    -0.325 OA 
HETATM   14  N   UNL     1     -11.677   9.341  70.225  1.00  0.00    -0.461 N  
HETATM   15  H   UNL     1     -12.143   8.912  69.426  1.00  0.00     0.000 HD 
BRANCH  14  16
HETATM   16  C   UNL     1     -12.172  10.604  70.653  1.00  0.00    -0.365 A  
HETATM   17  C   UNL     1     -13.110  10.742  71.673  1.00  0.00    -0.551 A  
HETATM   18  C   UNL     1     -13.532  12.001  72.088  1.00  0.00    -0.338 A  
HETATM   19  C   UNL     1     -13.044  13.158  71.475  1.00  0.00    -0.315 A  
HETATM   20  C   UNL     1     -12.153  13.078  70.384  1.00  0.00    -0.391 A  
HETATM   21 CL   UNL     1     -13.558  14.645  72.205  1.00  0.00    -0.482 Cl 
HETATM   22  C   UNL     1     -11.700  11.773  70.025  1.00  0.00    -0.386 A  
BRANCH  20  23
HETATM   23  C   UNL     1     -11.696  14.256  69.598  1.00  0.00    -0.308 A  
HETATM   24  C   UNL     1     -11.172  15.414  70.183  1.00  0.00    -0.318 A  
HETATM   25  C   UNL     1     -10.761  16.481  69.385  1.00  0.00    -0.330 A  
HETATM   26  C   UNL     1     -10.923  16.398  68.014  1.00  0.00    -0.327 A  
HETATM   27  C   UNL     1     -11.488  15.243  67.501  1.00  0.00    -0.265 A  
HETATM   28  N   UNL     1     -11.873  14.182  68.253  1.00  0.00    -0.352 NA 
ENDBRANCH  20  23
ENDBRANCH  14  16
ENDBRANCH   8  12
ENDBRANCH   2   5
TORSDOF 4
ENDMDL
MODEL       25
REMARK 921   NORMALIZED FREE ENERGY PREDICTED BY IDOCK:   -6.33 KCAL/MOL
REMARK 922        TOTAL FREE ENERGY PREDICTED BY IDOCK:   -8.44 KCAL/MOL
REMARK 923 INTER-LIGAND FREE ENERGY PREDICTED BY IDOCK:   -7.95 KCAL/MOL
REMARK 924 INTRA-LIGAND FREE ENERGY PREDICTED BY IDOCK:   -0.49 KCAL/MOL
REMARK 927      BINDING AFFINITY PREDICTED BY RF-SCORE:    0.00 PKD
ROOT
HETATM    1  C   UNL     1      -8.585   5.006  64.859  1.00  0.00    -0.150 C  
HETATM    2  S   UNL     1      -9.939   4.558  65.915  1.00  0.00    -0.255 S  
HETATM    3  O   UNL     1      -9.558   3.385  66.680  1.00  0.00    -0.167 OA 
HETATM    4  O   UNL     1     -11.157   4.568  65.124  1.00  0.00    -0.219 OA 
ENDROOT
BRANCH   2   5
HETATM    5  C   UNL     1     -10.041   5.924  67.048  1.00  0.00    -0.183 A  
HETATM    6  C   UNL     1     -10.519   5.720  68.347  1.00  0.00    -0.283 A  
HETATM    7  C   UNL     1     -10.657   6.808  69.226  1.00  0.00    -0.231 A  
HETATM    8  C   UNL     1     -10.302   8.098  68.814  1.00  0.00    -0.220 A  
HETATM    9 CL   UNL     1     -11.335   6.454  70.776  1.00  0.00    -0.390 Cl 
HETATM   10  C   UNL     1      -9.778   8.265  67.509  1.00  0.00    -0.212 A  
HETATM   11  C   UNL     1      -9.640   7.190  66.630  1.00  0.00    -0.226 A  
BRANCH   8  12
HETATM   12  C   UNL     1     -10.517   9.361  69.586  1.00  0.00    -0.223 C  
HETATM   13  O   UNL     1      -9.641   9.643  70.403  1.00  0.00    -0.251 OA 
HETATM   14  N   UNL     1     -11.670  10.101  69.363  1.00  0.00    -0.476 N  
HETATM   15  H   UNL     1     -12.338   9.722  68.693  1.00  0.00     0.000 HD 
BRANCH  14  16
HETATM   16  C   UNL     1     -12.011  11.336  69.979  1.00  0.00    -0.368 A  
HETATM   17  C   UNL     1     -12.847  11.421  71.090  1.00  0.00    -0.440 A  
HETATM   18  C   UNL     1     -13.117  12.649  71.687  1.00  0.00    -0.421 A  
HETATM   19  C   UNL     1     -12.577  13.830  71.170  1.00  0.00    -0.373 A  
HETATM   20  C   UNL     1     -11.789  13.815  70.001  1.00  0.00    -0.377 A  
HETATM   21 CL   UNL     1     -12.892  15.251  72.113  1.00  0.00    -0.399 Cl 
HETATM   22  C   UNL     1     -11.487  12.533  69.451  1.00  0.00    -0.327 A  
BRANCH  20  23
HETATM   23  C   UNL     1     -11.292  15.040  69.318  1.00  0.00    -0.296 A  
HETATM   24  C   UNL     1     -10.832  16.170  70.006  1.00  0.00    -0.349 A  
HETATM   25  C   UNL     1     -10.378  17.284  69.303  1.00  0.00    -0.237 A  
HETATM   26  C   UNL     1     -10.435  17.278  67.920  1.00  0.00    -0.382 A  
HETATM   27  C   UNL     1     -10.941  16.148  67.302  1.00  0.00    -0.175 A  
HETATM   28  N   UNL     1     -11.365  15.041  67.962  1.00  0.00    -0.316 NA 
ENDBRANCH  20  23
ENDBRANCH  14  16
ENDBRANCH   8  12
ENDBRANCH   2   5
TORSDOF 4
ENDMDL
MODEL       26
REMARK 921   NORMALIZED FREE ENERGY PREDICTED BY IDOCK:   -6.29 KCAL/MOL
REMARK 922        TOTAL FREE ENERGY PREDICTED BY IDOCK:   -8.38 KCAL/MOL
REMARK 923 INTER-LIGAND FREE ENERGY PREDICTED BY IDOCK:   -7.83 KCAL/MOL
REMARK 924 INTRA-LIGAND FREE ENERGY PREDICTED BY IDOCK:   -0.55 KCAL/MOL
REMARK 927      BINDING AFFINITY PREDICTED BY RF-SCORE:    0.00 PKD
ROOT
HETATM    1  C   UNL     1      -7.752   2.898  71.582  1.00  0.00    -0.048 C  
HETATM    2  S   UNL     1      -9.400   2.896  70.925  1.00  0.00    -0.157 S  
HETATM    3  O   UNL     1     -10.318   2.523  71.985  1.00  0.00    -0.119 OA 
HETATM    4  O   UNL     1      -9.387   2.178  69.663  1.00  0.00    -0.112 OA 
ENDROOT
BRANCH   2   5
HETATM    5  C   UNL     1      -9.689   4.609  70.548  1.00  0.00    -0.214 A  
HETATM    6  C   UNL     1     -10.208   4.972  69.300  1.00  0.00    -0.245 A  
HETATM    7  C   UNL     1     -10.382   6.328  68.975  1.00  0.00    -0.206 A  
HETATM    8  C   UNL     1     -10.055   7.323  69.905  1.00  0.00    -0.196 A  
HETATM    9 CL   UNL     1     -10.950   6.664  67.378  1.00  0.00    -0.422 Cl 
HETATM   10  C   UNL     1      -9.576   6.923  71.176  1.00  0.00    -0.167 A  
HETATM   11  C   UNL     1      -9.398   5.578  71.503  1.00  0.00    -0.172 A  
BRANCH   8  12
HETATM   12  C   UNL     1     -10.060   8.799  69.656  1.00  0.00    -0.204 C  
HETATM   13  O   UNL     1      -9.018   9.391  69.936  1.00  0.00    -0.166 OA 
HETATM   14  N   UNL     1     -11.213   9.397  69.168  1.00  0.00    -0.446 N  
HETATM   15  H   UNL     1     -12.022   8.792  69.029  1.00  0.00     0.000 HD 
BRANCH  14  16
HETATM   16  C   UNL     1     -11.376  10.772  68.841  1.00  0.00    -0.284 A  
HETATM   17  C   UNL     1     -11.173  11.273  67.558  1.00  0.00    -0.357 A  
HETATM   18  C   UNL     1     -11.388  12.618  67.276  1.00  0.00    -0.372 A  
HETATM   19  C   UNL     1     -11.788  13.505  68.279  1.00  0.00    -0.366 A  
HETATM   20  C   UNL     1     -11.933  13.071  69.613  1.00  0.00    -0.367 A  
HETATM   21 CL   UNL     1     -12.153  15.110  67.733  1.00  0.00    -0.053 Cl 
HETATM   22  C   UNL     1     -11.759  11.675  69.853  1.00  0.00    -0.414 A  
BRANCH  20  23
HETATM   23  C   UNL     1     -12.225  13.980  70.755  1.00  0.00    -0.367 A  
HETATM   24  C   UNL     1     -13.267  13.762  71.663  1.00  0.00    -0.450 A  
HETATM   25  C   UNL     1     -13.484  14.655  72.712  1.00  0.00    -0.570 A  
HETATM   26  C   UNL     1     -12.687  15.781  72.813  1.00  0.00    -0.553 A  
HETATM   27  C   UNL     1     -11.703  15.961  71.858  1.00  0.00    -0.499 A  
HETATM   28  N   UNL     1     -11.455  15.096  70.843  1.00  0.00    -0.307 NA 
ENDBRANCH  20  23
ENDBRANCH  14  16
ENDBRANCH   8  12
ENDBRANCH   2   5
TORSDOF 4
ENDMDL
MODEL       27
REMARK 921   NORMALIZED FREE ENERGY PREDICTED BY IDOCK:   -6.26 KCAL/MOL
REMARK 922        TOTAL FREE ENERGY PREDICTED BY IDOCK:   -8.35 KCAL/MOL
REMARK 923 INTER-LIGAND FREE ENERGY PREDICTED BY IDOCK:   -7.64 KCAL/MOL
REMARK 924 INTRA-LIGAND FREE ENERGY PREDICTED BY IDOCK:   -0.71 KCAL/MOL
REMARK 927      BINDING AFFINITY PREDICTED BY RF-SCORE:    0.00 PKD
ROOT
HETATM    1  C   UNL     1     -10.795   5.706  73.086  1.00  0.00    -0.281 C  
HETATM    2  S   UNL     1      -9.347   6.474  72.406  1.00  0.00    -0.134 S  
HETATM    3  O   UNL     1      -8.631   5.490  71.617  1.00  0.00    -0.129 OA 
HETATM    4  O   UNL     1      -8.680   7.208  73.466  1.00  0.00    -0.129 OA 
ENDROOT
BRANCH   2   5
HETATM    5  C   UNL     1     -10.016   7.677  71.281  1.00  0.00    -0.179 A  
HETATM    6  C   UNL     1     -10.008   7.426  69.904  1.00  0.00    -0.188 A  
HETATM    7  C   UNL     1     -10.480   8.399  69.007  1.00  0.00    -0.201 A  
HETATM    8  C   UNL     1     -10.978   9.618  69.486  1.00  0.00    -0.233 A  
HETATM    9 CL   UNL     1     -10.346   8.018  67.327  1.00  0.00    -0.343 Cl 
HETATM   10  C   UNL     1     -11.015   9.824  70.886  1.00  0.00    -0.411 A  
HETATM   11  C   UNL     1     -10.546   8.862  71.782  1.00  0.00    -0.432 A  
BRANCH   8  12
HETATM   12  C   UNL     1     -11.387  10.792  68.653  1.00  0.00    -0.291 C  
HETATM   13  O   UNL     1     -12.509  11.244  68.883  1.00  0.00    -0.433 OA 
HETATM   14  N   UNL     1     -10.518  11.266  67.681  1.00  0.00    -0.186 N  
HETATM   15  H   UNL     1      -9.639  10.762  67.563  1.00  0.00     0.000 HD 
BRANCH  14  16
HETATM   16  C   UNL     1     -10.732  12.388  66.834  1.00  0.00    -0.240 A  
HETATM   17  C   UNL     1     -11.323  12.284  65.578  1.00  0.00    -0.394 A  
HETATM   18  C   UNL     1     -11.553  13.416  64.801  1.00  0.00    -0.367 A  
HETATM   19  C   UNL     1     -11.173  14.682  65.253  1.00  0.00    -0.358 A  
HETATM   20  C   UNL     1     -10.498  14.840  66.481  1.00  0.00    -0.291 A  
HETATM   21 CL   UNL     1     -11.661  15.998  64.234  1.00  0.00    -0.323 Cl 
HETATM   22  C   UNL     1     -10.332  13.665  67.274  1.00  0.00    -0.249 A  
BRANCH  20  23
HETATM   23  C   UNL     1      -9.946  16.135  66.965  1.00  0.00    -0.258 A  
HETATM   24  C   UNL     1      -8.691  16.625  66.585  1.00  0.00    -0.280 A  
HETATM   25  C   UNL     1      -8.237  17.848  67.075  1.00  0.00    -0.241 A  
HETATM   26  C   UNL     1      -9.019  18.545  67.978  1.00  0.00    -0.319 A  
HETATM   27  C   UNL     1     -10.230  17.986  68.347  1.00  0.00    -0.391 A  
HETATM   28  N   UNL     1     -10.707  16.810  67.866  1.00  0.00    -0.354 NA 
ENDBRANCH  20  23
ENDBRANCH  14  16
ENDBRANCH   8  12
ENDBRANCH   2   5
TORSDOF 4
ENDMDL
MODEL       28
REMARK 921   NORMALIZED FREE ENERGY PREDICTED BY IDOCK:   -6.24 KCAL/MOL
REMARK 922        TOTAL FREE ENERGY PREDICTED BY IDOCK:   -8.32 KCAL/MOL
REMARK 923 INTER-LIGAND FREE ENERGY PREDICTED BY IDOCK:   -7.57 KCAL/MOL
REMARK 924 INTRA-LIGAND FREE ENERGY PREDICTED BY IDOCK:   -0.74 KCAL/MOL
REMARK 927      BINDING AFFINITY PREDICTED BY RF-SCORE:    0.00 PKD
ROOT
HETATM    1  C   UNL     1      -8.896   4.366  73.700  1.00  0.00    -0.101 C  
HETATM    2  S   UNL     1     -10.484   5.146  73.580  1.00  0.00    -0.274 S  
HETATM    3  O   UNL     1     -10.471   6.346  74.396  1.00  0.00    -0.304 OA 
HETATM    4  O   UNL     1     -11.507   4.131  73.764  1.00  0.00    -0.186 OA 
ENDROOT
BRANCH   2   5
HETATM    5  C   UNL     1     -10.559   5.658  71.880  1.00  0.00    -0.232 A  
HETATM    6  C   UNL     1     -10.046   4.829  70.876  1.00  0.00    -0.275 A  
HETATM    7  C   UNL     1     -10.048   5.256  69.538  1.00  0.00    -0.252 A  
HETATM    8  C   UNL     1     -10.581   6.506  69.197  1.00  0.00    -0.286 A  
HETATM    9 CL   UNL     1      -9.314   4.188  68.395  1.00  0.00    -0.199 Cl 
HETATM   10  C   UNL     1     -11.135   7.303  70.228  1.00  0.00    -0.289 A  
HETATM   11  C   UNL     1     -11.133   6.885  71.560  1.00  0.00    -0.276 A  
BRANCH   8  12
HETATM   12  C   UNL     1     -10.532   7.147  67.846  1.00  0.00    -0.212 C  
HETATM   13  O   UNL     1     -11.257   6.640  66.989  1.00  0.00    -0.404 OA 
HETATM   14  N   UNL     1      -9.679   8.221  67.638  1.00  0.00    -0.152 N  
HETATM   15  H   UNL     1      -9.096   8.504  68.424  1.00  0.00     0.000 HD 
BRANCH  14  16
HETATM   16  C   UNL     1      -9.538   8.965  66.434  1.00  0.00    -0.238 A  
HETATM   17  C   UNL     1      -8.705   8.565  65.392  1.00  0.00    -0.194 A  
HETATM   18  C   UNL     1      -8.633   9.302  64.214  1.00  0.00    -0.214 A  
HETATM   19  C   UNL     1      -9.376  10.476  64.058  1.00  0.00    -0.267 A  
HETATM   20  C   UNL     1     -10.175  10.972  65.108  1.00  0.00    -0.352 A  
HETATM   21 CL   UNL     1      -9.285  11.193  62.481  1.00  0.00    -0.357 Cl 
HETATM   22  C   UNL     1     -10.268  10.160  66.278  1.00  0.00    -0.288 A  
BRANCH  20  23
HETATM   23  C   UNL     1     -10.887  12.278  65.064  1.00  0.00    -0.298 A  
HETATM   24  C   UNL     1     -10.236  13.501  64.863  1.00  0.00    -0.351 A  
HETATM   25  C   UNL     1     -10.966  14.689  64.831  1.00  0.00    -0.419 A  
HETATM   26  C   UNL     1     -12.331  14.646  65.050  1.00  0.00    -0.289 A  
HETATM   27  C   UNL     1     -12.907  13.411  65.287  1.00  0.00    -0.334 A  
HETATM   28  N   UNL     1     -12.224  12.239  65.298  1.00  0.00    -0.532 NA 
ENDBRANCH  20  23
ENDBRANCH  14  16
ENDBRANCH   8  12
ENDBRANCH   2   5
TORSDOF 4
ENDMDL
MODEL       29
REMARK 921   NORMALIZED FREE ENERGY PREDICTED BY IDOCK:   -6.21 KCAL/MOL
REMARK 922        TOTAL FREE ENERGY PREDICTED BY IDOCK:   -8.28 KCAL/MOL
REMARK 923 INTER-LIGAND FREE ENERGY PREDICTED BY IDOCK:   -7.68 KCAL/MOL
REMARK 924 INTRA-LIGAND FREE ENERGY PREDICTED BY IDOCK:   -0.60 KCAL/MOL
REMARK 927      BINDING AFFINITY PREDICTED BY RF-SCORE:    0.00 PKD
ROOT
HETATM    1  C   UNL     1      -9.727   3.958  66.252  1.00  0.00    -0.160 C  
HETATM    2  S   UNL     1      -8.971   3.643  67.826  1.00  0.00    -0.151 S  
HETATM    3  O   UNL     1      -7.531   3.629  67.651  1.00  0.00    -0.065 OA 
HETATM    4  O   UNL     1      -9.658   2.523  68.445  1.00  0.00    -0.190 OA 
ENDROOT
BRANCH   2   5
HETATM    5  C   UNL     1      -9.380   5.092  68.771  1.00  0.00    -0.130 A  
HETATM    6  C   UNL     1     -10.182   4.979  69.912  1.00  0.00    -0.340 A  
HETATM    7  C   UNL     1     -10.556   6.129  70.628  1.00  0.00    -0.249 A  
HETATM    8  C   UNL     1     -10.115   7.392  70.213  1.00  0.00    -0.197 A  
HETATM    9 CL   UNL     1     -11.615   5.881  71.970  1.00  0.00    -0.325 Cl 
HETATM   10  C   UNL     1      -9.268   7.470  69.082  1.00  0.00    -0.144 A  
HETATM   11  C   UNL     1      -8.893   6.332  68.366  1.00  0.00    -0.114 A  
BRANCH   8  12
HETATM   12  C   UNL     1     -10.537   8.707  70.791  1.00  0.00    -0.210 C  
HETATM   13  O   UNL     1      -9.881   9.101  71.754  1.00  0.00    -0.299 OA 
HETATM   14  N   UNL     1     -11.627   9.367  70.241  1.00  0.00    -0.420 N  
HETATM   15  H   UNL     1     -12.112   8.898  69.476  1.00  0.00     0.000 HD 
BRANCH  14  16
HETATM   16  C   UNL     1     -12.135  10.634  70.641  1.00  0.00    -0.365 A  
HETATM   17  C   UNL     1     -13.061  10.786  71.670  1.00  0.00    -0.551 A  
HETATM   18  C   UNL     1     -13.496  12.050  72.057  1.00  0.00    -0.364 A  
HETATM   19  C   UNL     1     -13.033  13.196  71.405  1.00  0.00    -0.298 A  
HETATM   20  C   UNL     1     -12.156  13.099  70.305  1.00  0.00    -0.399 A  
HETATM   21 CL   UNL     1     -13.559  14.695  72.101  1.00  0.00    -0.463 Cl 
HETATM   22  C   UNL     1     -11.689  11.792  69.974  1.00  0.00    -0.386 A  
BRANCH  20  23
HETATM   23  C   UNL     1     -11.728  14.261  69.480  1.00  0.00    -0.316 A  
HETATM   24  C   UNL     1     -11.813  14.286  68.083  1.00  0.00    -0.374 A  
HETATM   25  C   UNL     1     -11.394  15.409  67.372  1.00  0.00    -0.243 A  
HETATM   26  C   UNL     1     -10.849  16.478  68.062  1.00  0.00    -0.337 A  
HETATM   27  C   UNL     1     -10.752  16.373  69.438  1.00  0.00    -0.324 A  
HETATM   28  N   UNL     1     -11.175  15.303  70.155  1.00  0.00    -0.270 NA 
ENDBRANCH  20  23
ENDBRANCH  14  16
ENDBRANCH   8  12
ENDBRANCH   2   5
TORSDOF 4
ENDMDL
MODEL       30
REMARK 921   NORMALIZED FREE ENERGY PREDICTED BY IDOCK:   -6.21 KCAL/MOL
REMARK 922        TOTAL FREE ENERGY PREDICTED BY IDOCK:   -8.28 KCAL/MOL
REMARK 923 INTER-LIGAND FREE ENERGY PREDICTED BY IDOCK:   -7.65 KCAL/MOL
REMARK 924 INTRA-LIGAND FREE ENERGY PREDICTED BY IDOCK:   -0.64 KCAL/MOL
REMARK 927      BINDING AFFINITY PREDICTED BY RF-SCORE:    0.00 PKD
ROOT
HETATM    1  C   UNL     1     -10.542   7.317  73.449  1.00  0.00    -0.389 C  
HETATM    2  S   UNL     1     -11.171   6.736  71.896  1.00  0.00    -0.273 S  
HETATM    3  O   UNL     1     -12.517   6.235  72.103  1.00  0.00    -0.291 OA 
HETATM    4  O   UNL     1     -10.156   5.906  71.273  1.00  0.00    -0.186 OA 
ENDROOT
BRANCH   2   5
HETATM    5  C   UNL     1     -11.298   8.221  70.927  1.00  0.00    -0.268 A  
HETATM    6  C   UNL     1     -10.708   8.280  69.659  1.00  0.00    -0.196 A  
HETATM    7  C   UNL     1     -10.754   9.471  68.915  1.00  0.00    -0.195 A  
HETATM    8  C   UNL     1     -11.406  10.600  69.429  1.00  0.00    -0.348 A  
HETATM    9 CL   UNL     1      -9.922   9.458  67.401  1.00  0.00    -0.236 Cl 
HETATM   10  C   UNL     1     -12.033  10.494  70.694  1.00  0.00    -0.455 A  
HETATM   11  C   UNL     1     -11.989   9.315  71.439  1.00  0.00    -0.424 A  
BRANCH   8  12
HETATM   12  C   UNL     1     -11.422  11.964  68.816  1.00  0.00    -0.290 C  
HETATM   13  O   UNL     1     -12.095  12.081  67.792  1.00  0.00    -0.537 OA 
HETATM   14  N   UNL     1     -10.678  12.978  69.404  1.00  0.00    -0.431 N  
HETATM   15  H   UNL     1     -10.124  12.727  70.222  1.00  0.00     0.000 HD 
BRANCH  14  16
HETATM   16  C   UNL     1     -10.612  14.332  68.975  1.00  0.00    -0.232 A  
HETATM   17  C   UNL     1     -11.745  15.112  68.760  1.00  0.00    -0.366 A  
HETATM   18  C   UNL     1     -11.631  16.447  68.384  1.00  0.00    -0.071 A  
HETATM   19  C   UNL     1     -10.377  17.030  68.188  1.00  0.00    -0.347 A  
HETATM   20  C   UNL     1      -9.197  16.268  68.313  1.00  0.00    -0.197 A  
HETATM   21 CL   UNL     1     -10.405  18.734  67.865  1.00  0.00    -0.440 Cl 
HETATM   22  C   UNL     1      -9.351  14.920  68.755  1.00  0.00    -0.203 A  
BRANCH  20  23
HETATM   23  C   UNL     1      -7.838  16.784  67.992  1.00  0.00    -0.176 A  
HETATM   24  C   UNL     1      -7.291  16.759  66.703  1.00  0.00    -0.297 A  
HETATM   25  C   UNL     1      -6.012  17.261  66.473  1.00  0.00    -0.244 A  
HETATM   26  C   UNL     1      -5.272  17.736  67.540  1.00  0.00    -0.139 A  
HETATM   27  C   UNL     1      -5.852  17.692  68.796  1.00  0.00    -0.174 A  
HETATM   28  N   UNL     1      -7.104  17.233  69.043  1.00  0.00    -0.242 NA 
ENDBRANCH  20  23
ENDBRANCH  14  16
ENDBRANCH   8  12
ENDBRANCH   2   5
TORSDOF 4
ENDMDL
MODEL       31
REMARK 921   NORMALIZED FREE ENERGY PREDICTED BY IDOCK:   -6.21 KCAL/MOL
REMARK 922        TOTAL FREE ENERGY PREDICTED BY IDOCK:   -8.28 KCAL/MOL
REMARK 923 INTER-LIGAND FREE ENERGY PREDICTED BY IDOCK:   -8.15 KCAL/MOL
REMARK 924 INTRA-LIGAND FREE ENERGY PREDICTED BY IDOCK:   -0.13 KCAL/MOL
REMARK 927      BINDING AFFINITY PREDICTED BY RF-SCORE:    0.00 PKD
ROOT
HETATM    1  C   UNL     1     -11.882  15.907  71.835  1.00  0.00    -0.506 C  
HETATM    2  S   UNL     1     -13.355  14.935  72.012  1.00  0.00    -0.410 S  
HETATM    3  O   UNL     1     -14.372  15.473  71.128  1.00  0.00    -0.516 OA 
HETATM    4  O   UNL     1     -13.618  14.758  73.429  1.00  0.00    -0.438 OA 
ENDROOT
BRANCH   2   5
HETATM    5  C   UNL     1     -12.875  13.348  71.369  1.00  0.00    -0.333 A  
HETATM    6  C   UNL     1     -13.360  12.177  71.963  1.00  0.00    -0.470 A  
HETATM    7  C   UNL     1     -12.936  10.922  71.495  1.00  0.00    -0.451 A  
HETATM    8  C   UNL     1     -12.040  10.834  70.423  1.00  0.00    -0.443 A  
HETATM    9 CL   UNL     1     -13.532   9.547  72.355  1.00  0.00    -0.511 Cl 
HETATM   10  C   UNL     1     -11.603  12.035  69.813  1.00  0.00    -0.348 A  
HETATM   11  C   UNL     1     -12.018  13.285  70.273  1.00  0.00    -0.372 A  
BRANCH   8  12
HETATM   12  C   UNL     1     -11.401   9.583  69.907  1.00  0.00    -0.126 C  
HETATM   13  O   UNL     1     -10.661   9.724  68.933  1.00  0.00    -0.216 OA 
HETATM   14  N   UNL     1     -11.695   8.373  70.519  1.00  0.00    -0.466 N  
HETATM   15  H   UNL     1     -12.367   8.396  71.286  1.00  0.00     0.000 HD 
BRANCH  14  16
HETATM   16  C   UNL     1     -11.150   7.103  70.182  1.00  0.00    -0.272 A  
HETATM   17  C   UNL     1     -11.124   6.615  68.879  1.00  0.00    -0.312 A  
HETATM   18  C   UNL     1     -10.540   5.385  68.590  1.00  0.00    -0.167 A  
HETATM   19  C   UNL     1      -9.988   4.599  69.605  1.00  0.00    -0.211 A  
HETATM   20  C   UNL     1     -10.057   5.006  70.954  1.00  0.00    -0.302 A  
HETATM   21 CL   UNL     1      -9.173   3.168  69.060  1.00  0.00    -0.210 Cl 
HETATM   22  C   UNL     1     -10.611   6.296  71.204  1.00  0.00    -0.289 A  
BRANCH  20  23
HETATM   23  C   UNL     1      -9.612   4.164  72.098  1.00  0.00    -0.147 A  
HETATM   24  C   UNL     1     -10.490   3.403  72.879  1.00  0.00    -0.240 A  
HETATM   25  C   UNL     1     -10.005   2.635  73.936  1.00  0.00    -0.154 A  
HETATM   26  C   UNL     1      -8.654   2.674  74.233  1.00  0.00    -0.068 A  
HETATM   27  C   UNL     1      -7.846   3.481  73.450  1.00  0.00    -0.070 A  
HETATM   28  N   UNL     1      -8.289   4.217  72.401  1.00  0.00    -0.102 NA 
ENDBRANCH  20  23
ENDBRANCH  14  16
ENDBRANCH   8  12
ENDBRANCH   2   5
TORSDOF 4
ENDMDL
MODEL       32
REMARK 921   NORMALIZED FREE ENERGY PREDICTED BY IDOCK:   -6.19 KCAL/MOL
REMARK 922        TOTAL FREE ENERGY PREDICTED BY IDOCK:   -8.26 KCAL/MOL
REMARK 923 INTER-LIGAND FREE ENERGY PREDICTED BY IDOCK:   -7.60 KCAL/MOL
REMARK 924 INTRA-LIGAND FREE ENERGY PREDICTED BY IDOCK:   -0.65 KCAL/MOL
REMARK 927      BINDING AFFINITY PREDICTED BY RF-SCORE:    0.00 PKD
ROOT
HETATM    1  C   UNL     1      -7.311   3.155  68.138  1.00  0.00    -0.050 C  
HETATM    2  S   UNL     1      -9.080   3.255  68.244  1.00  0.00    -0.176 S  
HETATM    3  O   UNL     1      -9.530   2.362  69.295  1.00  0.00    -0.134 OA 
HETATM    4  O   UNL     1      -9.623   3.160  66.901  1.00  0.00    -0.135 OA 
ENDROOT
BRANCH   2   5
HETATM    5  C   UNL     1      -9.360   4.919  68.803  1.00  0.00    -0.135 A  
HETATM    6  C   UNL     1     -10.447   5.202  69.638  1.00  0.00    -0.262 A  
HETATM    7  C   UNL     1     -10.706   6.526  70.033  1.00  0.00    -0.249 A  
HETATM    8  C   UNL     1      -9.870   7.566  69.608  1.00  0.00    -0.180 A  
HETATM    9 CL   UNL     1     -12.121   6.771  70.994  1.00  0.00    -0.429 Cl 
HETATM   10  C   UNL     1      -8.752   7.242  68.802  1.00  0.00    -0.125 A  
HETATM   11  C   UNL     1      -8.490   5.930  68.405  1.00  0.00    -0.111 A  
BRANCH   8  12
HETATM   12  C   UNL     1     -10.095   9.028  69.836  1.00  0.00    -0.201 C  
HETATM   13  O   UNL     1      -9.216   9.611  70.470  1.00  0.00    -0.249 OA 
HETATM   14  N   UNL     1     -11.260   9.614  69.361  1.00  0.00    -0.420 N  
HETATM   15  H   UNL     1     -11.928   8.999  68.897  1.00  0.00     0.000 HD 
BRANCH  14  16
HETATM   16  C   UNL     1     -11.612  10.988  69.457  1.00  0.00    -0.313 A  
HETATM   17  C   UNL     1     -12.200  11.540  70.592  1.00  0.00    -0.473 A  
HETATM   18  C   UNL     1     -12.487  12.900  70.658  1.00  0.00    -0.333 A  
HETATM   19  C   UNL     1     -12.215  13.741  69.575  1.00  0.00    -0.293 A  
HETATM   20  C   UNL     1     -11.693  13.225  68.371  1.00  0.00    -0.389 A  
HETATM   21 CL   UNL     1     -12.495  15.427  69.872  1.00  0.00    -0.327 Cl 
HETATM   22  C   UNL     1     -11.360  11.838  68.362  1.00  0.00    -0.328 A  
BRANCH  20  23
HETATM   23  C   UNL     1     -11.503  14.033  67.136  1.00  0.00    -0.352 A  
HETATM   24  C   UNL     1     -10.658  15.147  67.068  1.00  0.00    -0.300 A  
HETATM   25  C   UNL     1     -10.525  15.858  65.877  1.00  0.00    -0.373 A  
HETATM   26  C   UNL     1     -11.276  15.478  64.779  1.00  0.00    -0.399 A  
HETATM   27  C   UNL     1     -12.126  14.396  64.923  1.00  0.00    -0.436 A  
HETATM   28  N   UNL     1     -12.254  13.672  66.063  1.00  0.00    -0.434 NA 
ENDBRANCH  20  23
ENDBRANCH  14  16
ENDBRANCH   8  12
ENDBRANCH   2   5
TORSDOF 4
ENDMDL
MODEL       33
REMARK 921   NORMALIZED FREE ENERGY PREDICTED BY IDOCK:   -6.13 KCAL/MOL
REMARK 922        TOTAL FREE ENERGY PREDICTED BY IDOCK:   -8.19 KCAL/MOL
REMARK 923 INTER-LIGAND FREE ENERGY PREDICTED BY IDOCK:   -7.82 KCAL/MOL
REMARK 924 INTRA-LIGAND FREE ENERGY PREDICTED BY IDOCK:   -0.37 KCAL/MOL
REMARK 927      BINDING AFFINITY PREDICTED BY RF-SCORE:    0.00 PKD
ROOT
HETATM    1  C   UNL     1      -8.708  15.827  66.656  1.00  0.00    -0.288 C  
HETATM    2  S   UNL     1     -10.477  15.955  66.602  1.00  0.00    -0.299 S  
HETATM    3  O   UNL     1     -10.912  15.753  65.233  1.00  0.00    -0.364 OA 
HETATM    4  O   UNL     1     -10.872  17.139  67.343  1.00  0.00    -0.284 OA 
ENDROOT
BRANCH   2   5
HETATM    5  C   UNL     1     -11.016  14.547  67.545  1.00  0.00    -0.293 A  
HETATM    6  C   UNL     1     -11.538  14.725  68.831  1.00  0.00    -0.340 A  
HETATM    7  C   UNL     1     -11.909  13.611  69.602  1.00  0.00    -0.335 A  
HETATM    8  C   UNL     1     -11.775  12.317  69.083  1.00  0.00    -0.377 A  
HETATM    9 CL   UNL     1     -12.462  13.942  71.205  1.00  0.00    -0.437 Cl 
HETATM   10  C   UNL     1     -11.287  12.172  67.762  1.00  0.00    -0.371 A  
HETATM   11  C   UNL     1     -10.915  13.274  66.991  1.00  0.00    -0.291 A  
BRANCH   8  12
HETATM   12  C   UNL     1     -12.001  11.039  69.828  1.00  0.00    -0.356 C  
HETATM   13  O   UNL     1     -13.161  10.824  70.179  1.00  0.00    -0.147 OA 
HETATM   14  N   UNL     1     -10.918  10.214  70.097  1.00  0.00    -0.295 N  
HETATM   15  H   UNL     1     -10.002  10.542  69.793  1.00  0.00     0.000 HD 
BRANCH  14  16
HETATM   16  C   UNL     1     -10.962   8.955  70.757  1.00  0.00    -0.253 A  
HETATM   17  C   UNL     1     -11.269   8.820  72.108  1.00  0.00    -0.408 A  
HETATM   18  C   UNL     1     -11.343   7.563  72.701  1.00  0.00    -0.395 A  
HETATM   19  C   UNL     1     -11.086   6.407  71.960  1.00  0.00    -0.265 A  
HETATM   20  C   UNL     1     -10.692   6.486  70.608  1.00  0.00    -0.297 A  
HETATM   21 CL   UNL     1     -11.363   4.919  72.808  1.00  0.00    -0.264 Cl 
HETATM   22  C   UNL     1     -10.682   7.786  70.021  1.00  0.00    -0.245 A  
BRANCH  20  23
HETATM   23  C   UNL     1     -10.274   5.311  69.795  1.00  0.00    -0.294 A  
HETATM   24  C   UNL     1      -9.738   4.144  70.351  1.00  0.00    -0.271 A  
HETATM   25  C   UNL     1      -9.369   3.080  69.530  1.00  0.00    -0.213 A  
HETATM   26  C   UNL     1      -9.493   3.212  68.159  1.00  0.00    -0.217 A  
HETATM   27  C   UNL     1      -9.989   4.408  67.670  1.00  0.00    -0.053 A  
HETATM   28  N   UNL     1     -10.378   5.449  68.448  1.00  0.00    -0.169 NA 
ENDBRANCH  20  23
ENDBRANCH  14  16
ENDBRANCH   8  12
ENDBRANCH   2   5
TORSDOF 4
ENDMDL
MODEL       34
REMARK 921   NORMALIZED FREE ENERGY PREDICTED BY IDOCK:   -6.12 KCAL/MOL
REMARK 922        TOTAL FREE ENERGY PREDICTED BY IDOCK:   -8.17 KCAL/MOL
REMARK 923 INTER-LIGAND FREE ENERGY PREDICTED BY IDOCK:   -7.45 KCAL/MOL
REMARK 924 INTRA-LIGAND FREE ENERGY PREDICTED BY IDOCK:   -0.72 KCAL/MOL
REMARK 927      BINDING AFFINITY PREDICTED BY RF-SCORE:    0.00 PKD
ROOT
HETATM    1  C   UNL     1     -10.744  15.005  65.022  1.00  0.00    -0.427 C  
HETATM    2  S   UNL     1     -11.909  13.677  64.857  1.00  0.00    -0.398 S  
HETATM    3  O   UNL     1     -11.684  13.022  63.581  1.00  0.00    -0.463 OA 
HETATM    4  O   UNL     1     -13.224  14.175  65.216  1.00  0.00    -0.760 OA 
ENDROOT
BRANCH   2   5
HETATM    5  C   UNL     1     -11.415  12.542  66.132  1.00  0.00    -0.377 A  
HETATM    6  C   UNL     1     -10.801  11.331  65.792  1.00  0.00    -0.257 A  
HETATM    7  C   UNL     1     -10.464  10.405  66.794  1.00  0.00    -0.225 A  
HETATM    8  C   UNL     1     -10.723  10.695  68.139  1.00  0.00    -0.267 A  
HETATM    9 CL   UNL     1      -9.789   8.909  66.254  1.00  0.00    -0.353 Cl 
HETATM   10  C   UNL     1     -11.302  11.948  68.456  1.00  0.00    -0.329 A  
HETATM   11  C   UNL     1     -11.641  12.871  67.466  1.00  0.00    -0.409 A  
BRANCH   8  12
HETATM   12  C   UNL     1     -10.543   9.761  69.293  1.00  0.00    -0.221 C  
HETATM   13  O   UNL     1      -9.726  10.114  70.144  1.00  0.00    -0.190 OA 
HETATM   14  N   UNL     1     -11.263   8.575  69.321  1.00  0.00    -0.413 N  
HETATM   15  H   UNL     1     -11.867   8.384  68.522  1.00  0.00     0.000 HD 
BRANCH  14  16
HETATM   16  C   UNL     1     -11.240   7.598  70.354  1.00  0.00    -0.244 A  
HETATM   17  C   UNL     1     -12.322   7.368  71.199  1.00  0.00    -0.349 A  
HETATM   18  C   UNL     1     -12.270   6.371  72.169  1.00  0.00    -0.278 A  
HETATM   19  C   UNL     1     -11.121   5.593  72.335  1.00  0.00    -0.271 A  
HETATM   20  C   UNL     1      -9.967   5.834  71.562  1.00  0.00    -0.226 A  
HETATM   21 CL   UNL     1     -11.272   4.302  73.483  1.00  0.00    -0.374 Cl 
HETATM   22  C   UNL     1     -10.077   6.825  70.541  1.00  0.00    -0.201 A  
BRANCH  20  23
HETATM   23  C   UNL     1      -8.667   5.139  71.771  1.00  0.00    -0.130 A  
HETATM   24  C   UNL     1      -8.220   4.086  70.966  1.00  0.00    -0.078 A  
HETATM   25  C   UNL     1      -6.990   3.481  71.218  1.00  0.00    -0.032 A  
HETATM   26  C   UNL     1      -6.242   3.902  72.303  1.00  0.00    -0.013 A  
HETATM   27  C   UNL     1      -6.760   4.918  73.087  1.00  0.00    -0.067 A  
HETATM   28  N   UNL     1      -7.942   5.540  72.848  1.00  0.00    -0.101 NA 
ENDBRANCH  20  23
ENDBRANCH  14  16
ENDBRANCH   8  12
ENDBRANCH   2   5
TORSDOF 4
ENDMDL
MODEL       35
REMARK 921   NORMALIZED FREE ENERGY PREDICTED BY IDOCK:   -6.07 KCAL/MOL
REMARK 922        TOTAL FREE ENERGY PREDICTED BY IDOCK:   -8.11 KCAL/MOL
REMARK 923 INTER-LIGAND FREE ENERGY PREDICTED BY IDOCK:   -8.02 KCAL/MOL
REMARK 924 INTRA-LIGAND FREE ENERGY PREDICTED BY IDOCK:   -0.09 KCAL/MOL
REMARK 927      BINDING AFFINITY PREDICTED BY RF-SCORE:    0.00 PKD
ROOT
HETATM    1  C   UNL     1     -12.387  15.136  74.270  1.00  0.00    -0.533 C  
HETATM    2  S   UNL     1     -12.846  15.693  72.649  1.00  0.00    -0.490 S  
HETATM    3  O   UNL     1     -11.894  16.702  72.222  1.00  0.00    -0.466 OA 
HETATM    4  O   UNL     1     -14.272  15.966  72.647  1.00  0.00    -0.525 OA 
ENDROOT
BRANCH   2   5
HETATM    5  C   UNL     1     -12.589  14.255  71.637  1.00  0.00    -0.351 A  
HETATM    6  C   UNL     1     -13.039  13.003  72.073  1.00  0.00    -0.481 A  
HETATM    7  C   UNL     1     -12.785  11.855  71.304  1.00  0.00    -0.298 A  
HETATM    8  C   UNL     1     -12.096  11.958  70.089  1.00  0.00    -0.382 A  
HETATM    9 CL   UNL     1     -13.311  10.354  71.978  1.00  0.00    -0.514 Cl 
HETATM   10  C   UNL     1     -11.694  13.243  69.652  1.00  0.00    -0.369 A  
HETATM   11  C   UNL     1     -11.942  14.387  70.412  1.00  0.00    -0.395 A  
BRANCH   8  12
HETATM   12  C   UNL     1     -11.640  10.817  69.235  1.00  0.00    -0.305 C  
HETATM   13  O   UNL     1     -11.926  10.898  68.040  1.00  0.00    -0.586 OA 
HETATM   14  N   UNL     1     -10.969   9.757  69.826  1.00  0.00    -0.247 N  
HETATM   15  H   UNL     1     -10.845   9.797  70.837  1.00  0.00     0.000 HD 
BRANCH  14  16
HETATM   16  C   UNL     1     -10.437   8.619  69.160  1.00  0.00    -0.211 A  
HETATM   17  C   UNL     1     -10.335   8.534  67.773  1.00  0.00    -0.298 A  
HETATM   18  C   UNL     1      -9.767   7.418  67.167  1.00  0.00    -0.223 A  
HETATM   19  C   UNL     1      -9.306   6.344  67.933  1.00  0.00    -0.114 A  
HETATM   20  C   UNL     1      -9.455   6.339  69.335  1.00  0.00    -0.148 A  
HETATM   21 CL   UNL     1      -8.495   5.101  67.035  1.00  0.00    -0.107 Cl 
HETATM   22  C   UNL     1      -9.990   7.523  69.925  1.00  0.00    -0.189 A  
BRANCH  20  23
HETATM   23  C   UNL     1      -9.112   5.179  70.202  1.00  0.00    -0.128 A  
HETATM   24  C   UNL     1      -8.146   5.234  71.213  1.00  0.00    -0.114 A  
HETATM   25  C   UNL     1      -7.876   4.108  71.990  1.00  0.00    -0.084 A  
HETATM   26  C   UNL     1      -8.539   2.926  71.715  1.00  0.00    -0.101 A  
HETATM   27  C   UNL     1      -9.450   2.925  70.674  1.00  0.00    -0.147 A  
HETATM   28  N   UNL     1      -9.749   4.012  69.920  1.00  0.00    -0.210 NA 
ENDBRANCH  20  23
ENDBRANCH  14  16
ENDBRANCH   8  12
ENDBRANCH   2   5
TORSDOF 4
ENDMDL
MODEL       36
REMARK 921   NORMALIZED FREE ENERGY PREDICTED BY IDOCK:   -6.05 KCAL/MOL
REMARK 922        TOTAL FREE ENERGY PREDICTED BY IDOCK:   -8.09 KCAL/MOL
REMARK 923 INTER-LIGAND FREE ENERGY PREDICTED BY IDOCK:   -7.39 KCAL/MOL
REMARK 924 INTRA-LIGAND FREE ENERGY PREDICTED BY IDOCK:   -0.69 KCAL/MOL
REMARK 927      BINDING AFFINITY PREDICTED BY RF-SCORE:    0.00 PKD
ROOT
HETATM    1  C   UNL     1     -12.210  14.763  74.067  1.00  0.00    -0.218 C  
HETATM    2  S   UNL     1     -12.680  15.713  72.644  1.00  0.00    -0.485 S  
HETATM    3  O   UNL     1     -11.744  16.811  72.493  1.00  0.00    -0.421 OA 
HETATM    4  O   UNL     1     -14.110  15.956  72.711  1.00  0.00    -0.567 OA 
ENDROOT
BRANCH   2   5
HETATM    5  C   UNL     1     -12.406  14.588  71.296  1.00  0.00    -0.351 A  
HETATM    6  C   UNL     1     -12.455  13.207  71.516  1.00  0.00    -0.199 A  
HETATM    7  C   UNL     1     -12.180  12.314  70.466  1.00  0.00    -0.300 A  
HETATM    8  C   UNL     1     -11.871  12.801  69.189  1.00  0.00    -0.352 A  
HETATM    9 CL   UNL     1     -12.187  10.635  70.870  1.00  0.00    -0.459 Cl 
HETATM   10  C   UNL     1     -11.874  14.202  68.986  1.00  0.00    -0.384 A  
HETATM   11  C   UNL     1     -12.145  15.094  70.025  1.00  0.00    -0.384 A  
BRANCH   8  12
HETATM   12  C   UNL     1     -11.429  11.983  68.017  1.00  0.00    -0.328 C  
HETATM   13  O   UNL     1     -12.153  12.041  67.023  1.00  0.00    -0.603 OA 
HETATM   14  N   UNL     1     -10.282  11.211  68.127  1.00  0.00    -0.175 N  
HETATM   15  H   UNL     1      -9.806  11.218  69.029  1.00  0.00     0.000 HD 
BRANCH  14  16
HETATM   16  C   UNL     1      -9.703  10.410  67.104  1.00  0.00    -0.172 A  
HETATM   17  C   UNL     1      -9.207  10.943  65.917  1.00  0.00    -0.214 A  
HETATM   18  C   UNL     1      -8.610  10.125  64.963  1.00  0.00    -0.178 A  
HETATM   19  C   UNL     1      -8.516   8.745  65.161  1.00  0.00    -0.174 A  
HETATM   20  C   UNL     1      -9.072   8.139  66.307  1.00  0.00    -0.231 A  
HETATM   21 CL   UNL     1      -7.617   7.891  63.948  1.00  0.00    -0.114 Cl 
HETATM   22  C   UNL     1      -9.625   9.015  67.288  1.00  0.00    -0.206 A  
BRANCH  20  23
HETATM   23  C   UNL     1      -9.129   6.667  66.523  1.00  0.00    -0.149 A  
HETATM   24  C   UNL     1      -8.030   5.909  66.943  1.00  0.00    -0.102 A  
HETATM   25  C   UNL     1      -8.154   4.533  67.128  1.00  0.00    -0.102 A  
HETATM   26  C   UNL     1      -9.362   3.922  66.843  1.00  0.00    -0.208 A  
HETATM   27  C   UNL     1     -10.396   4.721  66.389  1.00  0.00    -0.273 A  
HETATM   28  N   UNL     1     -10.309   6.064  66.225  1.00  0.00    -0.044 NA 
ENDBRANCH  20  23
ENDBRANCH  14  16
ENDBRANCH   8  12
ENDBRANCH   2   5
TORSDOF 4
ENDMDL
MODEL       37
REMARK 921   NORMALIZED FREE ENERGY PREDICTED BY IDOCK:   -6.05 KCAL/MOL
REMARK 922        TOTAL FREE ENERGY PREDICTED BY IDOCK:   -8.08 KCAL/MOL
REMARK 923 INTER-LIGAND FREE ENERGY PREDICTED BY IDOCK:   -7.68 KCAL/MOL
REMARK 924 INTRA-LIGAND FREE ENERGY PREDICTED BY IDOCK:   -0.40 KCAL/MOL
REMARK 927      BINDING AFFINITY PREDICTED BY RF-SCORE:    0.00 PKD
ROOT
HETATM    1  C   UNL     1     -12.373  15.053  74.117  1.00  0.00    -0.482 C  
HETATM    2  S   UNL     1     -12.879  15.497  72.476  1.00  0.00    -0.465 S  
HETATM    3  O   UNL     1     -11.942  16.474  71.953  1.00  0.00    -0.409 OA 
HETATM    4  O   UNL     1     -14.305  15.769  72.495  1.00  0.00    -0.528 OA 
ENDROOT
BRANCH   2   5
HETATM    5  C   UNL     1     -12.647  13.992  71.558  1.00  0.00    -0.349 A  
HETATM    6  C   UNL     1     -13.107  12.777  72.080  1.00  0.00    -0.474 A  
HETATM    7  C   UNL     1     -12.873  11.578  71.386  1.00  0.00    -0.384 A  
HETATM    8  C   UNL     1     -12.194  11.593  70.160  1.00  0.00    -0.367 A  
HETATM    9 CL   UNL     1     -13.409  10.131  72.161  1.00  0.00    -0.510 Cl 
HETATM   10  C   UNL     1     -11.782  12.842  69.636  1.00  0.00    -0.367 A  
HETATM   11  C   UNL     1     -12.010  14.037  70.321  1.00  0.00    -0.409 A  
BRANCH   8  12
HETATM   12  C   UNL     1     -11.758  10.394  69.379  1.00  0.00    -0.160 C  
HETATM   13  O   UNL     1     -11.890  10.476  68.158  1.00  0.00    -0.417 OA 
HETATM   14  N   UNL     1     -11.275   9.284  70.058  1.00  0.00    -0.364 N  
HETATM   15  H   UNL     1     -11.270   9.334  71.077  1.00  0.00     0.000 HD 
BRANCH  14  16
HETATM   16  C   UNL     1     -10.787   8.084  69.473  1.00  0.00    -0.129 A  
HETATM   17  C   UNL     1     -11.235   6.821  69.852  1.00  0.00    -0.379 A  
HETATM   18  C   UNL     1     -10.760   5.676  69.219  1.00  0.00    -0.350 A  
HETATM   19  C   UNL     1      -9.803   5.764  68.205  1.00  0.00    -0.139 A  
HETATM   20  C   UNL     1      -9.254   7.009  67.834  1.00  0.00    -0.125 A  
HETATM   21 CL   UNL     1      -9.427   4.262  67.423  1.00  0.00    -0.193 Cl 
HETATM   22  C   UNL     1      -9.806   8.164  68.464  1.00  0.00    -0.190 A  
BRANCH  20  23
HETATM   23  C   UNL     1      -8.139   7.167  66.860  1.00  0.00    -0.116 A  
HETATM   24  C   UNL     1      -6.789   7.143  67.227  1.00  0.00    -0.073 A  
HETATM   25  C   UNL     1      -5.795   7.296  66.262  1.00  0.00    -0.036 A  
HETATM   26  C   UNL     1      -6.162   7.520  64.947  1.00  0.00    -0.038 A  
HETATM   27  C   UNL     1      -7.514   7.577  64.657  1.00  0.00    -0.089 A  
HETATM   28  N   UNL     1      -8.500   7.406  65.572  1.00  0.00    -0.140 NA 
ENDBRANCH  20  23
ENDBRANCH  14  16
ENDBRANCH   8  12
ENDBRANCH   2   5
TORSDOF 4
ENDMDL
MODEL       38
REMARK 921   NORMALIZED FREE ENERGY PREDICTED BY IDOCK:   -6.02 KCAL/MOL
REMARK 922        TOTAL FREE ENERGY PREDICTED BY IDOCK:   -8.05 KCAL/MOL
REMARK 923 INTER-LIGAND FREE ENERGY PREDICTED BY IDOCK:   -7.23 KCAL/MOL
REMARK 924 INTRA-LIGAND FREE ENERGY PREDICTED BY IDOCK:   -0.82 KCAL/MOL
REMARK 927      BINDING AFFINITY PREDICTED BY RF-SCORE:    0.00 PKD
ROOT
HETATM    1  C   UNL     1     -12.252  15.368  72.837  1.00  0.00    -0.421 C  
HETATM    2  S   UNL     1     -13.542  14.616  71.878  1.00  0.00    -0.437 S  
HETATM    3  O   UNL     1     -14.303  15.666  71.227  1.00  0.00    -0.521 OA 
HETATM    4  O   UNL     1     -14.201  13.618  72.701  1.00  0.00    -0.735 OA 
ENDROOT
BRANCH   2   5
HETATM    5  C   UNL     1     -12.650  13.742  70.612  1.00  0.00    -0.315 A  
HETATM    6  C   UNL     1     -12.478  12.357  70.709  1.00  0.00    -0.356 A  
HETATM    7  C   UNL     1     -11.723  11.671  69.742  1.00  0.00    -0.352 A  
HETATM    8  C   UNL     1     -11.154  12.366  68.667  1.00  0.00    -0.297 A  
HETATM    9 CL   UNL     1     -11.505   9.977  70.005  1.00  0.00    -0.306 Cl 
HETATM   10  C   UNL     1     -11.385  13.760  68.572  1.00  0.00    -0.318 A  
HETATM   11  C   UNL     1     -12.132  14.447  69.530  1.00  0.00    -0.366 A  
BRANCH   8  12
HETATM   12  C   UNL     1     -10.222  11.798  67.644  1.00  0.00    -0.199 C  
HETATM   13  O   UNL     1      -9.068  12.223  67.678  1.00  0.00    -0.170 OA 
HETATM   14  N   UNL     1     -10.708  10.877  66.726  1.00  0.00    -0.264 N  
HETATM   15  H   UNL     1     -11.701  10.653  66.780  1.00  0.00     0.000 HD 
BRANCH  14  16
HETATM   16  C   UNL     1      -9.955  10.215  65.717  1.00  0.00    -0.271 A  
HETATM   17  C   UNL     1      -9.836  10.704  64.419  1.00  0.00    -0.395 A  
HETATM   18  C   UNL     1      -9.052  10.045  63.478  1.00  0.00    -0.303 A  
HETATM   19  C   UNL     1      -8.385   8.861  63.804  1.00  0.00    -0.161 A  
HETATM   20  C   UNL     1      -8.532   8.276  65.079  1.00  0.00    -0.141 A  
HETATM   21 CL   UNL     1      -7.337   8.247  62.566  1.00  0.00    -0.096 Cl 
HETATM   22  C   UNL     1      -9.297   9.010  66.034  1.00  0.00    -0.305 A  
BRANCH  20  23
HETATM   23  C   UNL     1      -7.963   6.953  65.456  1.00  0.00    -0.126 A  
HETATM   24  C   UNL     1      -8.713   5.772  65.479  1.00  0.00    -0.141 A  
HETATM   25  C   UNL     1      -8.115   4.566  65.840  1.00  0.00    -0.102 A  
HETATM   26  C   UNL     1      -6.786   4.561  66.222  1.00  0.00    -0.050 A  
HETATM   27  C   UNL     1      -6.111   5.769  66.220  1.00  0.00    -0.029 A  
HETATM   28  N   UNL     1      -6.662   6.952  65.849  1.00  0.00    -0.051 NA 
ENDBRANCH  20  23
ENDBRANCH  14  16
ENDBRANCH   8  12
ENDBRANCH   2   5
TORSDOF 4
ENDMDL
MODEL       39
REMARK 921   NORMALIZED FREE ENERGY PREDICTED BY IDOCK:   -6.01 KCAL/MOL
REMARK 922        TOTAL FREE ENERGY PREDICTED BY IDOCK:   -8.04 KCAL/MOL
REMARK 923 INTER-LIGAND FREE ENERGY PREDICTED BY IDOCK:   -7.32 KCAL/MOL
REMARK 924 INTRA-LIGAND FREE ENERGY PREDICTED BY IDOCK:   -0.71 KCAL/MOL
REMARK 927      BINDING AFFINITY PREDICTED BY RF-SCORE:    0.00 PKD
ROOT
HETATM    1  C   UNL     1      -9.782  20.828  67.301  1.00  0.00    -0.347 C  
HETATM    2  S   UNL     1      -8.350  19.813  67.045  1.00  0.00    -0.324 S  
HETATM    3  O   UNL     1      -7.341  20.186  68.018  1.00  0.00    -0.293 OA 
HETATM    4  O   UNL     1      -8.047  19.801  65.625  1.00  0.00    -0.384 OA 
ENDROOT
BRANCH   2   5
HETATM    5  C   UNL     1      -8.924  18.185  67.470  1.00  0.00    -0.257 A  
HETATM    6  C   UNL     1      -8.200  17.403  68.376  1.00  0.00    -0.262 A  
HETATM    7  C   UNL     1      -8.617  16.093  68.669  1.00  0.00    -0.210 A  
HETATM    8  C   UNL     1      -9.769  15.570  68.069  1.00  0.00    -0.207 A  
HETATM    9 CL   UNL     1      -7.602  15.189  69.736  1.00  0.00    -0.169 Cl 
HETATM   10  C   UNL     1     -10.506  16.401  67.192  1.00  0.00    -0.297 A  
HETATM   11  C   UNL     1     -10.096  17.702  66.896  1.00  0.00    -0.331 A  
BRANCH   8  12
HETATM   12  C   UNL     1     -10.258  14.160  68.179  1.00  0.00    -0.241 C  
HETATM   13  O   UNL     1     -11.396  14.023  68.628  1.00  0.00    -0.244 OA 
HETATM   14  N   UNL     1      -9.415  13.122  67.809  1.00  0.00    -0.201 N  
HETATM   15  H   UNL     1      -8.477  13.378  67.503  1.00  0.00     0.000 HD 
BRANCH  14  16
HETATM   16  C   UNL     1      -9.731  11.735  67.815  1.00  0.00    -0.183 A  
HETATM   17  C   UNL     1      -9.962  11.008  66.651  1.00  0.00    -0.249 A  
HETATM   18  C   UNL     1     -10.226   9.642  66.703  1.00  0.00    -0.302 A  
HETATM   19  C   UNL     1     -10.290   8.973  67.928  1.00  0.00    -0.235 A  
HETATM   20  C   UNL     1     -10.144   9.672  69.144  1.00  0.00    -0.196 A  
HETATM   21 CL   UNL     1     -10.481   7.253  67.811  1.00  0.00    -0.273 Cl 
HETATM   22  C   UNL     1      -9.819  11.058  69.048  1.00  0.00    -0.165 A  
BRANCH  20  23
HETATM   23  C   UNL     1     -10.331   9.054  70.485  1.00  0.00    -0.218 A  
HETATM   24  C   UNL     1      -9.272   8.760  71.351  1.00  0.00    -0.325 A  
HETATM   25  C   UNL     1      -9.520   8.182  72.594  1.00  0.00    -0.346 A  
HETATM   26  C   UNL     1     -10.820   7.858  72.939  1.00  0.00    -0.451 A  
HETATM   27  C   UNL     1     -11.817   8.134  72.021  1.00  0.00    -0.338 A  
HETATM   28  N   UNL     1     -11.606   8.718  70.815  1.00  0.00    -0.275 NA 
ENDBRANCH  20  23
ENDBRANCH  14  16
ENDBRANCH   8  12
ENDBRANCH   2   5
TORSDOF 4
ENDMDL
MODEL       40
REMARK 921   NORMALIZED FREE ENERGY PREDICTED BY IDOCK:   -6.01 KCAL/MOL
REMARK 922        TOTAL FREE ENERGY PREDICTED BY IDOCK:   -8.04 KCAL/MOL
REMARK 923 INTER-LIGAND FREE ENERGY PREDICTED BY IDOCK:   -7.25 KCAL/MOL
REMARK 924 INTRA-LIGAND FREE ENERGY PREDICTED BY IDOCK:   -0.78 KCAL/MOL
REMARK 927      BINDING AFFINITY PREDICTED BY RF-SCORE:    0.00 PKD
ROOT
HETATM    1  C   UNL     1      -8.284  19.470  66.372  1.00  0.00    -0.333 C  
HETATM    2  S   UNL     1      -9.950  19.157  66.895  1.00  0.00    -0.375 S  
HETATM    3  O   UNL     1     -10.849  19.536  65.822  1.00  0.00    -0.453 OA 
HETATM    4  O   UNL     1     -10.117  19.698  68.233  1.00  0.00    -0.405 OA 
ENDROOT
BRANCH   2   5
HETATM    5  C   UNL     1     -10.005  17.386  67.038  1.00  0.00    -0.295 A  
HETATM    6  C   UNL     1     -10.845  16.787  67.984  1.00  0.00    -0.341 A  
HETATM    7  C   UNL     1     -10.848  15.391  68.141  1.00  0.00    -0.285 A  
HETATM    8  C   UNL     1     -10.024  14.589  67.340  1.00  0.00    -0.227 A  
HETATM    9 CL   UNL     1     -11.860  14.766  69.394  1.00  0.00    -0.340 Cl 
HETATM   10  C   UNL     1      -9.220  15.221  66.361  1.00  0.00    -0.342 A  
HETATM   11  C   UNL     1      -9.211  16.607  66.201  1.00  0.00    -0.312 A  
BRANCH   8  12
HETATM   12  C   UNL     1      -9.822  13.114  67.483  1.00  0.00    -0.216 C  
HETATM   13  O   UNL     1     -10.483  12.409  66.720  1.00  0.00    -0.220 OA 
HETATM   14  N   UNL     1      -8.952  12.641  68.455  1.00  0.00    -0.365 N  
HETATM   15  H   UNL     1      -8.509  13.338  69.053  1.00  0.00     0.000 HD 
BRANCH  14  16
HETATM   16  C   UNL     1      -8.618  11.281  68.698  1.00  0.00    -0.139 A  
HETATM   17  C   UNL     1      -7.429  10.705  68.258  1.00  0.00    -0.091 A  
HETATM   18  C   UNL     1      -7.125   9.380  68.558  1.00  0.00    -0.071 A  
HETATM   19  C   UNL     1      -8.016   8.588  69.286  1.00  0.00    -0.111 A  
HETATM   20  C   UNL     1      -9.270   9.094  69.690  1.00  0.00    -0.172 A  
HETATM   21 CL   UNL     1      -7.424   7.011  69.699  1.00  0.00    -0.096 Cl 
HETATM   22  C   UNL     1      -9.522  10.471  69.414  1.00  0.00    -0.158 A  
BRANCH  20  23
HETATM   23  C   UNL     1     -10.322   8.274  70.350  1.00  0.00    -0.205 A  
HETATM   24  C   UNL     1     -10.731   8.469  71.674  1.00  0.00    -0.351 A  
HETATM   25  C   UNL     1     -11.725   7.665  72.229  1.00  0.00    -0.371 A  
HETATM   26  C   UNL     1     -12.264   6.641  71.471  1.00  0.00    -0.391 A  
HETATM   27  C   UNL     1     -11.785   6.472  70.184  1.00  0.00    -0.353 A  
HETATM   28  N   UNL     1     -10.838   7.256  69.612  1.00  0.00    -0.238 NA 
ENDBRANCH  20  23
ENDBRANCH  14  16
ENDBRANCH   8  12
ENDBRANCH   2   5
TORSDOF 4
ENDMDL
MODEL       41
REMARK 921   NORMALIZED FREE ENERGY PREDICTED BY IDOCK:   -5.99 KCAL/MOL
REMARK 922        TOTAL FREE ENERGY PREDICTED BY IDOCK:   -8.01 KCAL/MOL
REMARK 923 INTER-LIGAND FREE ENERGY PREDICTED BY IDOCK:   -7.64 KCAL/MOL
REMARK 924 INTRA-LIGAND FREE ENERGY PREDICTED BY IDOCK:   -0.37 KCAL/MOL
REMARK 927      BINDING AFFINITY PREDICTED BY RF-SCORE:    0.00 PKD
ROOT
HETATM    1  C   UNL     1     -12.242  14.845  74.049  1.00  0.00    -0.395 C  
HETATM    2  S   UNL     1     -12.791  15.678  72.582  1.00  0.00    -0.490 S  
HETATM    3  O   UNL     1     -11.892  16.786  72.317  1.00  0.00    -0.361 OA 
HETATM    4  O   UNL     1     -14.224  15.891  72.687  1.00  0.00    -0.525 OA 
ENDROOT
BRANCH   2   5
HETATM    5  C   UNL     1     -12.536  14.468  71.306  1.00  0.00    -0.346 A  
HETATM    6  C   UNL     1     -12.598  13.104  71.613  1.00  0.00    -0.229 A  
HETATM    7  C   UNL     1     -12.337  12.144  70.620  1.00  0.00    -0.295 A  
HETATM    8  C   UNL     1     -12.032  12.546  69.314  1.00  0.00    -0.304 A  
HETATM    9 CL   UNL     1     -12.358  10.494  71.130  1.00  0.00    -0.478 Cl 
HETATM   10  C   UNL     1     -12.023  13.932  69.023  1.00  0.00    -0.402 A  
HETATM   11  C   UNL     1     -12.279  14.890  70.004  1.00  0.00    -0.381 A  
BRANCH   8  12
HETATM   12  C   UNL     1     -11.605  11.651  68.193  1.00  0.00    -0.319 C  
HETATM   13  O   UNL     1     -12.003  10.488  68.258  1.00  0.00    -0.377 OA 
HETATM   14  N   UNL     1     -10.789  12.162  67.194  1.00  0.00    -0.235 N  
HETATM   15  H   UNL     1     -10.492  13.133  67.294  1.00  0.00     0.000 HD 
BRANCH  14  16
HETATM   16  C   UNL     1     -10.325  11.465  66.045  1.00  0.00    -0.249 A  
HETATM   17  C   UNL     1     -10.683  11.823  64.748  1.00  0.00    -0.355 A  
HETATM   18  C   UNL     1     -10.169  11.138  63.651  1.00  0.00    -0.444 A  
HETATM   19  C   UNL     1      -9.301  10.057  63.826  1.00  0.00    -0.257 A  
HETATM   20  C   UNL     1      -8.966   9.599  65.117  1.00  0.00    -0.249 A  
HETATM   21 CL   UNL     1      -8.639   9.408  62.360  1.00  0.00    -0.200 Cl 
HETATM   22  C   UNL     1      -9.466  10.361  66.214  1.00  0.00    -0.215 A  
BRANCH  20  23
HETATM   23  C   UNL     1      -8.157   8.377  65.380  1.00  0.00    -0.133 A  
HETATM   24  C   UNL     1      -8.704   7.182  65.860  1.00  0.00    -0.146 A  
HETATM   25  C   UNL     1      -7.888   6.074  66.082  1.00  0.00    -0.104 A  
HETATM   26  C   UNL     1      -6.526   6.188  65.870  1.00  0.00    -0.046 A  
HETATM   27  C   UNL     1      -6.042   7.410  65.438  1.00  0.00    -0.038 A  
HETATM   28  N   UNL     1      -6.817   8.495  65.189  1.00  0.00    -0.067 NA 
ENDBRANCH  20  23
ENDBRANCH  14  16
ENDBRANCH   8  12
ENDBRANCH   2   5
TORSDOF 4
ENDMDL
MODEL       42
REMARK 921   NORMALIZED FREE ENERGY PREDICTED BY IDOCK:   -5.98 KCAL/MOL
REMARK 922        TOTAL FREE ENERGY PREDICTED BY IDOCK:   -8.00 KCAL/MOL
REMARK 923 INTER-LIGAND FREE ENERGY PREDICTED BY IDOCK:   -7.32 KCAL/MOL
REMARK 924 INTRA-LIGAND FREE ENERGY PREDICTED BY IDOCK:   -0.68 KCAL/MOL
REMARK 927      BINDING AFFINITY PREDICTED BY RF-SCORE:    0.00 PKD
ROOT
HETATM    1  C   UNL     1     -10.531  19.366  67.792  1.00  0.00    -0.441 C  
HETATM    2  S   UNL     1      -8.888  19.069  67.190  1.00  0.00    -0.295 S  
HETATM    3  O   UNL     1      -7.942  19.497  68.204  1.00  0.00    -0.300 OA 
HETATM    4  O   UNL     1      -8.802  19.573  65.831  1.00  0.00    -0.412 OA 
ENDROOT
BRANCH   2   5
HETATM    5  C   UNL     1      -8.803  17.296  67.095  1.00  0.00    -0.226 A  
HETATM    6  C   UNL     1      -9.538  16.613  66.119  1.00  0.00    -0.323 A  
HETATM    7  C   UNL     1      -9.520  15.208  66.079  1.00  0.00    -0.323 A  
HETATM    8  C   UNL     1      -8.755  14.485  67.003  1.00  0.00    -0.256 A  
HETATM    9 CL   UNL     1     -10.528  14.467  64.887  1.00  0.00    -0.456 Cl 
HETATM   10  C   UNL     1      -7.987  15.206  67.948  1.00  0.00    -0.143 A  
HETATM   11  C   UNL     1      -8.001  16.601  67.995  1.00  0.00    -0.173 A  
BRANCH   8  12
HETATM   12  C   UNL     1      -8.743  12.998  67.165  1.00  0.00    -0.204 C  
HETATM   13  O   UNL     1      -7.630  12.473  67.195  1.00  0.00    -0.148 OA 
HETATM   14  N   UNL     1      -9.950  12.317  67.242  1.00  0.00    -0.203 N  
HETATM   15  H   UNL     1     -10.799  12.874  67.152  1.00  0.00     0.000 HD 
BRANCH  14  16
HETATM   16  C   UNL     1     -10.118  10.918  67.434  1.00  0.00    -0.191 A  
HETATM   17  C   UNL     1     -10.209  10.016  66.377  1.00  0.00    -0.290 A  
HETATM   18  C   UNL     1     -10.329   8.650  66.614  1.00  0.00    -0.303 A  
HETATM   19  C   UNL     1     -10.386   8.152  67.918  1.00  0.00    -0.220 A  
HETATM   20  C   UNL     1     -10.378   9.024  69.026  1.00  0.00    -0.233 A  
HETATM   21 CL   UNL     1     -10.387   6.422  68.040  1.00  0.00    -0.198 Cl 
HETATM   22  C   UNL     1     -10.197  10.411  68.746  1.00  0.00    -0.201 A  
BRANCH  20  23
HETATM   23  C   UNL     1     -10.569   8.579  70.434  1.00  0.00    -0.223 A  
HETATM   24  C   UNL     1      -9.512   8.408  71.336  1.00  0.00    -0.251 A  
HETATM   25  C   UNL     1      -9.763   7.990  72.642  1.00  0.00    -0.332 A  
HETATM   26  C   UNL     1     -11.062   7.699  73.018  1.00  0.00    -0.437 A  
HETATM   27  C   UNL     1     -12.056   7.846  72.066  1.00  0.00    -0.320 A  
HETATM   28  N   UNL     1     -11.842   8.275  70.798  1.00  0.00    -0.222 NA 
ENDBRANCH  20  23
ENDBRANCH  14  16
ENDBRANCH   8  12
ENDBRANCH   2   5
TORSDOF 4
ENDMDL
MODEL       43
REMARK 921   NORMALIZED FREE ENERGY PREDICTED BY IDOCK:   -5.97 KCAL/MOL
REMARK 922        TOTAL FREE ENERGY PREDICTED BY IDOCK:   -7.98 KCAL/MOL
REMARK 923 INTER-LIGAND FREE ENERGY PREDICTED BY IDOCK:   -7.30 KCAL/MOL
REMARK 924 INTRA-LIGAND FREE ENERGY PREDICTED BY IDOCK:   -0.68 KCAL/MOL
REMARK 927      BINDING AFFINITY PREDICTED BY RF-SCORE:    0.00 PKD
ROOT
HETATM    1  C   UNL     1     -11.835  14.735  72.569  1.00  0.00    -0.137 C  
HETATM    2  S   UNL     1     -13.211  14.035  71.695  1.00  0.00    -0.380 S  
HETATM    3  O   UNL     1     -13.491  14.864  70.537  1.00  0.00    -0.218 OA 
HETATM    4  O   UNL     1     -14.252  13.723  72.657  1.00  0.00    -0.710 OA 
ENDROOT
BRANCH   2   5
HETATM    5  C   UNL     1     -12.569  12.487  71.100  1.00  0.00    -0.253 A  
HETATM    6  C   UNL     1     -12.926  11.293  71.735  1.00  0.00    -0.519 A  
HETATM    7  C   UNL     1     -12.374  10.073  71.306  1.00  0.00    -0.398 A  
HETATM    8  C   UNL     1     -11.480  10.045  70.229  1.00  0.00    -0.372 A  
HETATM    9 CL   UNL     1     -12.819   8.673  72.215  1.00  0.00    -0.426 Cl 
HETATM   10  C   UNL     1     -11.174  11.264  69.577  1.00  0.00    -0.337 A  
HETATM   11  C   UNL     1     -11.717  12.478  70.000  1.00  0.00    -0.297 A  
BRANCH   8  12
HETATM   12  C   UNL     1     -10.716   8.851  69.749  1.00  0.00    -0.225 C  
HETATM   13  O   UNL     1      -9.511   9.026  69.567  1.00  0.00    -0.158 OA 
HETATM   14  N   UNL     1     -11.395   7.663  69.517  1.00  0.00    -0.445 N  
HETATM   15  H   UNL     1     -12.404   7.675  69.660  1.00  0.00     0.000 HD 
BRANCH  14  16
HETATM   16  C   UNL     1     -10.820   6.431  69.098  1.00  0.00    -0.322 A  
HETATM   17  C   UNL     1     -10.321   5.489  69.993  1.00  0.00    -0.358 A  
HETATM   18  C   UNL     1      -9.807   4.277  69.539  1.00  0.00    -0.224 A  
HETATM   19  C   UNL     1      -9.757   3.988  68.173  1.00  0.00    -0.074 A  
HETATM   20  C   UNL     1     -10.175   4.936  67.217  1.00  0.00    -0.190 A  
HETATM   21 CL   UNL     1      -9.227   2.383  67.785  1.00  0.00    -0.228 Cl 
HETATM   22  C   UNL     1     -10.747   6.142  67.721  1.00  0.00    -0.382 A  
BRANCH  20  23
HETATM   23  C   UNL     1     -10.029   4.753  65.747  1.00  0.00    -0.207 A  
HETATM   24  C   UNL     1     -10.979   4.098  64.955  1.00  0.00     0.027 A  
HETATM   25  C   UNL     1     -10.779   3.963  63.583  1.00  0.00    -0.179 A  
HETATM   26  C   UNL     1      -9.608   4.441  63.023  1.00  0.00    -0.059 A  
HETATM   27  C   UNL     1      -8.689   5.040  63.866  1.00  0.00    -0.079 A  
HETATM   28  N   UNL     1      -8.870   5.206  65.200  1.00  0.00    -0.154 NA 
ENDBRANCH  20  23
ENDBRANCH  14  16
ENDBRANCH   8  12
ENDBRANCH   2   5
TORSDOF 4
ENDMDL
MODEL       44
REMARK 921   NORMALIZED FREE ENERGY PREDICTED BY IDOCK:   -5.96 KCAL/MOL
REMARK 922        TOTAL FREE ENERGY PREDICTED BY IDOCK:   -7.98 KCAL/MOL
REMARK 923 INTER-LIGAND FREE ENERGY PREDICTED BY IDOCK:   -7.27 KCAL/MOL
REMARK 924 INTRA-LIGAND FREE ENERGY PREDICTED BY IDOCK:   -0.72 KCAL/MOL
REMARK 927      BINDING AFFINITY PREDICTED BY RF-SCORE:    0.00 PKD
ROOT
HETATM    1  C   UNL     1      -8.539   4.965  68.187  1.00  0.00    -0.102 C  
HETATM    2  S   UNL     1      -9.030   5.180  66.496  1.00  0.00    -0.121 S  
HETATM    3  O   UNL     1     -10.264   4.449  66.277  1.00  0.00    -0.242 OA 
HETATM    4  O   UNL     1      -7.870   4.954  65.652  1.00  0.00    -0.093 OA 
ENDROOT
BRANCH   2   5
HETATM    5  C   UNL     1      -9.413   6.914  66.401  1.00  0.00    -0.120 A  
HETATM    6  C   UNL     1      -8.640   7.758  65.596  1.00  0.00    -0.147 A  
HETATM    7  C   UNL     1      -8.902   9.138  65.565  1.00  0.00    -0.191 A  
HETATM    8  C   UNL     1      -9.949   9.674  66.325  1.00  0.00    -0.335 A  
HETATM    9 CL   UNL     1      -7.834  10.096  64.603  1.00  0.00    -0.145 Cl 
HETATM   10  C   UNL     1     -10.742   8.789  67.094  1.00  0.00    -0.204 A  
HETATM   11  C   UNL     1     -10.486   7.418  67.131  1.00  0.00    -0.403 A  
BRANCH   8  12
HETATM   12  C   UNL     1     -10.260  11.128  66.496  1.00  0.00    -0.231 C  
HETATM   13  O   UNL     1     -11.067  11.598  65.694  1.00  0.00    -0.300 OA 
HETATM   14  N   UNL     1      -9.618  11.843  67.497  1.00  0.00    -0.173 N  
HETATM   15  H   UNL     1      -8.932  11.338  68.056  1.00  0.00     0.000 HD 
BRANCH  14  16
HETATM   16  C   UNL     1      -9.824  13.213  67.818  1.00  0.00    -0.228 A  
HETATM   17  C   UNL     1      -9.185  14.251  67.145  1.00  0.00    -0.230 A  
HETATM   18  C   UNL     1      -9.451  15.579  67.465  1.00  0.00    -0.208 A  
HETATM   19  C   UNL     1     -10.347  15.903  68.488  1.00  0.00    -0.232 A  
HETATM   20  C   UNL     1     -10.963  14.894  69.256  1.00  0.00    -0.279 A  
HETATM   21 CL   UNL     1     -10.676  17.597  68.661  1.00  0.00    -0.230 Cl 
HETATM   22  C   UNL     1     -10.710  13.546  68.862  1.00  0.00    -0.228 A  
BRANCH  20  23
HETATM   23  C   UNL     1     -11.822  15.162  70.442  1.00  0.00    -0.307 A  
HETATM   24  C   UNL     1     -11.416  15.956  71.521  1.00  0.00    -0.484 A  
HETATM   25  C   UNL     1     -12.273  16.167  72.600  1.00  0.00    -0.625 A  
HETATM   26  C   UNL     1     -13.507  15.542  72.613  1.00  0.00    -0.642 A  
HETATM   27  C   UNL     1     -13.830  14.734  71.537  1.00  0.00    -0.450 A  
HETATM   28  N   UNL     1     -13.026  14.533  70.463  1.00  0.00    -0.316 NA 
ENDBRANCH  20  23
ENDBRANCH  14  16
ENDBRANCH   8  12
ENDBRANCH   2   5
TORSDOF 4
ENDMDL
MODEL       45
REMARK 921   NORMALIZED FREE ENERGY PREDICTED BY IDOCK:   -5.89 KCAL/MOL
REMARK 922        TOTAL FREE ENERGY PREDICTED BY IDOCK:   -7.89 KCAL/MOL
REMARK 923 INTER-LIGAND FREE ENERGY PREDICTED BY IDOCK:   -7.72 KCAL/MOL
REMARK 924 INTRA-LIGAND FREE ENERGY PREDICTED BY IDOCK:   -0.18 KCAL/MOL
REMARK 927      BINDING AFFINITY PREDICTED BY RF-SCORE:    0.00 PKD
ROOT
HETATM    1  C   UNL     1     -10.604  19.415  67.722  1.00  0.00    -0.422 C  
HETATM    2  S   UNL     1     -10.032  18.095  66.683  1.00  0.00    -0.381 S  
HETATM    3  O   UNL     1      -8.582  18.126  66.655  1.00  0.00    -0.253 OA 
HETATM    4  O   UNL     1     -10.802  18.117  65.452  1.00  0.00    -0.556 OA 
ENDROOT
BRANCH   2   5
HETATM    5  C   UNL     1     -10.518  16.636  67.575  1.00  0.00    -0.317 A  
HETATM    6  C   UNL     1     -11.048  15.539  66.886  1.00  0.00    -0.221 A  
HETATM    7  C   UNL     1     -11.488  14.407  67.593  1.00  0.00    -0.346 A  
HETATM    8  C   UNL     1     -11.382  14.362  68.989  1.00  0.00    -0.297 A  
HETATM    9 CL   UNL     1     -12.201  13.148  66.649  1.00  0.00    -0.393 Cl 
HETATM   10  C   UNL     1     -10.799  15.468  69.653  1.00  0.00    -0.285 A  
HETATM   11  C   UNL     1     -10.362  16.596  68.957  1.00  0.00    -0.317 A  
BRANCH   8  12
HETATM   12  C   UNL     1     -11.925  13.290  69.880  1.00  0.00    -0.330 C  
HETATM   13  O   UNL     1     -12.640  13.677  70.805  1.00  0.00    -0.338 OA 
HETATM   14  N   UNL     1     -11.578  11.969  69.636  1.00  0.00    -0.391 N  
HETATM   15  H   UNL     1     -10.934  11.797  68.865  1.00  0.00     0.000 HD 
BRANCH  14  16
HETATM   16  C   UNL     1     -12.033  10.831  70.358  1.00  0.00    -0.357 A  
HETATM   17  C   UNL     1     -13.379  10.489  70.458  1.00  0.00     0.085 A  
HETATM   18  C   UNL     1     -13.774   9.341  71.138  1.00  0.00    -0.165 A  
HETATM   19  C   UNL     1     -12.832   8.517  71.759  1.00  0.00    -0.348 A  
HETATM   20  C   UNL     1     -11.463   8.856  71.759  1.00  0.00    -0.423 A  
HETATM   21 CL   UNL     1     -13.473   7.054  72.436  1.00  0.00     0.190 Cl 
HETATM   22  C   UNL     1     -11.090  10.008  71.004  1.00  0.00    -0.341 A  
BRANCH  20  23
HETATM   23  C   UNL     1     -10.421   8.102  72.509  1.00  0.00    -0.339 A  
HETATM   24  C   UNL     1     -10.715   7.213  73.549  1.00  0.00    -0.375 A  
HETATM   25  C   UNL     1      -9.689   6.538  74.208  1.00  0.00    -0.309 A  
HETATM   26  C   UNL     1      -8.377   6.795  73.854  1.00  0.00    -0.144 A  
HETATM   27  C   UNL     1      -8.151   7.718  72.847  1.00  0.00    -0.126 A  
HETATM   28  N   UNL     1      -9.132   8.369  72.173  1.00  0.00    -0.218 NA 
ENDBRANCH  20  23
ENDBRANCH  14  16
ENDBRANCH   8  12
ENDBRANCH   2   5
TORSDOF 4
ENDMDL
MODEL       46
REMARK 921   NORMALIZED FREE ENERGY PREDICTED BY IDOCK:   -5.85 KCAL/MOL
REMARK 922        TOTAL FREE ENERGY PREDICTED BY IDOCK:   -7.85 KCAL/MOL
REMARK 923 INTER-LIGAND FREE ENERGY PREDICTED BY IDOCK:   -7.27 KCAL/MOL
REMARK 924 INTRA-LIGAND FREE ENERGY PREDICTED BY IDOCK:   -0.57 KCAL/MOL
REMARK 927      BINDING AFFINITY PREDICTED BY RF-SCORE:    0.00 PKD
ROOT
HETATM    1  C   UNL     1     -10.454   5.269  66.410  1.00  0.00    -0.292 C  
HETATM    2  S   UNL     1      -9.798   5.941  67.915  1.00  0.00    -0.133 S  
HETATM    3  O   UNL     1      -8.369   5.690  67.947  1.00  0.00    -0.101 OA 
HETATM    4  O   UNL     1     -10.652   5.525  69.012  1.00  0.00    -0.236 OA 
ENDROOT
BRANCH   2   5
HETATM    5  C   UNL     1     -10.027   7.692  67.712  1.00  0.00    -0.174 A  
HETATM    6  C   UNL     1     -10.432   8.475  68.798  1.00  0.00    -0.208 A  
HETATM    7  C   UNL     1     -10.672   9.849  68.628  1.00  0.00    -0.226 A  
HETATM    8  C   UNL     1     -10.490  10.446  67.374  1.00  0.00    -0.299 A  
HETATM    9 CL   UNL     1     -11.249  10.701  70.015  1.00  0.00    -0.363 Cl 
HETATM   10  C   UNL     1     -10.035   9.638  66.305  1.00  0.00    -0.335 A  
HETATM   11  C   UNL     1      -9.796   8.272  66.467  1.00  0.00    -0.323 A  
BRANCH   8  12
HETATM   12  C   UNL     1     -10.831  11.858  67.011  1.00  0.00    -0.259 C  
HETATM   13  O   UNL     1     -12.031  12.135  67.016  1.00  0.00    -0.593 OA 
HETATM   14  N   UNL     1      -9.810  12.734  66.673  1.00  0.00    -0.244 N  
HETATM   15  H   UNL     1      -8.863  12.355  66.660  1.00  0.00     0.000 HD 
BRANCH  14  16
HETATM   16  C   UNL     1      -9.954  14.110  66.343  1.00  0.00    -0.293 A  
HETATM   17  C   UNL     1     -10.827  14.562  65.356  1.00  0.00    -0.362 A  
HETATM   18  C   UNL     1     -10.967  15.922  65.098  1.00  0.00    -0.389 A  
HETATM   19  C   UNL     1     -10.217  16.866  65.804  1.00  0.00    -0.268 A  
HETATM   20  C   UNL     1      -9.260  16.463  66.758  1.00  0.00    -0.259 A  
HETATM   21 CL   UNL     1     -10.616  18.519  65.464  1.00  0.00    -0.203 Cl 
HETATM   22  C   UNL     1      -9.185  15.065  67.036  1.00  0.00    -0.246 A  
BRANCH  20  23
HETATM   23  C   UNL     1      -8.334  17.399  67.451  1.00  0.00    -0.205 A  
HETATM   24  C   UNL     1      -8.741  18.274  68.465  1.00  0.00    -0.325 A  
HETATM   25  C   UNL     1      -7.819  19.123  69.073  1.00  0.00    -0.294 A  
HETATM   26  C   UNL     1      -6.509  19.125  68.629  1.00  0.00    -0.284 A  
HETATM   27  C   UNL     1      -6.180  18.267  67.594  1.00  0.00    -0.185 A  
HETATM   28  N   UNL     1      -7.051  17.413  67.002  1.00  0.00    -0.170 NA 
ENDBRANCH  20  23
ENDBRANCH  14  16
ENDBRANCH   8  12
ENDBRANCH   2   5
TORSDOF 4
ENDMDL
MODEL       47
REMARK 921   NORMALIZED FREE ENERGY PREDICTED BY IDOCK:   -5.84 KCAL/MOL
REMARK 922        TOTAL FREE ENERGY PREDICTED BY IDOCK:   -7.83 KCAL/MOL
REMARK 923 INTER-LIGAND FREE ENERGY PREDICTED BY IDOCK:   -7.15 KCAL/MOL
REMARK 924 INTRA-LIGAND FREE ENERGY PREDICTED BY IDOCK:   -0.68 KCAL/MOL
REMARK 927      BINDING AFFINITY PREDICTED BY RF-SCORE:    0.00 PKD
ROOT
HETATM    1  C   UNL     1     -10.431   4.737  71.212  1.00  0.00    -0.051 C  
HETATM    2  S   UNL     1      -9.462   4.912  69.736  1.00  0.00    -0.172 S  
HETATM    3  O   UNL     1      -9.979   3.999  68.734  1.00  0.00    -0.051 OA 
HETATM    4  O   UNL     1      -8.058   4.894  70.107  1.00  0.00    -0.071 OA 
ENDROOT
BRANCH   2   5
HETATM    5  C   UNL     1      -9.837   6.564  69.196  1.00  0.00    -0.144 A  
HETATM    6  C   UNL     1     -10.145   7.553  70.136  1.00  0.00    -0.195 A  
HETATM    7  C   UNL     1     -10.501   8.845  69.710  1.00  0.00    -0.212 A  
HETATM    8  C   UNL     1     -10.532   9.153  68.345  1.00  0.00    -0.241 A  
HETATM    9 CL   UNL     1     -10.943   9.962  70.951  1.00  0.00    -0.404 Cl 
HETATM   10  C   UNL     1     -10.171   8.144  67.420  1.00  0.00    -0.327 A  
HETATM   11  C   UNL     1      -9.818   6.859  67.836  1.00  0.00    -0.155 A  
BRANCH   8  12
HETATM   12  C   UNL     1     -11.016  10.434  67.741  1.00  0.00    -0.309 C  
HETATM   13  O   UNL     1     -12.078  10.867  68.188  1.00  0.00    -0.563 OA 
HETATM   14  N   UNL     1     -10.278  11.023  66.724  1.00  0.00    -0.220 N  
HETATM   15  H   UNL     1      -9.443  10.527  66.415  1.00  0.00     0.000 HD 
BRANCH  14  16
HETATM   16  C   UNL     1     -10.573  12.251  66.071  1.00  0.00    -0.254 A  
HETATM   17  C   UNL     1     -11.269  12.319  64.867  1.00  0.00    -0.365 A  
HETATM   18  C   UNL     1     -11.573  13.547  64.287  1.00  0.00    -0.433 A  
HETATM   19  C   UNL     1     -11.166  14.741  64.886  1.00  0.00    -0.406 A  
HETATM   20  C   UNL     1     -10.390  14.733  66.064  1.00  0.00    -0.318 A  
HETATM   21 CL   UNL     1     -11.750  16.182  64.115  1.00  0.00    -0.162 Cl 
HETATM   22  C   UNL     1     -10.147  13.459  66.659  1.00  0.00    -0.275 A  
BRANCH  20  23
HETATM   23  C   UNL     1      -9.809  15.955  66.684  1.00  0.00    -0.254 A  
HETATM   24  C   UNL     1      -8.500  16.389  66.446  1.00  0.00    -0.364 A  
HETATM   25  C   UNL     1      -8.020  17.545  67.059  1.00  0.00    -0.240 A  
HETATM   26  C   UNL     1      -8.837  18.228  67.942  1.00  0.00    -0.278 A  
HETATM   27  C   UNL     1     -10.105  17.722  68.168  1.00  0.00    -0.362 A  
HETATM   28  N   UNL     1     -10.605  16.615  67.565  1.00  0.00    -0.323 NA 
ENDBRANCH  20  23
ENDBRANCH  14  16
ENDBRANCH   8  12
ENDBRANCH   2   5
TORSDOF 4
ENDMDL
MODEL       48
REMARK 921   NORMALIZED FREE ENERGY PREDICTED BY IDOCK:   -5.79 KCAL/MOL
REMARK 922        TOTAL FREE ENERGY PREDICTED BY IDOCK:   -7.77 KCAL/MOL
REMARK 923 INTER-LIGAND FREE ENERGY PREDICTED BY IDOCK:   -7.35 KCAL/MOL
REMARK 924 INTRA-LIGAND FREE ENERGY PREDICTED BY IDOCK:   -0.42 KCAL/MOL
REMARK 927      BINDING AFFINITY PREDICTED BY RF-SCORE:    0.00 PKD
ROOT
HETATM    1  C   UNL     1     -12.017  15.781  71.876  1.00  0.00    -0.466 C  
HETATM    2  S   UNL     1     -13.478  14.799  71.652  1.00  0.00    -0.421 S  
HETATM    3  O   UNL     1     -14.194  15.296  70.492  1.00  0.00     0.044 OA 
HETATM    4  O   UNL     1     -14.141  14.667  72.936  1.00  0.00    -0.457 OA 
ENDROOT
BRANCH   2   5
HETATM    5  C   UNL     1     -12.831  13.197  71.232  1.00  0.00    -0.296 A  
HETATM    6  C   UNL     1     -13.354  12.051  71.840  1.00  0.00    -0.408 A  
HETATM    7  C   UNL     1     -12.805  10.789  71.556  1.00  0.00    -0.462 A  
HETATM    8  C   UNL     1     -11.744  10.669  70.650  1.00  0.00    -0.454 A  
HETATM    9 CL   UNL     1     -13.473   9.453  72.425  1.00  0.00    -0.525 Cl 
HETATM   10  C   UNL     1     -11.266  11.841  70.017  1.00  0.00    -0.004 A  
HETATM   11  C   UNL     1     -11.806  13.098  70.296  1.00  0.00    -0.299 A  
BRANCH   8  12
HETATM   12  C   UNL     1     -10.976   9.420  70.352  1.00  0.00    -0.266 C  
HETATM   13  O   UNL     1      -9.815   9.584  69.976  1.00  0.00    -0.202 OA 
HETATM   14  N   UNL     1     -11.607   8.191  70.485  1.00  0.00    -0.438 N  
HETATM   15  H   UNL     1     -12.589   8.205  70.756  1.00  0.00     0.000 HD 
BRANCH  14  16
HETATM   16  C   UNL     1     -11.016   6.913  70.280  1.00  0.00    -0.281 A  
HETATM   17  C   UNL     1     -10.763   6.023  71.320  1.00  0.00    -0.320 A  
HETATM   18  C   UNL     1     -10.224   4.765  71.066  1.00  0.00    -0.239 A  
HETATM   19  C   UNL     1      -9.900   4.375  69.764  1.00  0.00    -0.214 A  
HETATM   20  C   UNL     1     -10.061   5.264  68.681  1.00  0.00    -0.238 A  
HETATM   21 CL   UNL     1      -9.377   2.729  69.603  1.00  0.00    -0.213 Cl 
HETATM   22  C   UNL     1     -10.668   6.522  68.972  1.00  0.00    -0.324 A  
BRANCH  20  23
HETATM   23  C   UNL     1      -9.615   4.968  67.292  1.00  0.00    -0.148 A  
HETATM   24  C   UNL     1      -8.288   5.093  66.867  1.00  0.00    -0.107 A  
HETATM   25  C   UNL     1      -7.940   4.797  65.550  1.00  0.00    -0.095 A  
HETATM   26  C   UNL     1      -8.931   4.428  64.659  1.00  0.00    -0.150 A  
HETATM   27  C   UNL     1     -10.230   4.367  65.130  1.00  0.00    -0.179 A  
HETATM   28  N   UNL     1     -10.591   4.624  66.412  1.00  0.00    -0.184 NA 
ENDBRANCH  20  23
ENDBRANCH  14  16
ENDBRANCH   8  12
ENDBRANCH   2   5
TORSDOF 4
ENDMDL
MODEL       49
REMARK 921   NORMALIZED FREE ENERGY PREDICTED BY IDOCK:   -5.74 KCAL/MOL
REMARK 922        TOTAL FREE ENERGY PREDICTED BY IDOCK:   -7.71 KCAL/MOL
REMARK 923 INTER-LIGAND FREE ENERGY PREDICTED BY IDOCK:   -7.51 KCAL/MOL
REMARK 924 INTRA-LIGAND FREE ENERGY PREDICTED BY IDOCK:   -0.20 KCAL/MOL
REMARK 927      BINDING AFFINITY PREDICTED BY RF-SCORE:    0.00 PKD
ROOT
HETATM    1  C   UNL     1     -11.441   7.511  71.688  1.00  0.00    -0.261 C  
HETATM    2  S   UNL     1     -10.693   7.383  70.084  1.00  0.00    -0.244 S  
HETATM    3  O   UNL     1     -11.485   6.474  69.277  1.00  0.00    -0.340 OA 
HETATM    4  O   UNL     1      -9.267   7.172  70.261  1.00  0.00    -0.155 OA 
ENDROOT
BRANCH   2   5
HETATM    5  C   UNL     1     -10.899   9.014  69.408  1.00  0.00    -0.138 A  
HETATM    6  C   UNL     1     -10.713   9.231  68.038  1.00  0.00    -0.231 A  
HETATM    7  C   UNL     1     -10.816  10.529  67.509  1.00  0.00    -0.301 A  
HETATM    8  C   UNL     1     -11.123  11.609  68.346  1.00  0.00    -0.285 A  
HETATM    9 CL   UNL     1     -10.484  10.694  65.821  1.00  0.00    -0.272 Cl 
HETATM   10  C   UNL     1     -11.351  11.351  69.719  1.00  0.00    -0.332 A  
HETATM   11  C   UNL     1     -11.249  10.065  70.251  1.00  0.00    -0.379 A  
BRANCH   8  12
HETATM   12  C   UNL     1     -11.135  13.053  67.953  1.00  0.00    -0.255 C  
HETATM   13  O   UNL     1     -12.240  13.595  67.945  1.00  0.00    -0.320 OA 
HETATM   14  N   UNL     1      -9.940  13.668  67.604  1.00  0.00    -0.234 N  
HETATM   15  H   UNL     1      -9.105  13.084  67.605  1.00  0.00     0.000 HD 
BRANCH  14  16
HETATM   16  C   UNL     1      -9.769  15.033  67.245  1.00  0.00    -0.220 A  
HETATM   17  C   UNL     1     -10.383  15.605  66.134  1.00  0.00    -0.329 A  
HETATM   18  C   UNL     1     -10.220  16.957  65.847  1.00  0.00    -0.330 A  
HETATM   19  C   UNL     1      -9.417  17.768  66.653  1.00  0.00    -0.292 A  
HETATM   20  C   UNL     1      -8.707  17.227  67.744  1.00  0.00    -0.226 A  
HETATM   21 CL   UNL     1      -9.438  19.454  66.244  1.00  0.00    -0.406 Cl 
HETATM   22  C   UNL     1      -8.943  15.851  68.041  1.00  0.00    -0.182 A  
BRANCH  20  23
HETATM   23  C   UNL     1      -7.732  17.997  68.564  1.00  0.00    -0.302 A  
HETATM   24  C   UNL     1      -7.723  19.395  68.637  1.00  0.00    -0.394 A  
HETATM   25  C   UNL     1      -6.781  20.052  69.426  1.00  0.00    -0.315 A  
HETATM   26  C   UNL     1      -5.826  19.308  70.096  1.00  0.00    -0.281 A  
HETATM   27  C   UNL     1      -5.862  17.933  69.948  1.00  0.00    -0.237 A  
HETATM   28  N   UNL     1      -6.783  17.267  69.206  1.00  0.00    -0.245 NA 
ENDBRANCH  20  23
ENDBRANCH  14  16
ENDBRANCH   8  12
ENDBRANCH   2   5
TORSDOF 4
ENDMDL
MODEL       50
REMARK 921   NORMALIZED FREE ENERGY PREDICTED BY IDOCK:   -5.71 KCAL/MOL
REMARK 922        TOTAL FREE ENERGY PREDICTED BY IDOCK:   -7.66 KCAL/MOL
REMARK 923 INTER-LIGAND FREE ENERGY PREDICTED BY IDOCK:   -6.99 KCAL/MOL
REMARK 924 INTRA-LIGAND FREE ENERGY PREDICTED BY IDOCK:   -0.67 KCAL/MOL
REMARK 927      BINDING AFFINITY PREDICTED BY RF-SCORE:    0.00 PKD
ROOT
HETATM    1  C   UNL     1      -8.757  17.432  65.863  1.00  0.00     0.074 C  
HETATM    2  S   UNL     1     -10.393  16.751  65.778  1.00  0.00    -0.237 S  
HETATM    3  O   UNL     1     -10.940  17.028  64.463  1.00  0.00    -1.031 OA 
HETATM    4  O   UNL     1     -11.111  17.136  66.980  1.00  0.00    -0.001 OA 
ENDROOT
BRANCH   2   5
HETATM    5  C   UNL     1     -10.111  14.999  65.879  1.00  0.00    -0.320 A  
HETATM    6  C   UNL     1     -10.757  14.133  64.989  1.00  0.00    -0.429 A  
HETATM    7  C   UNL     1     -10.583  12.744  65.104  1.00  0.00    -0.302 A  
HETATM    8  C   UNL     1      -9.748  12.217  66.098  1.00  0.00    -0.256 A  
HETATM    9 CL   UNL     1     -11.493  11.767  64.008  1.00  0.00    -0.449 Cl 
HETATM   10  C   UNL     1      -9.071  13.120  66.954  1.00  0.00    -0.231 A  
HETATM   11  C   UNL     1      -9.241  14.501  66.846  1.00  0.00    -0.267 A  
BRANCH   8  12
HETATM   12  C   UNL     1      -9.571  10.768  66.424  1.00  0.00    -0.189 C  
HETATM   13  O   UNL     1      -8.626  10.207  65.869  1.00  0.00    -0.138 OA 
HETATM   14  N   UNL     1     -10.472  10.154  67.283  1.00  0.00    -0.240 N  
HETATM   15  H   UNL     1     -11.240  10.727  67.631  1.00  0.00     0.000 HD 
BRANCH  14  16
HETATM   16  C   UNL     1     -10.428   8.803  67.726  1.00  0.00    -0.229 A  
HETATM   17  C   UNL     1     -10.578   7.721  66.863  1.00  0.00    -0.347 A  
HETATM   18  C   UNL     1     -10.484   6.415  67.335  1.00  0.00    -0.312 A  
HETATM   19  C   UNL     1     -10.262   6.158  68.690  1.00  0.00    -0.181 A  
HETATM   20  C   UNL     1     -10.181   7.213  69.623  1.00  0.00    -0.215 A  
HETATM   21 CL   UNL     1     -10.025   4.486  69.088  1.00  0.00    -0.221 Cl 
HETATM   22  C   UNL     1     -10.225   8.537  69.094  1.00  0.00    -0.218 A  
BRANCH  20  23
HETATM   23  C   UNL     1     -10.079   7.014  71.095  1.00  0.00    -0.187 A  
HETATM   24  C   UNL     1     -11.111   7.329  71.986  1.00  0.00    -0.277 A  
HETATM   25  C   UNL     1     -10.949   7.115  73.354  1.00  0.00    -0.277 A  
HETATM   26  C   UNL     1      -9.739   6.634  73.821  1.00  0.00    -0.248 A  
HETATM   27  C   UNL     1      -8.744   6.383  72.893  1.00  0.00    -0.124 A  
HETATM   28  N   UNL     1      -8.885   6.559  71.556  1.00  0.00    -0.139 NA 
ENDBRANCH  20  23
ENDBRANCH  14  16
ENDBRANCH   8  12
ENDBRANCH   2   5
TORSDOF 4
ENDMDL
MODEL       51
REMARK 921   NORMALIZED FREE ENERGY PREDICTED BY IDOCK:   -5.70 KCAL/MOL
REMARK 922        TOTAL FREE ENERGY PREDICTED BY IDOCK:   -7.65 KCAL/MOL
REMARK 923 INTER-LIGAND FREE ENERGY PREDICTED BY IDOCK:   -6.84 KCAL/MOL
REMARK 924 INTRA-LIGAND FREE ENERGY PREDICTED BY IDOCK:   -0.81 KCAL/MOL
REMARK 927      BINDING AFFINITY PREDICTED BY RF-SCORE:    0.00 PKD
ROOT
HETATM    1  C   UNL     1     -10.986   5.850  70.145  1.00  0.00    -0.342 C  
HETATM    2  S   UNL     1     -11.620   7.144  71.181  1.00  0.00    -0.318 S  
HETATM    3  O   UNL     1     -11.025   7.014  72.497  1.00  0.00    -0.239 OA 
HETATM    4  O   UNL     1     -13.062   7.194  71.017  1.00  0.00    -0.305 OA 
ENDROOT
BRANCH   2   5
HETATM    5  C   UNL     1     -10.960   8.619  70.440  1.00  0.00    -0.235 A  
HETATM    6  C   UNL     1     -11.598   9.848  70.642  1.00  0.00    -0.413 A  
HETATM    7  C   UNL     1     -11.113  11.006  70.010  1.00  0.00    -0.161 A  
HETATM    8  C   UNL     1      -9.980  10.940  69.189  1.00  0.00    -0.181 A  
HETATM    9 CL   UNL     1     -12.026  12.451  70.262  1.00  0.00    -0.415 Cl 
HETATM   10  C   UNL     1      -9.330   9.691  69.041  1.00  0.00    -0.159 A  
HETATM   11  C   UNL     1      -9.807   8.537  69.665  1.00  0.00    -0.183 A  
BRANCH   8  12
HETATM   12  C   UNL     1      -9.433  12.052  68.351  1.00  0.00    -0.181 C  
HETATM   13  O   UNL     1      -9.788  12.058  67.173  1.00  0.00    -0.194 OA 
HETATM   14  N   UNL     1      -8.561  12.965  68.928  1.00  0.00    -0.348 N  
HETATM   15  H   UNL     1      -8.311  12.810  69.904  1.00  0.00     0.000 HD 
BRANCH  14  16
HETATM   16  C   UNL     1      -7.981  14.096  68.289  1.00  0.00    -0.140 A  
HETATM   17  C   UNL     1      -6.653  14.132  67.874  1.00  0.00    -0.174 A  
HETATM   18  C   UNL     1      -6.142  15.245  67.213  1.00  0.00     0.202 A  
HETATM   19  C   UNL     1      -6.942  16.365  66.973  1.00  0.00    -0.219 A  
HETATM   20  C   UNL     1      -8.272  16.418  67.441  1.00  0.00    -0.178 A  
HETATM   21 CL   UNL     1      -6.198  17.603  66.014  1.00  0.00    -0.262 Cl 
HETATM   22  C   UNL     1      -8.777  15.237  68.063  1.00  0.00    -0.160 A  
BRANCH  20  23
HETATM   23  C   UNL     1      -9.139  17.623  67.341  1.00  0.00    -0.239 A  
HETATM   24  C   UNL     1      -9.830  17.978  66.177  1.00  0.00    -0.255 A  
HETATM   25  C   UNL     1     -10.627  19.121  66.154  1.00  0.00    -0.524 A  
HETATM   26  C   UNL     1     -10.688  19.924  67.278  1.00  0.00    -0.460 A  
HETATM   27  C   UNL     1      -9.947  19.541  68.383  1.00  0.00    -0.443 A  
HETATM   28  N   UNL     1      -9.183  18.421  68.440  1.00  0.00    -0.314 NA 
ENDBRANCH  20  23
ENDBRANCH  14  16
ENDBRANCH   8  12
ENDBRANCH   2   5
TORSDOF 4
ENDMDL
MODEL       52
REMARK 921   NORMALIZED FREE ENERGY PREDICTED BY IDOCK:   -5.63 KCAL/MOL
REMARK 922        TOTAL FREE ENERGY PREDICTED BY IDOCK:   -7.57 KCAL/MOL
REMARK 923 INTER-LIGAND FREE ENERGY PREDICTED BY IDOCK:   -6.98 KCAL/MOL
REMARK 924 INTRA-LIGAND FREE ENERGY PREDICTED BY IDOCK:   -0.59 KCAL/MOL
REMARK 927      BINDING AFFINITY PREDICTED BY RF-SCORE:    0.00 PKD
ROOT
HETATM    1  C   UNL     1      -9.198   6.158  68.514  1.00  0.00    -0.115 C  
HETATM    2  S   UNL     1     -10.275   6.660  69.832  1.00  0.00    -0.193 S  
HETATM    3  O   UNL     1      -9.584   6.461  71.093  1.00  0.00    -0.173 OA 
HETATM    4  O   UNL     1     -11.584   6.076  69.600  1.00  0.00    -0.321 OA 
ENDROOT
BRANCH   2   5
HETATM    5  C   UNL     1     -10.434   8.413  69.582  1.00  0.00    -0.221 A  
HETATM    6  C   UNL     1     -11.309   9.157  70.382  1.00  0.00    -0.260 A  
HETATM    7  C   UNL     1     -11.482  10.531  70.149  1.00  0.00    -0.325 A  
HETATM    8  C   UNL     1     -10.768  11.168  69.126  1.00  0.00    -0.262 A  
HETATM    9 CL   UNL     1     -12.648  11.333  71.140  1.00  0.00    -0.504 Cl 
HETATM   10  C   UNL     1      -9.857  10.399  68.363  1.00  0.00    -0.173 A  
HETATM   11  C   UNL     1      -9.681   9.033  68.589  1.00  0.00    -0.168 A  
BRANCH   8  12
HETATM   12  C   UNL     1     -10.946  12.584  68.676  1.00  0.00    -0.255 C  
HETATM   13  O   UNL     1     -11.866  12.780  67.882  1.00  0.00    -0.351 OA 
HETATM   14  N   UNL     1     -10.073  13.556  69.143  1.00  0.00    -0.416 N  
HETATM   15  H   UNL     1      -9.323  13.243  69.758  1.00  0.00     0.000 HD 
BRANCH  14  16
HETATM   16  C   UNL     1     -10.123  14.947  68.849  1.00  0.00    -0.236 A  
HETATM   17  C   UNL     1     -11.291  15.698  68.948  1.00  0.00    -0.341 A  
HETATM   18  C   UNL     1     -11.283  17.066  68.692  1.00  0.00    -0.003 A  
HETATM   19  C   UNL     1     -10.107  17.714  68.303  1.00  0.00    -0.362 A  
HETATM   20  C   UNL     1      -8.913  16.991  68.109  1.00  0.00    -0.227 A  
HETATM   21 CL   UNL     1     -10.235  19.439  68.166  1.00  0.00    -0.512 Cl 
HETATM   22  C   UNL     1      -8.947  15.602  68.436  1.00  0.00    -0.185 A  
BRANCH  20  23
HETATM   23  C   UNL     1      -7.660  17.587  67.569  1.00  0.00    -0.197 A  
HETATM   24  C   UNL     1      -7.293  17.514  66.221  1.00  0.00    -0.355 A  
HETATM   25  C   UNL     1      -6.105  18.097  65.783  1.00  0.00    -0.274 A  
HETATM   26  C   UNL     1      -5.272  18.703  66.706  1.00  0.00    -0.143 A  
HETATM   27  C   UNL     1      -5.671  18.702  68.031  1.00  0.00    -0.180 A  
HETATM   28  N   UNL     1      -6.833  18.165  68.479  1.00  0.00    -0.230 NA 
ENDBRANCH  20  23
ENDBRANCH  14  16
ENDBRANCH   8  12
ENDBRANCH   2   5
TORSDOF 4
ENDMDL
MODEL       53
REMARK 921   NORMALIZED FREE ENERGY PREDICTED BY IDOCK:   -5.62 KCAL/MOL
REMARK 922        TOTAL FREE ENERGY PREDICTED BY IDOCK:   -7.55 KCAL/MOL
REMARK 923 INTER-LIGAND FREE ENERGY PREDICTED BY IDOCK:   -6.94 KCAL/MOL
REMARK 924 INTRA-LIGAND FREE ENERGY PREDICTED BY IDOCK:   -0.61 KCAL/MOL
REMARK 927      BINDING AFFINITY PREDICTED BY RF-SCORE:    0.00 PKD
ROOT
HETATM    1  C   UNL     1      -9.770   3.745  68.068  1.00  0.00    -0.053 C  
HETATM    2  S   UNL     1      -9.335   4.602  66.576  1.00  0.00    -0.163 S  
HETATM    3  O   UNL     1     -10.275   4.225  65.537  1.00  0.00    -0.229 OA 
HETATM    4  O   UNL     1      -7.904   4.464  66.371  1.00  0.00    -0.097 OA 
ENDROOT
BRANCH   2   5
HETATM    5  C   UNL     1      -9.642   6.305  66.981  1.00  0.00    -0.140 A  
HETATM    6  C   UNL     1     -10.099   6.649  68.258  1.00  0.00    -0.170 A  
HETATM    7  C   UNL     1     -10.400   7.987  68.563  1.00  0.00    -0.199 A  
HETATM    8  C   UNL     1     -10.228   8.987  67.598  1.00  0.00    -0.300 A  
HETATM    9 CL   UNL     1     -11.037   8.285  70.142  1.00  0.00    -0.230 Cl 
HETATM   10  C   UNL     1      -9.719   8.614  66.330  1.00  0.00    -0.322 A  
HETATM   11  C   UNL     1      -9.420   7.287  66.020  1.00  0.00     0.020 A  
BRANCH   8  12
HETATM   12  C   UNL     1     -10.629  10.422  67.733  1.00  0.00    -0.250 C  
HETATM   13  O   UNL     1     -11.838  10.645  67.678  1.00  0.00    -0.411 OA 
HETATM   14  N   UNL     1      -9.643  11.388  67.878  1.00  0.00    -0.172 N  
HETATM   15  H   UNL     1      -8.676  11.066  67.854  1.00  0.00     0.000 HD 
BRANCH  14  16
HETATM   16  C   UNL     1      -9.850  12.783  68.056  1.00  0.00    -0.226 A  
HETATM   17  C   UNL     1      -9.213  13.747  67.278  1.00  0.00    -0.239 A  
HETATM   18  C   UNL     1      -9.481  15.100  67.459  1.00  0.00    -0.206 A  
HETATM   19  C   UNL     1     -10.376  15.527  68.443  1.00  0.00    -0.230 A  
HETATM   20  C   UNL     1     -10.990  14.603  69.313  1.00  0.00    -0.278 A  
HETATM   21 CL   UNL     1     -10.707  17.230  68.440  1.00  0.00    -0.360 Cl 
HETATM   22  C   UNL     1     -10.735  13.222  69.060  1.00  0.00    -0.156 A  
BRANCH  20  23
HETATM   23  C   UNL     1     -11.848  14.991  70.466  1.00  0.00    -0.297 A  
HETATM   24  C   UNL     1     -13.246  14.934  70.438  1.00  0.00    -0.124 A  
HETATM   25  C   UNL     1     -13.988  15.312  71.555  1.00  0.00    -0.627 A  
HETATM   26  C   UNL     1     -13.327  15.790  72.673  1.00  0.00    -0.607 A  
HETATM   27  C   UNL     1     -11.946  15.863  72.621  1.00  0.00    -0.504 A  
HETATM   28  N   UNL     1     -11.199  15.478  71.556  1.00  0.00    -0.373 NA 
ENDBRANCH  20  23
ENDBRANCH  14  16
ENDBRANCH   8  12
ENDBRANCH   2   5
TORSDOF 4
ENDMDL
MODEL       54
REMARK 921   NORMALIZED FREE ENERGY PREDICTED BY IDOCK:   -5.58 KCAL/MOL
REMARK 922        TOTAL FREE ENERGY PREDICTED BY IDOCK:   -7.50 KCAL/MOL
REMARK 923 INTER-LIGAND FREE ENERGY PREDICTED BY IDOCK:   -7.28 KCAL/MOL
REMARK 924 INTRA-LIGAND FREE ENERGY PREDICTED BY IDOCK:   -0.22 KCAL/MOL
REMARK 927      BINDING AFFINITY PREDICTED BY RF-SCORE:    0.00 PKD
ROOT
HETATM    1  C   UNL     1     -11.892  15.385  72.629  1.00  0.00    -0.463 C  
HETATM    2  S   UNL     1     -13.321  14.632  71.895  1.00  0.00    -0.400 S  
HETATM    3  O   UNL     1     -14.030  15.639  71.129  1.00  0.00    -0.564 OA 
HETATM    4  O   UNL     1     -14.002  13.854  72.914  1.00  0.00    -0.627 OA 
ENDROOT
BRANCH   2   5
HETATM    5  C   UNL     1     -12.622  13.477  70.738  1.00  0.00    -0.309 A  
HETATM    6  C   UNL     1     -12.239  13.909  69.463  1.00  0.00    -0.356 A  
HETATM    7  C   UNL     1     -11.742  12.988  68.525  1.00  0.00    -0.342 A  
HETATM    8  C   UNL     1     -11.610  11.636  68.867  1.00  0.00    -0.377 A  
HETATM    9 CL   UNL     1     -11.381  13.615  66.957  1.00  0.00    -0.329 Cl 
HETATM   10  C   UNL     1     -11.961  11.238  70.179  1.00  0.00    -0.452 A  
HETATM   11  C   UNL     1     -12.457  12.147  71.115  1.00  0.00    -0.337 A  
BRANCH   8  12
HETATM   12  C   UNL     1     -11.225  10.526  67.940  1.00  0.00    -0.289 C  
HETATM   13  O   UNL     1     -11.375  10.757  66.740  1.00  0.00    -0.248 OA 
HETATM   14  N   UNL     1     -10.764   9.330  68.473  1.00  0.00    -0.379 N  
HETATM   15  H   UNL     1     -10.740   9.259  69.490  1.00  0.00     0.000 HD 
BRANCH  14  16
HETATM   16  C   UNL     1     -10.323   8.195  67.739  1.00  0.00    -0.233 A  
HETATM   17  C   UNL     1     -10.739   6.899  68.031  1.00  0.00    -0.276 A  
HETATM   18  C   UNL     1     -10.315   5.822  67.257  1.00  0.00    -0.284 A  
HETATM   19  C   UNL     1      -9.442   6.013  66.184  1.00  0.00    -0.087 A  
HETATM   20  C   UNL     1      -8.925   7.292  65.890  1.00  0.00    -0.103 A  
HETATM   21 CL   UNL     1      -9.128   4.595  65.235  1.00  0.00    -0.147 Cl 
HETATM   22  C   UNL     1      -9.426   8.378  66.668  1.00  0.00    -0.267 A  
BRANCH  20  23
HETATM   23  C   UNL     1      -7.892   7.551  64.850  1.00  0.00    -0.128 A  
HETATM   24  C   UNL     1      -6.517   7.442  65.089  1.00  0.00    -0.038 A  
HETATM   25  C   UNL     1      -5.603   7.697  64.067  1.00  0.00    -0.041 A  
HETATM   26  C   UNL     1      -6.072   8.107  62.832  1.00  0.00    -0.077 A  
HETATM   27  C   UNL     1      -7.440   8.238  62.673  1.00  0.00    -0.104 A  
HETATM   28  N   UNL     1      -8.351   7.971  63.642  1.00  0.00    -0.027 NA 
ENDBRANCH  20  23
ENDBRANCH  14  16
ENDBRANCH   8  12
ENDBRANCH   2   5
TORSDOF 4
ENDMDL
MODEL       55
REMARK 921   NORMALIZED FREE ENERGY PREDICTED BY IDOCK:   -5.52 KCAL/MOL
REMARK 922        TOTAL FREE ENERGY PREDICTED BY IDOCK:   -7.44 KCAL/MOL
REMARK 923 INTER-LIGAND FREE ENERGY PREDICTED BY IDOCK:   -7.45 KCAL/MOL
REMARK 924 INTRA-LIGAND FREE ENERGY PREDICTED BY IDOCK:    0.01 KCAL/MOL
REMARK 927      BINDING AFFINITY PREDICTED BY RF-SCORE:    0.00 PKD
ROOT
HETATM    1  C   UNL     1     -10.092  20.190  66.365  1.00  0.00    -0.445 C  
HETATM    2  S   UNL     1      -8.398  19.665  66.415  1.00  0.00    -0.360 S  
HETATM    3  O   UNL     1      -7.814  20.110  67.666  1.00  0.00    -0.293 OA 
HETATM    4  O   UNL     1      -7.780  19.997  65.144  1.00  0.00    -0.234 OA 
ENDROOT
BRANCH   2   5
HETATM    5  C   UNL     1      -8.524  17.893  66.486  1.00  0.00    -0.258 A  
HETATM    6  C   UNL     1      -9.748  17.268  66.223  1.00  0.00    -0.282 A  
HETATM    7  C   UNL     1      -9.867  15.872  66.337  1.00  0.00    -0.282 A  
HETATM    8  C   UNL     1      -8.757  15.097  66.697  1.00  0.00    -0.308 A  
HETATM    9 CL   UNL     1     -11.443  15.216  66.072  1.00  0.00    -0.229 Cl 
HETATM   10  C   UNL     1      -7.521  15.754  66.911  1.00  0.00    -0.204 A  
HETATM   11  C   UNL     1      -7.397  17.140  66.802  1.00  0.00    -0.262 A  
BRANCH   8  12
HETATM   12  C   UNL     1      -8.763  13.629  66.985  1.00  0.00    -0.192 C  
HETATM   13  O   UNL     1      -7.668  13.133  67.250  1.00  0.00    -0.160 OA 
HETATM   14  N   UNL     1      -9.960  12.931  66.911  1.00  0.00    -0.233 N  
HETATM   15  H   UNL     1     -10.784  13.460  66.629  1.00  0.00     0.000 HD 
BRANCH  14  16
HETATM   16  C   UNL     1     -10.148  11.549  67.189  1.00  0.00    -0.197 A  
HETATM   17  C   UNL     1      -9.852  10.546  66.270  1.00  0.00    -0.269 A  
HETATM   18  C   UNL     1     -10.011   9.204  66.603  1.00  0.00    -0.343 A  
HETATM   19  C   UNL     1     -10.497   8.832  67.859  1.00  0.00    -0.216 A  
HETATM   20  C   UNL     1     -10.889   9.805  68.801  1.00  0.00    -0.219 A  
HETATM   21 CL   UNL     1     -10.497   7.124  68.165  1.00  0.00    -0.232 Cl 
HETATM   22  C   UNL     1     -10.658  11.167  68.446  1.00  0.00    -0.223 A  
BRANCH  20  23
HETATM   23  C   UNL     1     -11.537   9.486  70.103  1.00  0.00    -0.111 A  
HETATM   24  C   UNL     1     -12.590  10.235  70.641  1.00  0.00    -0.391 A  
HETATM   25  C   UNL     1     -13.152   9.879  71.865  1.00  0.00    -0.559 A  
HETATM   26  C   UNL     1     -12.624   8.808  72.563  1.00  0.00    -0.375 A  
HETATM   27  C   UNL     1     -11.555   8.135  71.997  1.00  0.00    -0.330 A  
HETATM   28  N   UNL     1     -11.006   8.445  70.796  1.00  0.00    -0.242 NA 
ENDBRANCH  20  23
ENDBRANCH  14  16
ENDBRANCH   8  12
ENDBRANCH   2   5
TORSDOF 4
ENDMDL
MODEL       56
REMARK 921   NORMALIZED FREE ENERGY PREDICTED BY IDOCK:   -5.50 KCAL/MOL
REMARK 922        TOTAL FREE ENERGY PREDICTED BY IDOCK:   -7.41 KCAL/MOL
REMARK 923 INTER-LIGAND FREE ENERGY PREDICTED BY IDOCK:   -6.64 KCAL/MOL
REMARK 924 INTRA-LIGAND FREE ENERGY PREDICTED BY IDOCK:   -0.77 KCAL/MOL
REMARK 927      BINDING AFFINITY PREDICTED BY RF-SCORE:    0.00 PKD
ROOT
HETATM    1  C   UNL     1      -7.704   3.524  67.174  1.00  0.00    -0.079 C  
HETATM    2  S   UNL     1      -8.436   4.241  68.623  1.00  0.00    -0.085 S  
HETATM    3  O   UNL     1      -7.394   4.449  69.611  1.00  0.00    -0.050 OA 
HETATM    4  O   UNL     1      -9.633   3.487  68.950  1.00  0.00    -0.165 OA 
ENDROOT
BRANCH   2   5
HETATM    5  C   UNL     1      -8.966   5.842  68.061  1.00  0.00    -0.118 A  
HETATM    6  C   UNL     1      -8.125   6.950  68.214  1.00  0.00    -0.119 A  
HETATM    7  C   UNL     1      -8.563   8.228  67.826  1.00  0.00    -0.131 A  
HETATM    8  C   UNL     1      -9.837   8.397  67.268  1.00  0.00    -0.264 A  
HETATM    9 CL   UNL     1      -7.477   9.534  68.137  1.00  0.00    -0.078 Cl 
HETATM   10  C   UNL     1     -10.646   7.250  67.083  1.00  0.00    -0.416 A  
HETATM   11  C   UNL     1     -10.218   5.979  67.468  1.00  0.00    -0.225 A  
BRANCH   8  12
HETATM   12  C   UNL     1     -10.487   9.702  66.934  1.00  0.00    -0.212 C  
HETATM   13  O   UNL     1     -11.328  10.101  67.739  1.00  0.00    -0.274 OA 
HETATM   14  N   UNL     1     -10.135  10.350  65.758  1.00  0.00    -0.264 N  
HETATM   15  H   UNL     1      -9.460   9.879  65.157  1.00  0.00     0.000 HD 
BRANCH  14  16
HETATM   16  C   UNL     1     -10.625  11.608  65.310  1.00  0.00    -0.281 A  
HETATM   17  C   UNL     1     -11.419  11.749  64.175  1.00  0.00    -0.409 A  
HETATM   18  C   UNL     1     -11.912  12.995  63.800  1.00  0.00    -0.585 A  
HETATM   19  C   UNL     1     -11.600  14.140  64.538  1.00  0.00    -0.389 A  
HETATM   20  C   UNL     1     -10.736  14.071  65.650  1.00  0.00    -0.306 A  
HETATM   21 CL   UNL     1     -12.410  15.585  64.023  1.00  0.00    -0.105 Cl 
HETATM   22  C   UNL     1     -10.297  12.769  66.038  1.00  0.00    -0.291 A  
BRANCH  20  23
HETATM   23  C   UNL     1     -10.254  15.261  66.402  1.00  0.00    -0.277 A  
HETATM   24  C   UNL     1      -9.210  16.080  65.957  1.00  0.00    -0.375 A  
HETATM   25  C   UNL     1      -8.810  17.182  66.712  1.00  0.00    -0.270 A  
HETATM   26  C   UNL     1      -9.424  17.425  67.927  1.00  0.00    -0.265 A  
HETATM   27  C   UNL     1     -10.419  16.552  68.331  1.00  0.00    -0.307 A  
HETATM   28  N   UNL     1     -10.844  15.488  67.605  1.00  0.00    -0.300 NA 
ENDBRANCH  20  23
ENDBRANCH  14  16
ENDBRANCH   8  12
ENDBRANCH   2   5
TORSDOF 4
ENDMDL
MODEL       57
REMARK 921   NORMALIZED FREE ENERGY PREDICTED BY IDOCK:   -5.49 KCAL/MOL
REMARK 922        TOTAL FREE ENERGY PREDICTED BY IDOCK:   -7.40 KCAL/MOL
REMARK 923 INTER-LIGAND FREE ENERGY PREDICTED BY IDOCK:   -6.98 KCAL/MOL
REMARK 924 INTRA-LIGAND FREE ENERGY PREDICTED BY IDOCK:   -0.42 KCAL/MOL
REMARK 927      BINDING AFFINITY PREDICTED BY RF-SCORE:    0.00 PKD
ROOT
HETATM    1  C   UNL     1      -9.010   5.884  68.632  1.00  0.00    -0.116 C  
HETATM    2  S   UNL     1     -10.604   6.524  68.188  1.00  0.00    -0.281 S  
HETATM    3  O   UNL     1     -11.536   6.224  69.258  1.00  0.00    -0.411 OA 
HETATM    4  O   UNL     1     -10.889   6.131  66.820  1.00  0.00    -0.319 OA 
ENDROOT
BRANCH   2   5
HETATM    5  C   UNL     1     -10.348   8.283  68.181  1.00  0.00    -0.202 A  
HETATM    6  C   UNL     1     -10.708   9.038  67.059  1.00  0.00    -0.185 A  
HETATM    7  C   UNL     1     -10.452  10.419  67.027  1.00  0.00    -0.251 A  
HETATM    8  C   UNL     1      -9.853  11.052  68.123  1.00  0.00    -0.185 A  
HETATM    9 CL   UNL     1     -10.860  11.236  65.560  1.00  0.00    -0.284 Cl 
HETATM   10  C   UNL     1      -9.543  10.270  69.262  1.00  0.00    -0.239 A  
HETATM   11  C   UNL     1      -9.792   8.897  69.300  1.00  0.00    -0.176 A  
BRANCH   8  12
HETATM   12  C   UNL     1      -9.402  12.478  68.181  1.00  0.00    -0.210 C  
HETATM   13  O   UNL     1     -10.190  13.266  68.704  1.00  0.00    -0.232 OA 
HETATM   14  N   UNL     1      -8.175  12.820  67.632  1.00  0.00    -0.162 N  
HETATM   15  H   UNL     1      -7.646  12.073  67.183  1.00  0.00     0.000 HD 
BRANCH  14  16
HETATM   16  C   UNL     1      -7.581  14.113  67.635  1.00  0.00    -0.180 A  
HETATM   17  C   UNL     1      -6.232  14.324  67.906  1.00  0.00    -0.167 A  
HETATM   18  C   UNL     1      -5.686  15.603  67.854  1.00  0.00    -0.154 A  
HETATM   19  C   UNL     1      -6.483  16.710  67.554  1.00  0.00    -0.156 A  
HETATM   20  C   UNL     1      -7.871  16.567  67.348  1.00  0.00    -0.181 A  
HETATM   21 CL   UNL     1      -5.623  18.207  67.386  1.00  0.00    -0.140 Cl 
HETATM   22  C   UNL     1      -8.384  15.236  67.353  1.00  0.00    -0.202 A  
BRANCH  20  23
HETATM   23  C   UNL     1      -8.804  17.711  67.156  1.00  0.00    -0.244 A  
HETATM   24  C   UNL     1      -8.907  18.778  68.055  1.00  0.00    -0.327 A  
HETATM   25  C   UNL     1      -9.801  19.819  67.812  1.00  0.00    -0.520 A  
HETATM   26  C   UNL     1     -10.618  19.759  66.698  1.00  0.00    -0.578 A  
HETATM   27  C   UNL     1     -10.498  18.656  65.871  1.00  0.00    -0.356 A  
HETATM   28  N   UNL     1      -9.619  17.642  66.071  1.00  0.00    -0.526 NA 
ENDBRANCH  20  23
ENDBRANCH  14  16
ENDBRANCH   8  12
ENDBRANCH   2   5
TORSDOF 4
ENDMDL
MODEL       58
REMARK 921   NORMALIZED FREE ENERGY PREDICTED BY IDOCK:   -5.47 KCAL/MOL
REMARK 922        TOTAL FREE ENERGY PREDICTED BY IDOCK:   -7.37 KCAL/MOL
REMARK 923 INTER-LIGAND FREE ENERGY PREDICTED BY IDOCK:   -6.80 KCAL/MOL
REMARK 924 INTRA-LIGAND FREE ENERGY PREDICTED BY IDOCK:   -0.58 KCAL/MOL
REMARK 927      BINDING AFFINITY PREDICTED BY RF-SCORE:    0.00 PKD
ROOT
HETATM    1  C   UNL     1      -7.129  20.166  71.851  1.00  0.00     1.047 C  
HETATM    2  S   UNL     1      -5.993  19.692  70.573  1.00  0.00    -0.197 S  
HETATM    3  O   UNL     1      -5.125  18.651  71.091  1.00  0.00    -0.263 OA 
HETATM    4  O   UNL     1      -5.441  20.898  69.982  1.00  0.00    -0.439 OA 
ENDROOT
BRANCH   2   5
HETATM    5  C   UNL     1      -7.046  18.948  69.349  1.00  0.00    -0.133 A  
HETATM    6  C   UNL     1      -8.235  19.582  68.971  1.00  0.00    -0.235 A  
HETATM    7  C   UNL     1      -9.099  18.968  68.048  1.00  0.00    -0.307 A  
HETATM    8  C   UNL     1      -8.768  17.728  67.488  1.00  0.00    -0.239 A  
HETATM    9 CL   UNL     1     -10.578  19.799  67.718  1.00  0.00    -0.541 Cl 
HETATM   10  C   UNL     1      -7.536  17.133  67.855  1.00  0.00    -0.180 A  
HETATM   11  C   UNL     1      -6.674  17.736  68.772  1.00  0.00    -0.235 A  
BRANCH   8  12
HETATM   12  C   UNL     1      -9.643  16.897  66.603  1.00  0.00    -0.267 C  
HETATM   13  O   UNL     1     -10.155  17.489  65.653  1.00  0.00    -0.574 OA 
HETATM   14  N   UNL     1      -9.842  15.560  66.912  1.00  0.00    -0.233 N  
HETATM   15  H   UNL     1      -9.396  15.212  67.761  1.00  0.00     0.000 HD 
BRANCH  14  16
HETATM   16  C   UNL     1     -10.607  14.625  66.161  1.00  0.00    -0.312 A  
HETATM   17  C   UNL     1     -11.987  14.730  66.007  1.00  0.00    -0.155 A  
HETATM   18  C   UNL     1     -12.689  13.817  65.226  1.00  0.00    -0.481 A  
HETATM   19  C   UNL     1     -12.029  12.757  64.598  1.00  0.00    -0.396 A  
HETATM   20  C   UNL     1     -10.646  12.554  64.783  1.00  0.00    -0.333 A  
HETATM   21 CL   UNL     1     -13.021  11.798  63.547  1.00  0.00    -0.440 Cl 
HETATM   22  C   UNL     1      -9.952  13.543  65.543  1.00  0.00    -0.238 A  
BRANCH  20  23
HETATM   23  C   UNL     1      -9.902  11.377  64.257  1.00  0.00    -0.261 A  
HETATM   24  C   UNL     1      -9.446  10.331  65.067  1.00  0.00    -0.314 A  
HETATM   25  C   UNL     1      -8.756   9.257  64.507  1.00  0.00    -0.218 A  
HETATM   26  C   UNL     1      -8.486   9.264  63.151  1.00  0.00    -0.212 A  
HETATM   27  C   UNL     1      -8.925  10.348  62.412  1.00  0.00    -0.269 A  
HETATM   28  N   UNL     1      -9.620  11.393  62.928  1.00  0.00    -0.371 NA 
ENDBRANCH  20  23
ENDBRANCH  14  16
ENDBRANCH   8  12
ENDBRANCH   2   5
TORSDOF 4
ENDMDL
MODEL       59
REMARK 921   NORMALIZED FREE ENERGY PREDICTED BY IDOCK:   -5.46 KCAL/MOL
REMARK 922        TOTAL FREE ENERGY PREDICTED BY IDOCK:   -7.36 KCAL/MOL
REMARK 923 INTER-LIGAND FREE ENERGY PREDICTED BY IDOCK:   -7.12 KCAL/MOL
REMARK 924 INTRA-LIGAND FREE ENERGY PREDICTED BY IDOCK:   -0.24 KCAL/MOL
REMARK 927      BINDING AFFINITY PREDICTED BY RF-SCORE:    0.00 PKD
ROOT
HETATM    1  C   UNL     1      -8.965   3.785  73.903  1.00  0.00    -0.087 C  
HETATM    2  S   UNL     1      -9.115   4.100  72.163  1.00  0.00    -0.123 S  
HETATM    3  O   UNL     1      -9.996   3.100  71.588  1.00  0.00    -0.165 OA 
HETATM    4  O   UNL     1      -7.786   4.321  71.623  1.00  0.00    -0.074 OA 
ENDROOT
BRANCH   2   5
HETATM    5  C   UNL     1      -9.968   5.658  72.104  1.00  0.00    -0.178 A  
HETATM    6  C   UNL     1     -11.361   5.689  71.967  1.00  0.00    -0.241 A  
HETATM    7  C   UNL     1     -12.032   6.918  71.860  1.00  0.00    -0.327 A  
HETATM    8  C   UNL     1     -11.315   8.120  71.908  1.00  0.00    -0.356 A  
HETATM    9 CL   UNL     1     -13.740   6.836  71.610  1.00  0.00    -0.269 Cl 
HETATM   10  C   UNL     1      -9.913   8.058  72.094  1.00  0.00    -0.289 A  
HETATM   11  C   UNL     1      -9.239   6.840  72.199  1.00  0.00    -0.141 A  
BRANCH   8  12
HETATM   12  C   UNL     1     -11.872   9.489  71.675  1.00  0.00    -0.397 C  
HETATM   13  O   UNL     1     -12.797   9.822  72.416  1.00  0.00    -0.328 OA 
HETATM   14  N   UNL     1     -11.349  10.267  70.651  1.00  0.00    -0.333 N  
HETATM   15  H   UNL     1     -10.617   9.844  70.081  1.00  0.00     0.000 HD 
BRANCH  14  16
HETATM   16  C   UNL     1     -11.733  11.595  70.321  1.00  0.00    -0.266 A  
HETATM   17  C   UNL     1     -12.459  12.409  71.187  1.00  0.00    -0.323 A  
HETATM   18  C   UNL     1     -12.775  13.719  70.838  1.00  0.00    -0.394 A  
HETATM   19  C   UNL     1     -12.394  14.241  69.599  1.00  0.00    -0.266 A  
HETATM   20  C   UNL     1     -11.728  13.438  68.649  1.00  0.00    -0.384 A  
HETATM   21 CL   UNL     1     -12.736  15.927  69.379  1.00  0.00     0.320 Cl 
HETATM   22  C   UNL     1     -11.371  12.121  69.065  1.00  0.00    -0.329 A  
BRANCH  20  23
HETATM   23  C   UNL     1     -11.410  13.882  67.264  1.00  0.00    -0.323 A  
HETATM   24  C   UNL     1     -10.196  14.481  66.909  1.00  0.00    -0.264 A  
HETATM   25  C   UNL     1      -9.964  14.871  65.591  1.00  0.00    -0.389 A  
HETATM   26  C   UNL     1     -10.966  14.703  64.652  1.00  0.00    -0.340 A  
HETATM   27  C   UNL     1     -12.159  14.145  65.077  1.00  0.00    -0.421 A  
HETATM   28  N   UNL     1     -12.401  13.734  66.347  1.00  0.00    -0.434 NA 
ENDBRANCH  20  23
ENDBRANCH  14  16
ENDBRANCH   8  12
ENDBRANCH   2   5
TORSDOF 4
ENDMDL
MODEL       60
REMARK 921   NORMALIZED FREE ENERGY PREDICTED BY IDOCK:   -5.42 KCAL/MOL
REMARK 922        TOTAL FREE ENERGY PREDICTED BY IDOCK:   -7.31 KCAL/MOL
REMARK 923 INTER-LIGAND FREE ENERGY PREDICTED BY IDOCK:   -6.55 KCAL/MOL
REMARK 924 INTRA-LIGAND FREE ENERGY PREDICTED BY IDOCK:   -0.76 KCAL/MOL
REMARK 927      BINDING AFFINITY PREDICTED BY RF-SCORE:    0.00 PKD
ROOT
HETATM    1  C   UNL     1      -8.866  19.976  66.441  1.00  0.00    -0.316 C  
HETATM    2  S   UNL     1      -9.944  19.271  67.661  1.00  0.00    -0.383 S  
HETATM    3  O   UNL     1     -11.283  19.786  67.447  1.00  0.00    -0.244 OA 
HETATM    4  O   UNL     1      -9.302  19.384  68.958  1.00  0.00    -0.373 OA 
ENDROOT
BRANCH   2   5
HETATM    5  C   UNL     1      -9.963  17.544  67.238  1.00  0.00    -0.312 A  
HETATM    6  C   UNL     1     -10.893  16.687  67.838  1.00  0.00    -0.321 A  
HETATM    7  C   UNL     1     -10.872  15.312  67.551  1.00  0.00    -0.304 A  
HETATM    8  C   UNL     1      -9.933  14.793  66.650  1.00  0.00    -0.272 A  
HETATM    9 CL   UNL     1     -12.009  14.336  68.411  1.00  0.00    -0.368 Cl 
HETATM   10  C   UNL     1      -9.036  15.692  66.024  1.00  0.00    -0.346 A  
HETATM   11  C   UNL     1      -9.050  17.059  66.306  1.00  0.00    -0.279 A  
BRANCH   8  12
HETATM   12  C   UNL     1      -9.705  13.345  66.350  1.00  0.00    -0.277 C  
HETATM   13  O   UNL     1     -10.309  12.901  65.373  1.00  0.00    -0.288 OA 
HETATM   14  N   UNL     1      -8.877  12.605  67.182  1.00  0.00    -0.197 N  
HETATM   15  H   UNL     1      -8.483  13.089  67.988  1.00  0.00     0.000 HD 
BRANCH  14  16
HETATM   16  C   UNL     1      -8.525  11.237  67.021  1.00  0.00    -0.150 A  
HETATM   17  C   UNL     1      -7.604  10.801  66.072  1.00  0.00    -0.130 A  
HETATM   18  C   UNL     1      -7.258   9.456  65.980  1.00  0.00    -0.092 A  
HETATM   19  C   UNL     1      -7.845   8.507  66.820  1.00  0.00    -0.091 A  
HETATM   20  C   UNL     1      -8.842   8.878  67.746  1.00  0.00    -0.136 A  
HETATM   21 CL   UNL     1      -7.198   6.903  66.676  1.00  0.00    -0.074 Cl 
HETATM   22  C   UNL     1      -9.129  10.271  67.850  1.00  0.00    -0.133 A  
BRANCH  20  23
HETATM   23  C   UNL     1      -9.605   7.907  68.578  1.00  0.00    -0.150 A  
HETATM   24  C   UNL     1      -9.549   7.883  69.976  1.00  0.00    -0.168 A  
HETATM   25  C   UNL     1     -10.292   6.947  70.693  1.00  0.00    -0.220 A  
HETATM   26  C   UNL     1     -11.045   6.013  70.004  1.00  0.00    -0.451 A  
HETATM   27  C   UNL     1     -11.023   6.063  68.621  1.00  0.00    -0.284 A  
HETATM   28  N   UNL     1     -10.330   6.979  67.900  1.00  0.00    -0.186 NA 
ENDBRANCH  20  23
ENDBRANCH  14  16
ENDBRANCH   8  12
ENDBRANCH   2   5
TORSDOF 4
ENDMDL
MODEL       61
REMARK 921   NORMALIZED FREE ENERGY PREDICTED BY IDOCK:   -5.41 KCAL/MOL
REMARK 922        TOTAL FREE ENERGY PREDICTED BY IDOCK:   -7.30 KCAL/MOL
REMARK 923 INTER-LIGAND FREE ENERGY PREDICTED BY IDOCK:   -7.20 KCAL/MOL
REMARK 924 INTRA-LIGAND FREE ENERGY PREDICTED BY IDOCK:   -0.11 KCAL/MOL
REMARK 927      BINDING AFFINITY PREDICTED BY RF-SCORE:    0.00 PKD
ROOT
HETATM    1  C   UNL     1     -11.052  15.167  64.986  1.00  0.00    -0.419 C  
HETATM    2  S   UNL     1     -12.175  13.835  64.653  1.00  0.00    -0.394 S  
HETATM    3  O   UNL     1     -12.542  13.880  63.250  1.00  0.00    -0.824 OA 
HETATM    4  O   UNL     1     -13.193  13.826  65.689  1.00  0.00    -0.574 OA 
ENDROOT
BRANCH   2   5
HETATM    5  C   UNL     1     -11.173  12.387  64.895  1.00  0.00    -0.311 A  
HETATM    6  C   UNL     1     -10.558  11.771  63.799  1.00  0.00    -0.470 A  
HETATM    7  C   UNL     1      -9.814  10.592  63.978  1.00  0.00    -0.338 A  
HETATM    8  C   UNL     1      -9.668  10.037  65.256  1.00  0.00    -0.373 A  
HETATM    9 CL   UNL     1      -9.170   9.871  62.546  1.00  0.00    -0.305 Cl 
HETATM   10  C   UNL     1     -10.263  10.709  66.351  1.00  0.00    -0.291 A  
HETATM   11  C   UNL     1     -11.005  11.878  66.180  1.00  0.00    -0.352 A  
BRANCH   8  12
HETATM   12  C   UNL     1      -9.024   8.726  65.580  1.00  0.00    -0.181 C  
HETATM   13  O   UNL     1      -7.934   8.521  65.045  1.00  0.00    -0.114 OA 
HETATM   14  N   UNL     1      -9.686   7.835  66.413  1.00  0.00    -0.393 N  
HETATM   15  H   UNL     1     -10.609   8.114  66.744  1.00  0.00     0.000 HD 
BRANCH  14  16
HETATM   16  C   UNL     1      -9.202   6.571  66.850  1.00  0.00    -0.140 A  
HETATM   17  C   UNL     1      -8.557   5.675  66.001  1.00  0.00    -0.137 A  
HETATM   18  C   UNL     1      -8.061   4.467  66.484  1.00  0.00    -0.103 A  
HETATM   19  C   UNL     1      -8.221   4.114  67.826  1.00  0.00    -0.094 A  
HETATM   20  C   UNL     1      -8.934   4.945  68.714  1.00  0.00    -0.132 A  
HETATM   21 CL   UNL     1      -7.420   2.649  68.296  1.00  0.00    -0.048 Cl 
HETATM   22  C   UNL     1      -9.378   6.199  68.197  1.00  0.00    -0.115 A  
BRANCH  20  23
HETATM   23  C   UNL     1      -9.259   4.575  70.119  1.00  0.00    -0.130 A  
HETATM   24  C   UNL     1      -9.547   3.267  70.522  1.00  0.00    -0.218 A  
HETATM   25  C   UNL     1      -9.841   2.990  71.856  1.00  0.00    -0.236 A  
HETATM   26  C   UNL     1      -9.892   4.032  72.764  1.00  0.00    -0.200 A  
HETATM   27  C   UNL     1      -9.640   5.309  72.294  1.00  0.00    -0.152 A  
HETATM   28  N   UNL     1      -9.327   5.601  71.007  1.00  0.00    -0.152 NA 
ENDBRANCH  20  23
ENDBRANCH  14  16
ENDBRANCH   8  12
ENDBRANCH   2   5
TORSDOF 4
ENDMDL
MODEL       62
REMARK 921   NORMALIZED FREE ENERGY PREDICTED BY IDOCK:   -5.40 KCAL/MOL
REMARK 922        TOTAL FREE ENERGY PREDICTED BY IDOCK:   -7.28 KCAL/MOL
REMARK 923 INTER-LIGAND FREE ENERGY PREDICTED BY IDOCK:   -6.94 KCAL/MOL
REMARK 924 INTRA-LIGAND FREE ENERGY PREDICTED BY IDOCK:   -0.35 KCAL/MOL
REMARK 927      BINDING AFFINITY PREDICTED BY RF-SCORE:    0.00 PKD
ROOT
HETATM    1  C   UNL     1      -7.114  18.675  65.650  1.00  0.00    -0.180 C  
HETATM    2  S   UNL     1      -8.419  19.493  66.532  1.00  0.00    -0.354 S  
HETATM    3  O   UNL     1      -9.492  19.786  65.600  1.00  0.00    -0.337 OA 
HETATM    4  O   UNL     1      -7.831  20.543  67.345  1.00  0.00    -0.322 OA 
ENDROOT
BRANCH   2   5
HETATM    5  C   UNL     1      -9.007  18.238  67.645  1.00  0.00    -0.266 A  
HETATM    6  C   UNL     1      -8.101  17.358  68.247  1.00  0.00    -0.249 A  
HETATM    7  C   UNL     1      -8.568  16.327  69.081  1.00  0.00    -0.212 A  
HETATM    8  C   UNL     1      -9.939  16.186  69.328  1.00  0.00    -0.253 A  
HETATM    9 CL   UNL     1      -7.370  15.248  69.703  1.00  0.00    -0.205 Cl 
HETATM   10  C   UNL     1     -10.826  17.120  68.742  1.00  0.00    -0.211 A  
HETATM   11  C   UNL     1     -10.370  18.145  67.911  1.00  0.00    -0.410 A  
BRANCH   8  12
HETATM   12  C   UNL     1     -10.589  15.067  70.079  1.00  0.00    -0.154 C  
HETATM   13  O   UNL     1     -10.944  15.330  71.228  1.00  0.00    -0.318 OA 
HETATM   14  N   UNL     1     -10.722  13.829  69.466  1.00  0.00    -0.446 N  
HETATM   15  H   UNL     1     -10.336  13.737  68.527  1.00  0.00     0.000 HD 
BRANCH  14  16
HETATM   16  C   UNL     1     -11.345  12.677  70.019  1.00  0.00     0.131 A  
HETATM   17  C   UNL     1     -12.420  12.749  70.901  1.00  0.00    -0.373 A  
HETATM   18  C   UNL     1     -13.026  11.593  71.383  1.00  0.00    -0.426 A  
HETATM   19  C   UNL     1     -12.555  10.330  71.013  1.00  0.00    -0.390 A  
HETATM   20  C   UNL     1     -11.421  10.195  70.186  1.00  0.00    -0.368 A  
HETATM   21 CL   UNL     1     -13.509   8.998  71.582  1.00  0.00    -0.417 Cl 
HETATM   22  C   UNL     1     -10.862  11.401  69.667  1.00  0.00    -0.107 A  
BRANCH  20  23
HETATM   23  C   UNL     1     -10.783   8.891  69.858  1.00  0.00    -0.227 A  
HETATM   24  C   UNL     1     -10.643   8.410  68.551  1.00  0.00    -0.149 A  
HETATM   25  C   UNL     1     -10.033   7.179  68.316  1.00  0.00    -0.171 A  
HETATM   26  C   UNL     1      -9.614   6.419  69.393  1.00  0.00    -0.152 A  
HETATM   27  C   UNL     1      -9.821   6.931  70.662  1.00  0.00    -0.182 A  
HETATM   28  N   UNL     1     -10.388   8.136  70.917  1.00  0.00    -0.190 NA 
ENDBRANCH  20  23
ENDBRANCH  14  16
ENDBRANCH   8  12
ENDBRANCH   2   5
TORSDOF 4
ENDMDL
MODEL       63
REMARK 921   NORMALIZED FREE ENERGY PREDICTED BY IDOCK:   -5.37 KCAL/MOL
REMARK 922        TOTAL FREE ENERGY PREDICTED BY IDOCK:   -7.25 KCAL/MOL
REMARK 923 INTER-LIGAND FREE ENERGY PREDICTED BY IDOCK:   -7.19 KCAL/MOL
REMARK 924 INTRA-LIGAND FREE ENERGY PREDICTED BY IDOCK:   -0.05 KCAL/MOL
REMARK 927      BINDING AFFINITY PREDICTED BY RF-SCORE:    0.00 PKD
ROOT
HETATM    1  C   UNL     1     -10.495   3.665  64.278  1.00  0.00    -0.218 C  
HETATM    2  S   UNL     1      -9.146   3.950  65.395  1.00  0.00    -0.152 S  
HETATM    3  O   UNL     1      -7.906   3.904  64.642  1.00  0.00    -0.083 OA 
HETATM    4  O   UNL     1      -9.338   3.113  66.565  1.00  0.00    -0.159 OA 
ENDROOT
BRANCH   2   5
HETATM    5  C   UNL     1      -9.394   5.633  65.911  1.00  0.00    -0.103 A  
HETATM    6  C   UNL     1      -8.508   6.631  65.490  1.00  0.00    -0.135 A  
HETATM    7  C   UNL     1      -8.666   7.952  65.944  1.00  0.00    -0.154 A  
HETATM    8  C   UNL     1      -9.721   8.280  66.806  1.00  0.00    -0.307 A  
HETATM    9 CL   UNL     1      -7.468   9.084  65.429  1.00  0.00    -0.088 Cl 
HETATM   10  C   UNL     1     -10.627   7.258  67.177  1.00  0.00    -0.416 A  
HETATM   11  C   UNL     1     -10.475   5.944  66.731  1.00  0.00    -0.344 A  
BRANCH   8  12
HETATM   12  C   UNL     1      -9.936   9.602  67.472  1.00  0.00    -0.183 C  
HETATM   13  O   UNL     1      -9.728   9.629  68.685  1.00  0.00    -0.150 OA 
HETATM   14  N   UNL     1     -10.373  10.678  66.712  1.00  0.00    -0.236 N  
HETATM   15  H   UNL     1     -10.556  10.500  65.725  1.00  0.00     0.000 HD 
BRANCH  14  16
HETATM   16  C   UNL     1     -10.590  12.005  67.176  1.00  0.00    -0.224 A  
HETATM   17  C   UNL     1     -10.047  13.123  66.547  1.00  0.00    -0.280 A  
HETATM   18  C   UNL     1     -10.323  14.406  67.011  1.00  0.00    -0.263 A  
HETATM   19  C   UNL     1     -11.130  14.602  68.134  1.00  0.00    -0.274 A  
HETATM   20  C   UNL     1     -11.642  13.505  68.859  1.00  0.00    -0.364 A  
HETATM   21 CL   UNL     1     -11.493  16.260  68.493  1.00  0.00    -0.340 Cl 
HETATM   22  C   UNL     1     -11.385  12.209  68.320  1.00  0.00    -0.343 A  
BRANCH  20  23
HETATM   23  C   UNL     1     -12.395  13.633  70.136  1.00  0.00    -0.304 A  
HETATM   24  C   UNL     1     -12.444  12.623  71.104  1.00  0.00    -0.326 A  
HETATM   25  C   UNL     1     -13.169  12.811  72.280  1.00  0.00    -0.491 A  
HETATM   26  C   UNL     1     -13.877  13.986  72.454  1.00  0.00    -0.653 A  
HETATM   27  C   UNL     1     -13.823  14.926  71.441  1.00  0.00    -0.459 A  
HETATM   28  N   UNL     1     -13.106  14.779  70.299  1.00  0.00    -0.146 NA 
ENDBRANCH  20  23
ENDBRANCH  14  16
ENDBRANCH   8  12
ENDBRANCH   2   5
TORSDOF 4
ENDMDL
MODEL       64
REMARK 921   NORMALIZED FREE ENERGY PREDICTED BY IDOCK:   -5.29 KCAL/MOL
REMARK 922        TOTAL FREE ENERGY PREDICTED BY IDOCK:   -7.15 KCAL/MOL
REMARK 923 INTER-LIGAND FREE ENERGY PREDICTED BY IDOCK:   -7.18 KCAL/MOL
REMARK 924 INTRA-LIGAND FREE ENERGY PREDICTED BY IDOCK:    0.02 KCAL/MOL
REMARK 927      BINDING AFFINITY PREDICTED BY RF-SCORE:    0.00 PKD
ROOT
HETATM    1  C   UNL     1     -11.906  15.362  72.615  1.00  0.00    -0.463 C  
HETATM    2  S   UNL     1     -13.302  14.631  71.799  1.00  0.00    -0.394 S  
HETATM    3  O   UNL     1     -13.838  15.592  70.854  1.00  0.00    -0.516 OA 
HETATM    4  O   UNL     1     -14.152  14.022  72.807  1.00  0.00    -0.636 OA 
ENDROOT
BRANCH   2   5
HETATM    5  C   UNL     1     -12.577  13.307  70.860  1.00  0.00    -0.306 A  
HETATM    6  C   UNL     1     -11.926  13.582  69.652  1.00  0.00    -0.397 A  
HETATM    7  C   UNL     1     -11.405  12.532  68.877  1.00  0.00    -0.297 A  
HETATM    8  C   UNL     1     -11.517  11.207  69.317  1.00  0.00    -0.363 A  
HETATM    9 CL   UNL     1     -10.697  12.979  67.365  1.00  0.00    -0.249 Cl 
HETATM   10  C   UNL     1     -12.139  10.965  70.565  1.00  0.00    -0.464 A  
HETATM   11  C   UNL     1     -12.661  12.003  71.339  1.00  0.00    -0.380 A  
BRANCH   8  12
HETATM   12  C   UNL     1     -11.132   9.986  68.543  1.00  0.00    -0.167 C  
HETATM   13  O   UNL     1     -11.176  10.094  67.318  1.00  0.00    -0.218 OA 
HETATM   14  N   UNL     1     -10.788   8.831  69.231  1.00  0.00    -0.399 N  
HETATM   15  H   UNL     1     -10.845   8.867  70.249  1.00  0.00     0.000 HD 
BRANCH  14  16
HETATM   16  C   UNL     1     -10.364   7.602  68.656  1.00  0.00    -0.200 A  
HETATM   17  C   UNL     1     -10.469   7.328  67.295  1.00  0.00    -0.380 A  
HETATM   18  C   UNL     1     -10.000   6.128  66.770  1.00  0.00    -0.218 A  
HETATM   19  C   UNL     1      -9.434   5.157  67.601  1.00  0.00    -0.127 A  
HETATM   20  C   UNL     1      -9.373   5.345  68.997  1.00  0.00    -0.163 A  
HETATM   21 CL   UNL     1      -8.768   3.786  66.773  1.00  0.00    -0.112 Cl 
HETATM   22  C   UNL     1      -9.812   6.609  69.491  1.00  0.00    -0.162 A  
BRANCH  20  23
HETATM   23  C   UNL     1      -8.908   4.305  69.955  1.00  0.00    -0.081 A  
HETATM   24  C   UNL     1      -9.779   3.466  70.660  1.00  0.00    -0.176 A  
HETATM   25  C   UNL     1      -9.274   2.511  71.542  1.00  0.00    -0.180 A  
HETATM   26  C   UNL     1      -7.908   2.437  71.746  1.00  0.00    -0.048 A  
HETATM   27  C   UNL     1      -7.105   3.324  71.051  1.00  0.00    -0.033 A  
HETATM   28  N   UNL     1      -7.568   4.245  70.170  1.00  0.00    -0.046 NA 
ENDBRANCH  20  23
ENDBRANCH  14  16
ENDBRANCH   8  12
ENDBRANCH   2   5
TORSDOF 4
ENDMDL
MODEL       65
REMARK 921   NORMALIZED FREE ENERGY PREDICTED BY IDOCK:   -5.29 KCAL/MOL
REMARK 922        TOTAL FREE ENERGY PREDICTED BY IDOCK:   -7.15 KCAL/MOL
REMARK 923 INTER-LIGAND FREE ENERGY PREDICTED BY IDOCK:   -6.67 KCAL/MOL
REMARK 924 INTRA-LIGAND FREE ENERGY PREDICTED BY IDOCK:   -0.48 KCAL/MOL
REMARK 927      BINDING AFFINITY PREDICTED BY RF-SCORE:    0.00 PKD
ROOT
HETATM    1  C   UNL     1      -8.341  18.728  67.919  1.00  0.00    -0.276 C  
HETATM    2  S   UNL     1      -8.873  18.011  66.386  1.00  0.00    -0.186 S  
HETATM    3  O   UNL     1      -7.723  17.893  65.509  1.00  0.00    -0.505 OA 
HETATM    4  O   UNL     1     -10.074  18.701  65.951  1.00  0.00    -0.522 OA 
ENDROOT
BRANCH   2   5
HETATM    5  C   UNL     1      -9.358  16.365  66.853  1.00  0.00    -0.227 A  
HETATM    6  C   UNL     1      -9.546  15.386  65.871  1.00  0.00    -0.386 A  
HETATM    7  C   UNL     1      -9.987  14.102  66.231  1.00  0.00    -0.303 A  
HETATM    8  C   UNL     1     -10.224  13.788  67.576  1.00  0.00    -0.241 A  
HETATM    9 CL   UNL     1     -10.266  12.999  64.931  1.00  0.00    -0.317 Cl 
HETATM   10  C   UNL     1      -9.981  14.786  68.550  1.00  0.00    -0.228 A  
HETATM   11  C   UNL     1      -9.544  16.064  68.200  1.00  0.00    -0.209 A  
BRANCH   8  12
HETATM   12  C   UNL     1     -10.818  12.516  68.093  1.00  0.00    -0.222 C  
HETATM   13  O   UNL     1     -11.936  12.234  67.660  1.00  0.00    -0.494 OA 
HETATM   14  N   UNL     1     -10.109  11.768  69.022  1.00  0.00    -0.416 N  
HETATM   15  H   UNL     1      -9.215  12.148  69.333  1.00  0.00     0.000 HD 
BRANCH  14  16
HETATM   16  C   UNL     1     -10.508  10.524  69.584  1.00  0.00    -0.219 A  
HETATM   17  C   UNL     1     -11.803  10.278  70.031  1.00  0.00    -0.305 A  
HETATM   18  C   UNL     1     -12.159   9.030  70.533  1.00  0.00     0.028 A  
HETATM   19  C   UNL     1     -11.218   8.001  70.626  1.00  0.00    -0.261 A  
HETATM   20  C   UNL     1      -9.872   8.216  70.263  1.00  0.00    -0.184 A  
HETATM   21 CL   UNL     1     -11.856   6.470  71.134  1.00  0.00    -0.398 Cl 
HETATM   22  C   UNL     1      -9.559   9.489  69.700  1.00  0.00    -0.216 A  
BRANCH  20  23
HETATM   23  C   UNL     1      -8.789   7.214  70.457  1.00  0.00    -0.154 A  
HETATM   24  C   UNL     1      -8.077   7.075  71.654  1.00  0.00    -0.103 A  
HETATM   25  C   UNL     1      -7.075   6.112  71.768  1.00  0.00    -0.085 A  
HETATM   26  C   UNL     1      -6.762   5.332  70.669  1.00  0.00    -0.043 A  
HETATM   27  C   UNL     1      -7.474   5.549  69.502  1.00  0.00    -0.070 A  
HETATM   28  N   UNL     1      -8.470   6.461  69.373  1.00  0.00    -0.125 NA 
ENDBRANCH  20  23
ENDBRANCH  14  16
ENDBRANCH   8  12
ENDBRANCH   2   5
TORSDOF 4
ENDMDL
MODEL       66
REMARK 921   NORMALIZED FREE ENERGY PREDICTED BY IDOCK:   -5.26 KCAL/MOL
REMARK 922        TOTAL FREE ENERGY PREDICTED BY IDOCK:   -7.12 KCAL/MOL
REMARK 923 INTER-LIGAND FREE ENERGY PREDICTED BY IDOCK:   -6.46 KCAL/MOL
REMARK 924 INTRA-LIGAND FREE ENERGY PREDICTED BY IDOCK:   -0.66 KCAL/MOL
REMARK 927      BINDING AFFINITY PREDICTED BY RF-SCORE:    0.00 PKD
ROOT
HETATM    1  C   UNL     1      -8.627   2.897  68.405  1.00  0.00    -0.087 C  
HETATM    2  S   UNL     1      -8.718   3.880  66.930  1.00  0.00    -0.118 S  
HETATM    3  O   UNL     1      -9.932   3.530  66.217  1.00  0.00    -0.015 OA 
HETATM    4  O   UNL     1      -7.426   3.832  66.270  1.00  0.00    -0.078 OA 
ENDROOT
BRANCH   2   5
HETATM    5  C   UNL     1      -8.923   5.532  67.554  1.00  0.00    -0.107 A  
HETATM    6  C   UNL     1      -9.862   5.787  68.561  1.00  0.00    -0.177 A  
HETATM    7  C   UNL     1     -10.069   7.101  69.014  1.00  0.00    -0.183 A  
HETATM    8  C   UNL     1      -9.327   8.159  68.475  1.00  0.00    -0.138 A  
HETATM    9 CL   UNL     1     -11.310   7.312  70.198  1.00  0.00    -0.267 Cl 
HETATM   10  C   UNL     1      -8.353   7.863  67.491  1.00  0.00    -0.124 A  
HETATM   11  C   UNL     1      -8.143   6.561  67.035  1.00  0.00    -0.113 A  
BRANCH   8  12
HETATM   12  C   UNL     1      -9.530   9.614  68.760  1.00  0.00    -0.148 C  
HETATM   13  O   UNL     1      -8.923  10.056  69.735  1.00  0.00    -0.207 OA 
HETATM   14  N   UNL     1     -10.386  10.348  67.951  1.00  0.00    -0.179 N  
HETATM   15  H   UNL     1     -10.865   9.840  67.208  1.00  0.00     0.000 HD 
BRANCH  14  16
HETATM   16  C   UNL     1     -10.661  11.739  68.058  1.00  0.00    -0.206 A  
HETATM   17  C   UNL     1     -10.366  12.647  67.045  1.00  0.00    -0.241 A  
HETATM   18  C   UNL     1     -10.694  13.993  67.177  1.00  0.00    -0.283 A  
HETATM   19  C   UNL     1     -11.304  14.471  68.340  1.00  0.00    -0.289 A  
HETATM   20  C   UNL     1     -11.554  13.613  69.430  1.00  0.00    -0.368 A  
HETATM   21 CL   UNL     1     -11.777  16.139  68.284  1.00  0.00    -0.200 Cl 
HETATM   22  C   UNL     1     -11.257  12.231  69.237  1.00  0.00    -0.275 A  
BRANCH  20  23
HETATM   23  C   UNL     1     -12.076  14.073  70.746  1.00  0.00    -0.345 A  
HETATM   24  C   UNL     1     -11.422  15.018  71.545  1.00  0.00    -0.377 A  
HETATM   25  C   UNL     1     -11.969  15.406  72.766  1.00  0.00    -0.552 A  
HETATM   26  C   UNL     1     -13.139  14.809  73.201  1.00  0.00    -0.598 A  
HETATM   27  C   UNL     1     -13.713  13.849  72.385  1.00  0.00    -0.576 A  
HETATM   28  N   UNL     1     -13.215  13.473  71.181  1.00  0.00    -0.207 NA 
ENDBRANCH  20  23
ENDBRANCH  14  16
ENDBRANCH   8  12
ENDBRANCH   2   5
TORSDOF 4
ENDMDL
MODEL       67
REMARK 921   NORMALIZED FREE ENERGY PREDICTED BY IDOCK:   -5.26 KCAL/MOL
REMARK 922        TOTAL FREE ENERGY PREDICTED BY IDOCK:   -7.11 KCAL/MOL
REMARK 923 INTER-LIGAND FREE ENERGY PREDICTED BY IDOCK:   -6.30 KCAL/MOL
REMARK 924 INTRA-LIGAND FREE ENERGY PREDICTED BY IDOCK:   -0.81 KCAL/MOL
REMARK 927      BINDING AFFINITY PREDICTED BY RF-SCORE:    0.00 PKD
ROOT
HETATM    1  C   UNL     1      -8.532  19.208  66.884  1.00  0.00    -0.294 C  
HETATM    2  S   UNL     1     -10.304  19.116  66.908  1.00  0.00    -0.447 S  
HETATM    3  O   UNL     1     -10.804  19.520  65.607  1.00  0.00    -0.458 OA 
HETATM    4  O   UNL     1     -10.778  19.758  68.121  1.00  0.00    -0.342 OA 
ENDROOT
BRANCH   2   5
HETATM    5  C   UNL     1     -10.618  17.375  67.083  1.00  0.00    -0.264 A  
HETATM    6  C   UNL     1     -11.235  16.889  68.241  1.00  0.00    -0.105 A  
HETATM    7  C   UNL     1     -11.431  15.507  68.410  1.00  0.00    -0.363 A  
HETATM    8  C   UNL     1     -11.026  14.611  67.412  1.00  0.00    -0.309 A  
HETATM    9 CL   UNL     1     -12.124  15.013  69.913  1.00  0.00    -0.360 Cl 
HETATM   10  C   UNL     1     -10.447  15.137  66.232  1.00  0.00    -0.312 A  
HETATM   11  C   UNL     1     -10.248  16.507  66.059  1.00  0.00    -0.372 A  
BRANCH   8  12
HETATM   12  C   UNL     1     -11.047  13.118  67.507  1.00  0.00    -0.271 C  
HETATM   13  O   UNL     1     -12.060  12.570  67.071  1.00  0.00    -0.521 OA 
HETATM   14  N   UNL     1      -9.972  12.463  68.090  1.00  0.00    -0.211 N  
HETATM   15  H   UNL     1      -9.221  13.047  68.456  1.00  0.00     0.000 HD 
BRANCH  14  16
HETATM   16  C   UNL     1      -9.814  11.056  68.225  1.00  0.00    -0.178 A  
HETATM   17  C   UNL     1     -10.390  10.328  69.262  1.00  0.00    -0.250 A  
HETATM   18  C   UNL     1     -10.245   8.945  69.329  1.00  0.00    -0.214 A  
HETATM   19  C   UNL     1      -9.497   8.257  68.371  1.00  0.00    -0.139 A  
HETATM   20  C   UNL     1      -8.825   8.950  67.343  1.00  0.00    -0.136 A  
HETATM   21 CL   UNL     1      -9.537   6.529  68.515  1.00  0.00    -0.124 Cl 
HETATM   22  C   UNL     1      -9.043  10.358  67.274  1.00  0.00    -0.146 A  
BRANCH  20  23
HETATM   23  C   UNL     1      -7.905   8.302  66.368  1.00  0.00    -0.095 A  
HETATM   24  C   UNL     1      -6.523   8.204  66.565  1.00  0.00    -0.055 A  
HETATM   25  C   UNL     1      -5.720   7.581  65.611  1.00  0.00    -0.037 A  
HETATM   26  C   UNL     1      -6.299   7.107  64.448  1.00  0.00    -0.037 A  
HETATM   27  C   UNL     1      -7.665   7.275  64.294  1.00  0.00    -0.124 A  
HETATM   28  N   UNL     1      -8.472   7.853  65.218  1.00  0.00    -0.134 NA 
ENDBRANCH  20  23
ENDBRANCH  14  16
ENDBRANCH   8  12
ENDBRANCH   2   5
TORSDOF 4
ENDMDL
MODEL       68
REMARK 921   NORMALIZED FREE ENERGY PREDICTED BY IDOCK:   -5.26 KCAL/MOL
REMARK 922        TOTAL FREE ENERGY PREDICTED BY IDOCK:   -7.11 KCAL/MOL
REMARK 923 INTER-LIGAND FREE ENERGY PREDICTED BY IDOCK:   -6.41 KCAL/MOL
REMARK 924 INTRA-LIGAND FREE ENERGY PREDICTED BY IDOCK:   -0.70 KCAL/MOL
REMARK 927      BINDING AFFINITY PREDICTED BY RF-SCORE:    0.00 PKD
ROOT
HETATM    1  C   UNL     1      -8.964   2.959  66.054  1.00  0.00    -0.146 C  
HETATM    2  S   UNL     1      -9.433   4.335  65.037  1.00  0.00    -0.177 S  
HETATM    3  O   UNL     1     -10.761   4.085  64.508  1.00  0.00    -0.269 OA 
HETATM    4  O   UNL     1      -8.326   4.647  64.151  1.00  0.00    -0.107 OA 
ENDROOT
BRANCH   2   5
HETATM    5  C   UNL     1      -9.565   5.674  66.198  1.00  0.00    -0.120 A  
HETATM    6  C   UNL     1     -10.292   5.504  67.382  1.00  0.00    -0.279 A  
HETATM    7  C   UNL     1     -10.448   6.578  68.274  1.00  0.00    -0.219 A  
HETATM    8  C   UNL     1      -9.863   7.819  67.994  1.00  0.00    -0.192 A  
HETATM    9 CL   UNL     1     -11.435   6.280  69.661  1.00  0.00    -0.498 Cl 
HETATM   10  C   UNL     1      -9.095   7.947  66.812  1.00  0.00    -0.189 A  
HETATM   11  C   UNL     1      -8.937   6.885  65.920  1.00  0.00    -0.092 A  
BRANCH   8  12
HETATM   12  C   UNL     1     -10.053   9.080  68.776  1.00  0.00    -0.199 C  
HETATM   13  O   UNL     1      -9.538   9.097  69.894  1.00  0.00    -0.172 OA 
HETATM   14  N   UNL     1     -10.798  10.112  68.224  1.00  0.00    -0.242 N  
HETATM   15  H   UNL     1     -11.211   9.942  67.307  1.00  0.00     0.000 HD 
BRANCH  14  16
HETATM   16  C   UNL     1     -11.043  11.384  68.811  1.00  0.00    -0.235 A  
HETATM   17  C   UNL     1     -11.779  11.546  69.982  1.00  0.00    -0.414 A  
HETATM   18  C   UNL     1     -11.955  12.807  70.545  1.00  0.00    -0.277 A  
HETATM   19  C   UNL     1     -11.419  13.944  69.935  1.00  0.00    -0.183 A  
HETATM   20  C   UNL     1     -10.733  13.850  68.706  1.00  0.00    -0.278 A  
HETATM   21 CL   UNL     1     -11.603  15.413  70.838  1.00  0.00    -0.351 Cl 
HETATM   22  C   UNL     1     -10.523  12.537  68.190  1.00  0.00    -0.238 A  
BRANCH  20  23
HETATM   23  C   UNL     1     -10.252  15.028  67.933  1.00  0.00    -0.228 A  
HETATM   24  C   UNL     1     -10.911  15.527  66.803  1.00  0.00    -0.291 A  
HETATM   25  C   UNL     1     -10.405  16.635  66.127  1.00  0.00    -0.340 A  
HETATM   26  C   UNL     1      -9.220  17.204  66.557  1.00  0.00    -0.289 A  
HETATM   27  C   UNL     1      -8.594  16.636  67.653  1.00  0.00    -0.200 A  
HETATM   28  N   UNL     1      -9.078  15.574  68.344  1.00  0.00    -0.185 NA 
ENDBRANCH  20  23
ENDBRANCH  14  16
ENDBRANCH   8  12
ENDBRANCH   2   5
TORSDOF 4
ENDMDL
MODEL       69
REMARK 921   NORMALIZED FREE ENERGY PREDICTED BY IDOCK:   -5.19 KCAL/MOL
REMARK 922        TOTAL FREE ENERGY PREDICTED BY IDOCK:   -7.02 KCAL/MOL
REMARK 923 INTER-LIGAND FREE ENERGY PREDICTED BY IDOCK:   -6.47 KCAL/MOL
REMARK 924 INTRA-LIGAND FREE ENERGY PREDICTED BY IDOCK:   -0.56 KCAL/MOL
REMARK 927      BINDING AFFINITY PREDICTED BY RF-SCORE:    0.00 PKD
ROOT
HETATM    1  C   UNL     1      -6.994   6.278  63.421  1.00  0.00    -0.046 C  
HETATM    2  S   UNL     1      -7.783   6.356  65.007  1.00  0.00    -0.105 S  
HETATM    3  O   UNL     1      -6.758   6.336  66.034  1.00  0.00    -0.049 OA 
HETATM    4  O   UNL     1      -8.872   5.395  65.024  1.00  0.00    -0.150 OA 
ENDROOT
BRANCH   2   5
HETATM    5  C   UNL     1      -8.517   7.975  65.017  1.00  0.00    -0.071 A  
HETATM    6  C   UNL     1      -8.435   8.787  63.880  1.00  0.00    -0.110 A  
HETATM    7  C   UNL     1      -8.961  10.089  63.904  1.00  0.00    -0.242 A  
HETATM    8  C   UNL     1      -9.586  10.577  65.059  1.00  0.00    -0.331 A  
HETATM    9 CL   UNL     1      -8.731  11.031  62.474  1.00  0.00    -0.324 Cl 
HETATM   10  C   UNL     1      -9.694   9.716  66.177  1.00  0.00    -0.317 A  
HETATM   11  C   UNL     1      -9.172   8.422  66.161  1.00  0.00    -0.263 A  
BRANCH   8  12
HETATM   12  C   UNL     1     -10.070  11.976  65.275  1.00  0.00    -0.260 C  
HETATM   13  O   UNL     1     -11.034  12.319  64.591  1.00  0.00    -0.284 OA 
HETATM   14  N   UNL     1      -9.406  12.787  66.185  1.00  0.00    -0.428 N  
HETATM   15  H   UNL     1      -8.589  12.389  66.646  1.00  0.00     0.000 HD 
BRANCH  14  16
HETATM   16  C   UNL     1      -9.755  14.120  66.537  1.00  0.00    -0.295 A  
HETATM   17  C   UNL     1     -11.060  14.507  66.831  1.00  0.00    -0.325 A  
HETATM   18  C   UNL     1     -11.348  15.813  67.214  1.00  0.00    -0.059 A  
HETATM   19  C   UNL     1     -10.338  16.776  67.288  1.00  0.00    -0.304 A  
HETATM   20  C   UNL     1      -9.012  16.462  66.926  1.00  0.00    -0.240 A  
HETATM   21 CL   UNL     1     -10.838  18.312  67.921  1.00  0.00    -0.326 Cl 
HETATM   22  C   UNL     1      -8.745  15.101  66.594  1.00  0.00    -0.308 A  
BRANCH  20  23
HETATM   23  C   UNL     1      -7.913  17.464  66.852  1.00  0.00    -0.227 A  
HETATM   24  C   UNL     1      -7.244  17.956  67.979  1.00  0.00    -0.220 A  
HETATM   25  C   UNL     1      -6.222  18.892  67.837  1.00  0.00    -0.207 A  
HETATM   26  C   UNL     1      -5.911  19.364  66.574  1.00  0.00    -0.171 A  
HETATM   27  C   UNL     1      -6.639  18.871  65.506  1.00  0.00    -0.275 A  
HETATM   28  N   UNL     1      -7.621  17.941  65.614  1.00  0.00    -0.527 NA 
ENDBRANCH  20  23
ENDBRANCH  14  16
ENDBRANCH   8  12
ENDBRANCH   2   5
TORSDOF 4
ENDMDL
MODEL       70
REMARK 921   NORMALIZED FREE ENERGY PREDICTED BY IDOCK:   -5.19 KCAL/MOL
REMARK 922        TOTAL FREE ENERGY PREDICTED BY IDOCK:   -7.02 KCAL/MOL
REMARK 923 INTER-LIGAND FREE ENERGY PREDICTED BY IDOCK:   -6.43 KCAL/MOL
REMARK 924 INTRA-LIGAND FREE ENERGY PREDICTED BY IDOCK:   -0.59 KCAL/MOL
REMARK 927      BINDING AFFINITY PREDICTED BY RF-SCORE:    0.00 PKD
ROOT
HETATM    1  C   UNL     1     -10.429   7.111  68.055  1.00  0.00    -0.201 C  
HETATM    2  S   UNL     1      -9.379   7.937  69.222  1.00  0.00    -0.147 S  
HETATM    3  O   UNL     1      -8.005   7.554  68.957  1.00  0.00    -0.117 OA 
HETATM    4  O   UNL     1      -9.954   7.779  70.546  1.00  0.00    -0.187 OA 
ENDROOT
BRANCH   2   5
HETATM    5  C   UNL     1      -9.550   9.650  68.781  1.00  0.00    -0.152 A  
HETATM    6  C   UNL     1      -8.412  10.420  68.514  1.00  0.00    -0.129 A  
HETATM    7  C   UNL     1      -8.539  11.789  68.223  1.00  0.00    -0.162 A  
HETATM    8  C   UNL     1      -9.805  12.387  68.182  1.00  0.00    -0.213 A  
HETATM    9 CL   UNL     1      -7.065  12.661  67.994  1.00  0.00    -0.091 Cl 
HETATM   10  C   UNL     1     -10.940  11.572  68.410  1.00  0.00    -0.267 A  
HETATM   11  C   UNL     1     -10.821  10.213  68.701  1.00  0.00    -0.272 A  
BRANCH   8  12
HETATM   12  C   UNL     1     -10.086  13.848  68.019  1.00  0.00    -0.244 C  
HETATM   13  O   UNL     1     -11.004  14.295  68.706  1.00  0.00    -0.238 OA 
HETATM   14  N   UNL     1      -9.337  14.582  67.110  1.00  0.00    -0.209 N  
HETATM   15  H   UNL     1      -8.641  14.071  66.568  1.00  0.00     0.000 HD 
BRANCH  14  16
HETATM   16  C   UNL     1      -9.447  15.978  66.860  1.00  0.00    -0.226 A  
HETATM   17  C   UNL     1     -10.418  16.522  66.024  1.00  0.00    -0.320 A  
HETATM   18  C   UNL     1     -10.514  17.899  65.844  1.00  0.00    -0.253 A  
HETATM   19  C   UNL     1      -9.623  18.767  66.479  1.00  0.00    -0.348 A  
HETATM   20  C   UNL     1      -8.570  18.269  67.274  1.00  0.00    -0.254 A  
HETATM   21 CL   UNL     1      -9.970  20.454  66.267  1.00  0.00    -0.444 Cl 
HETATM   22  C   UNL     1      -8.538  16.858  67.480  1.00  0.00    -0.211 A  
BRANCH  20  23
HETATM   23  C   UNL     1      -7.506  19.122  67.871  1.00  0.00    -0.259 A  
HETATM   24  C   UNL     1      -6.576  19.838  67.108  1.00  0.00    -0.219 A  
HETATM   25  C   UNL     1      -5.606  20.619  67.734  1.00  0.00    -0.275 A  
HETATM   26  C   UNL     1      -5.545  20.639  69.115  1.00  0.00    -0.394 A  
HETATM   27  C   UNL     1      -6.465  19.875  69.811  1.00  0.00    -0.356 A  
HETATM   28  N   UNL     1      -7.434  19.126  69.228  1.00  0.00    -0.246 NA 
ENDBRANCH  20  23
ENDBRANCH  14  16
ENDBRANCH   8  12
ENDBRANCH   2   5
TORSDOF 4
ENDMDL
MODEL       71
REMARK 921   NORMALIZED FREE ENERGY PREDICTED BY IDOCK:   -5.18 KCAL/MOL
REMARK 922        TOTAL FREE ENERGY PREDICTED BY IDOCK:   -7.02 KCAL/MOL
REMARK 923 INTER-LIGAND FREE ENERGY PREDICTED BY IDOCK:   -6.27 KCAL/MOL
REMARK 924 INTRA-LIGAND FREE ENERGY PREDICTED BY IDOCK:   -0.75 KCAL/MOL
REMARK 927      BINDING AFFINITY PREDICTED BY RF-SCORE:    0.00 PKD
ROOT
HETATM    1  C   UNL     1      -8.540  18.312  66.409  1.00  0.00    -0.242 C  
HETATM    2  S   UNL     1     -10.208  17.711  66.373  1.00  0.00    -0.348 S  
HETATM    3  O   UNL     1     -10.759  17.961  65.054  1.00  0.00    -0.653 OA 
HETATM    4  O   UNL     1     -10.889  18.181  67.566  1.00  0.00    -0.389 OA 
ENDROOT
BRANCH   2   5
HETATM    5  C   UNL     1     -10.011  15.952  66.543  1.00  0.00    -0.272 A  
HETATM    6  C   UNL     1     -11.084  15.098  66.265  1.00  0.00    -0.309 A  
HETATM    7  C   UNL     1     -10.950  13.712  66.457  1.00  0.00    -0.295 A  
HETATM    8  C   UNL     1      -9.738  13.177  66.909  1.00  0.00    -0.243 A  
HETATM    9 CL   UNL     1     -12.363  12.762  66.163  1.00  0.00    -0.332 Cl 
HETATM   10  C   UNL     1      -8.656  14.061  67.137  1.00  0.00    -0.220 A  
HETATM   11  C   UNL     1      -8.783  15.439  66.951  1.00  0.00    -0.285 A  
BRANCH   8  12
HETATM   12  C   UNL     1      -9.489  11.749  67.283  1.00  0.00    -0.170 C  
HETATM   13  O   UNL     1      -8.756  11.118  66.523  1.00  0.00    -0.162 OA 
HETATM   14  N   UNL     1     -10.105  11.230  68.413  1.00  0.00    -0.188 N  
HETATM   15  H   UNL     1     -10.730  11.853  68.924  1.00  0.00     0.000 HD 
BRANCH  14  16
HETATM   16  C   UNL     1      -9.949   9.914  68.930  1.00  0.00    -0.181 A  
HETATM   17  C   UNL     1     -10.607   8.810  68.394  1.00  0.00    -0.185 A  
HETATM   18  C   UNL     1     -10.389   7.534  68.905  1.00  0.00    -0.220 A  
HETATM   19  C   UNL     1      -9.524   7.333  69.983  1.00  0.00    -0.161 A  
HETATM   20  C   UNL     1      -8.891   8.422  70.617  1.00  0.00    -0.161 A  
HETATM   21 CL   UNL     1      -9.251   5.671  70.402  1.00  0.00    -0.169 Cl 
HETATM   22  C   UNL     1      -9.094   9.707  70.030  1.00  0.00    -0.269 A  
BRANCH  20  23
HETATM   23  C   UNL     1      -8.065   8.301  71.849  1.00  0.00    -0.141 A  
HETATM   24  C   UNL     1      -6.686   8.541  71.876  1.00  0.00    -0.085 A  
HETATM   25  C   UNL     1      -5.973   8.410  73.067  1.00  0.00    -0.077 A  
HETATM   26  C   UNL     1      -6.637   7.993  74.207  1.00  0.00    -0.133 A  
HETATM   27  C   UNL     1      -7.991   7.729  74.103  1.00  0.00    -0.206 A  
HETATM   28  N   UNL     1      -8.713   7.872  72.964  1.00  0.00    -0.179 NA 
ENDBRANCH  20  23
ENDBRANCH  14  16
ENDBRANCH   8  12
ENDBRANCH   2   5
TORSDOF 4
ENDMDL
MODEL       72
REMARK 921   NORMALIZED FREE ENERGY PREDICTED BY IDOCK:   -5.17 KCAL/MOL
REMARK 922        TOTAL FREE ENERGY PREDICTED BY IDOCK:   -7.00 KCAL/MOL
REMARK 923 INTER-LIGAND FREE ENERGY PREDICTED BY IDOCK:   -6.60 KCAL/MOL
REMARK 924 INTRA-LIGAND FREE ENERGY PREDICTED BY IDOCK:   -0.40 KCAL/MOL
REMARK 927      BINDING AFFINITY PREDICTED BY RF-SCORE:    0.00 PKD
ROOT
HETATM    1  C   UNL     1     -12.185  15.112  72.931  1.00  0.00    -0.386 C  
HETATM    2  S   UNL     1     -13.536  14.552  71.927  1.00  0.00    -0.439 S  
HETATM    3  O   UNL     1     -14.194  15.711  71.353  1.00  0.00    -0.535 OA 
HETATM    4  O   UNL     1     -14.289  13.567  72.683  1.00  0.00    -0.716 OA 
ENDROOT
BRANCH   2   5
HETATM    5  C   UNL     1     -12.728  13.686  70.602  1.00  0.00    -0.233 A  
HETATM    6  C   UNL     1     -12.445  14.350  69.403  1.00  0.00    -0.113 A  
HETATM    7  C   UNL     1     -11.860  13.653  68.332  1.00  0.00    -0.372 A  
HETATM    8  C   UNL     1     -11.541  12.296  68.464  1.00  0.00    -0.359 A  
HETATM    9 CL   UNL     1     -11.633  14.549  66.872  1.00  0.00    -0.386 Cl 
HETATM   10  C   UNL     1     -11.796  11.664  69.705  1.00  0.00    -0.419 A  
HETATM   11  C   UNL     1     -12.379  12.349  70.772  1.00  0.00    -0.377 A  
BRANCH   8  12
HETATM   12  C   UNL     1     -11.042  11.397  67.376  1.00  0.00    -0.289 C  
HETATM   13  O   UNL     1     -11.729  11.364  66.355  1.00  0.00    -0.353 OA 
HETATM   14  N   UNL     1      -9.888  10.656  67.588  1.00  0.00    -0.165 N  
HETATM   15  H   UNL     1      -9.448  10.742  68.504  1.00  0.00     0.000 HD 
BRANCH  14  16
HETATM   16  C   UNL     1      -9.260   9.789  66.653  1.00  0.00    -0.150 A  
HETATM   17  C   UNL     1      -9.190  10.070  65.291  1.00  0.00    -0.268 A  
HETATM   18  C   UNL     1      -8.526   9.212  64.419  1.00  0.00    -0.198 A  
HETATM   19  C   UNL     1      -7.935   8.035  64.885  1.00  0.00    -0.138 A  
HETATM   20  C   UNL     1      -8.043   7.658  66.240  1.00  0.00    -0.112 A  
HETATM   21 CL   UNL     1      -7.025   7.155  63.699  1.00  0.00    -0.058 Cl 
HETATM   22  C   UNL     1      -8.681   8.590  67.113  1.00  0.00    -0.134 A  
BRANCH  20  23
HETATM   23  C   UNL     1      -7.557   6.360  66.782  1.00  0.00    -0.098 A  
HETATM   24  C   UNL     1      -6.207   6.091  67.040  1.00  0.00    -0.026 A  
HETATM   25  C   UNL     1      -5.822   4.853  67.550  1.00  0.00    -0.022 A  
HETATM   26  C   UNL     1      -6.783   3.878  67.750  1.00  0.00    -0.046 A  
HETATM   27  C   UNL     1      -8.093   4.192  67.433  1.00  0.00    -0.099 A  
HETATM   28  N   UNL     1      -8.498   5.397  66.960  1.00  0.00    -0.107 NA 
ENDBRANCH  20  23
ENDBRANCH  14  16
ENDBRANCH   8  12
ENDBRANCH   2   5
TORSDOF 4
ENDMDL
MODEL       73
REMARK 921   NORMALIZED FREE ENERGY PREDICTED BY IDOCK:   -5.15 KCAL/MOL
REMARK 922        TOTAL FREE ENERGY PREDICTED BY IDOCK:   -6.98 KCAL/MOL
REMARK 923 INTER-LIGAND FREE ENERGY PREDICTED BY IDOCK:   -7.03 KCAL/MOL
REMARK 924 INTRA-LIGAND FREE ENERGY PREDICTED BY IDOCK:    0.05 KCAL/MOL
REMARK 927      BINDING AFFINITY PREDICTED BY RF-SCORE:    0.00 PKD
ROOT
HETATM    1  C   UNL     1      -8.112   2.537  64.968  1.00  0.00    -0.082 C  
HETATM    2  S   UNL     1      -7.050   3.413  66.087  1.00  0.00    -0.063 S  
HETATM    3  O   UNL     1      -5.781   3.652  65.426  1.00  0.00    -0.017 OA 
HETATM    4  O   UNL     1      -7.104   2.752  67.379  1.00  0.00    -0.051 OA 
ENDROOT
BRANCH   2   5
HETATM    5  C   UNL     1      -7.860   4.984  66.271  1.00  0.00    -0.099 A  
HETATM    6  C   UNL     1      -9.009   5.090  67.064  1.00  0.00    -0.112 A  
HETATM    7  C   UNL     1      -9.686   6.317  67.164  1.00  0.00    -0.139 A  
HETATM    8  C   UNL     1      -9.207   7.445  66.486  1.00  0.00    -0.206 A  
HETATM    9 CL   UNL     1     -11.138   6.313  68.101  1.00  0.00    -0.409 Cl 
HETATM   10  C   UNL     1      -8.017   7.318  65.730  1.00  0.00    -0.122 A  
HETATM   11  C   UNL     1      -7.340   6.102  65.624  1.00  0.00    -0.080 A  
BRANCH   8  12
HETATM   12  C   UNL     1      -9.889   8.773  66.391  1.00  0.00    -0.282 C  
HETATM   13  O   UNL     1     -10.517   9.123  67.391  1.00  0.00    -0.249 OA 
HETATM   14  N   UNL     1      -9.802   9.495  65.209  1.00  0.00    -0.441 N  
HETATM   15  H   UNL     1      -9.291   9.060  64.441  1.00  0.00     0.000 HD 
BRANCH  14  16
HETATM   16  C   UNL     1     -10.355  10.782  64.964  1.00  0.00    -0.287 A  
HETATM   17  C   UNL     1     -10.720  11.217  63.693  1.00  0.00    -0.438 A  
HETATM   18  C   UNL     1     -11.299  12.469  63.507  1.00  0.00    -0.556 A  
HETATM   19  C   UNL     1     -11.504  13.330  64.588  1.00  0.00    -0.342 A  
HETATM   20  C   UNL     1     -11.082  12.975  65.886  1.00  0.00    -0.303 A  
HETATM   21 CL   UNL     1     -12.366  14.787  64.209  1.00  0.00    -0.472 Cl 
HETATM   22  C   UNL     1     -10.545  11.663  66.047  1.00  0.00    -0.303 A  
BRANCH  20  23
HETATM   23  C   UNL     1     -11.145  13.890  67.059  1.00  0.00    -0.301 A  
HETATM   24  C   UNL     1     -11.764  13.549  68.267  1.00  0.00    -0.394 A  
HETATM   25  C   UNL     1     -11.785  14.455  69.326  1.00  0.00    -0.358 A  
HETATM   26  C   UNL     1     -11.231  15.710  69.151  1.00  0.00    -0.315 A  
HETATM   27  C   UNL     1     -10.673  16.001  67.918  1.00  0.00    -0.316 A  
HETATM   28  N   UNL     1     -10.617  15.129  66.880  1.00  0.00    -0.291 NA 
ENDBRANCH  20  23
ENDBRANCH  14  16
ENDBRANCH   8  12
ENDBRANCH   2   5
TORSDOF 4
ENDMDL
MODEL       74
REMARK 921   NORMALIZED FREE ENERGY PREDICTED BY IDOCK:   -5.13 KCAL/MOL
REMARK 922        TOTAL FREE ENERGY PREDICTED BY IDOCK:   -6.95 KCAL/MOL
REMARK 923 INTER-LIGAND FREE ENERGY PREDICTED BY IDOCK:   -6.64 KCAL/MOL
REMARK 924 INTRA-LIGAND FREE ENERGY PREDICTED BY IDOCK:   -0.31 KCAL/MOL
REMARK 927      BINDING AFFINITY PREDICTED BY RF-SCORE:    0.00 PKD
ROOT
HETATM    1  C   UNL     1      -9.464   1.682  69.662  1.00  0.00    -0.054 C  
HETATM    2  S   UNL     1      -8.040   2.399  70.441  1.00  0.00    -0.041 S  
HETATM    3  O   UNL     1      -6.907   2.263  69.544  1.00  0.00    -0.033 OA 
HETATM    4  O   UNL     1      -7.971   1.911  71.806  1.00  0.00    -0.043 OA 
ENDROOT
BRANCH   2   5
HETATM    5  C   UNL     1      -8.449   4.127  70.525  1.00  0.00    -0.069 A  
HETATM    6  C   UNL     1      -9.626   4.536  71.162  1.00  0.00    -0.245 A  
HETATM    7  C   UNL     1      -9.983   5.895  71.179  1.00  0.00    -0.189 A  
HETATM    8  C   UNL     1      -9.156   6.849  70.573  1.00  0.00    -0.156 A  
HETATM    9 CL   UNL     1     -11.497   6.277  71.919  1.00  0.00    -0.344 Cl 
HETATM   10  C   UNL     1      -7.949   6.410  69.977  1.00  0.00    -0.112 A  
HETATM   11  C   UNL     1      -7.589   5.062  69.955  1.00  0.00    -0.060 A  
BRANCH   8  12
HETATM   12  C   UNL     1      -9.468   8.302  70.396  1.00  0.00    -0.167 C  
HETATM   13  O   UNL     1      -8.741   9.083  71.010  1.00  0.00    -0.198 OA 
HETATM   14  N   UNL     1     -10.543   8.669  69.599  1.00  0.00    -0.222 N  
HETATM   15  H   UNL     1     -11.093   7.914  69.191  1.00  0.00     0.000 HD 
BRANCH  14  16
HETATM   16  C   UNL     1     -10.952   9.997  69.295  1.00  0.00    -0.228 A  
HETATM   17  C   UNL     1     -11.427  10.880  70.261  1.00  0.00    -0.391 A  
HETATM   18  C   UNL     1     -11.775  12.185  69.924  1.00  0.00    -0.361 A  
HETATM   19  C   UNL     1     -11.680  12.633  68.604  1.00  0.00    -0.325 A  
HETATM   20  C   UNL     1     -11.281  11.760  67.571  1.00  0.00    -0.354 A  
HETATM   21 CL   UNL     1     -12.010  14.321  68.380  1.00  0.00    -0.368 Cl 
HETATM   22  C   UNL     1     -10.879  10.449  67.963  1.00  0.00    -0.319 A  
BRANCH  20  23
HETATM   23  C   UNL     1     -11.284  12.126  66.128  1.00  0.00    -0.338 A  
HETATM   24  C   UNL     1     -12.086  13.142  65.594  1.00  0.00    -0.501 A  
HETATM   25  C   UNL     1     -12.037  13.433  64.232  1.00  0.00    -0.479 A  
HETATM   26  C   UNL     1     -11.224  12.674  63.409  1.00  0.00    -0.404 A  
HETATM   27  C   UNL     1     -10.489  11.656  63.992  1.00  0.00    -0.367 A  
HETATM   28  N   UNL     1     -10.500  11.368  65.317  1.00  0.00    -0.274 NA 
ENDBRANCH  20  23
ENDBRANCH  14  16
ENDBRANCH   8  12
ENDBRANCH   2   5
TORSDOF 4
ENDMDL
MODEL       75
REMARK 921   NORMALIZED FREE ENERGY PREDICTED BY IDOCK:   -5.12 KCAL/MOL
REMARK 922        TOTAL FREE ENERGY PREDICTED BY IDOCK:   -6.95 KCAL/MOL
REMARK 923 INTER-LIGAND FREE ENERGY PREDICTED BY IDOCK:   -6.17 KCAL/MOL
REMARK 924 INTRA-LIGAND FREE ENERGY PREDICTED BY IDOCK:   -0.77 KCAL/MOL
REMARK 927      BINDING AFFINITY PREDICTED BY RF-SCORE:    0.00 PKD
ROOT
HETATM    1  C   UNL     1      -7.756  19.117  68.038  1.00  0.00    -0.283 C  
HETATM    2  S   UNL     1      -8.399  18.688  66.441  1.00  0.00    -0.244 S  
HETATM    3  O   UNL     1      -7.304  18.684  65.489  1.00  0.00    -0.513 OA 
HETATM    4  O   UNL     1      -9.592  19.481  66.202  1.00  0.00    -0.373 OA 
ENDROOT
BRANCH   2   5
HETATM    5  C   UNL     1      -8.927  17.004  66.655  1.00  0.00    -0.254 A  
HETATM    6  C   UNL     1     -10.171  16.594  66.162  1.00  0.00    -0.360 A  
HETATM    7  C   UNL     1     -10.618  15.280  66.381  1.00  0.00    -0.308 A  
HETATM    8  C   UNL     1      -9.814  14.368  67.077  1.00  0.00    -0.252 A  
HETATM    9 CL   UNL     1     -12.203  14.906  65.804  1.00  0.00    -0.025 Cl 
HETATM   10  C   UNL     1      -8.541  14.799  67.522  1.00  0.00    -0.198 A  
HETATM   11  C   UNL     1      -8.092  16.103  67.310  1.00  0.00    -0.202 A  
BRANCH   8  12
HETATM   12  C   UNL     1     -10.208  12.987  67.499  1.00  0.00    -0.221 C  
HETATM   13  O   UNL     1     -10.385  12.181  66.586  1.00  0.00    -0.206 OA 
HETATM   14  N   UNL     1     -10.374  12.715  68.849  1.00  0.00    -0.421 N  
HETATM   15  H   UNL     1     -10.245  13.493  69.495  1.00  0.00     0.000 HD 
BRANCH  14  16
HETATM   16  C   UNL     1     -10.707  11.456  69.420  1.00  0.00    -0.104 A  
HETATM   17  C   UNL     1     -11.967  11.172  69.940  1.00  0.00    -0.439 A  
HETATM   18  C   UNL     1     -12.260   9.910  70.450  1.00  0.00    -0.190 A  
HETATM   19  C   UNL     1     -11.289   8.906  70.475  1.00  0.00    -0.234 A  
HETATM   20  C   UNL     1      -9.973   9.160  70.036  1.00  0.00    -0.223 A  
HETATM   21 CL   UNL     1     -11.857   7.354  71.005  1.00  0.00    -0.329 Cl 
HETATM   22  C   UNL     1      -9.726  10.445  69.469  1.00  0.00    -0.196 A  
BRANCH  20  23
HETATM   23  C   UNL     1      -8.855   8.184  70.156  1.00  0.00    -0.145 A  
HETATM   24  C   UNL     1      -8.603   7.184  69.210  1.00  0.00    -0.137 A  
HETATM   25  C   UNL     1      -7.536   6.305  69.384  1.00  0.00    -0.093 A  
HETATM   26  C   UNL     1      -6.763   6.401  70.528  1.00  0.00    -0.053 A  
HETATM   27  C   UNL     1      -7.092   7.383  71.446  1.00  0.00    -0.063 A  
HETATM   28  N   UNL     1      -8.108   8.267  71.288  1.00  0.00    -0.109 NA 
ENDBRANCH  20  23
ENDBRANCH  14  16
ENDBRANCH   8  12
ENDBRANCH   2   5
TORSDOF 4
ENDMDL
MODEL       76
REMARK 921   NORMALIZED FREE ENERGY PREDICTED BY IDOCK:   -5.12 KCAL/MOL
REMARK 922        TOTAL FREE ENERGY PREDICTED BY IDOCK:   -6.94 KCAL/MOL
REMARK 923 INTER-LIGAND FREE ENERGY PREDICTED BY IDOCK:   -6.60 KCAL/MOL
REMARK 924 INTRA-LIGAND FREE ENERGY PREDICTED BY IDOCK:   -0.35 KCAL/MOL
REMARK 927      BINDING AFFINITY PREDICTED BY RF-SCORE:    0.00 PKD
ROOT
HETATM    1  C   UNL     1      -6.604   6.632  66.442  1.00  0.00    -0.044 C  
HETATM    2  S   UNL     1      -8.334   6.648  66.049  1.00  0.00    -0.139 S  
HETATM    3  O   UNL     1      -9.071   6.142  67.191  1.00  0.00    -0.114 OA 
HETATM    4  O   UNL     1      -8.507   6.062  64.731  1.00  0.00    -0.121 OA 
ENDROOT
BRANCH   2   5
HETATM    5  C   UNL     1      -8.702   8.381  65.901  1.00  0.00    -0.169 A  
HETATM    6  C   UNL     1      -9.652   8.967  66.745  1.00  0.00    -0.259 A  
HETATM    7  C   UNL     1      -9.990  10.323  66.592  1.00  0.00    -0.216 A  
HETATM    8  C   UNL     1      -9.365  11.099  65.607  1.00  0.00    -0.243 A  
HETATM    9 CL   UNL     1     -11.235  10.921  67.630  1.00  0.00    -0.376 Cl 
HETATM   10  C   UNL     1      -8.374  10.489  64.801  1.00  0.00    -0.125 A  
HETATM   11  C   UNL     1      -8.036   9.143  64.946  1.00  0.00    -0.123 A  
BRANCH   8  12
HETATM   12  C   UNL     1      -9.713  12.507  65.241  1.00  0.00    -0.057 C  
HETATM   13  O   UNL     1     -10.265  12.654  64.151  1.00  0.00    -0.373 OA 
HETATM   14  N   UNL     1      -9.377  13.534  66.112  1.00  0.00    -0.477 N  
HETATM   15  H   UNL     1      -8.873  13.273  66.959  1.00  0.00     0.000 HD 
BRANCH  14  16
HETATM   16  C   UNL     1      -9.666  14.916  65.938  1.00  0.00    -0.333 A  
HETATM   17  C   UNL     1     -10.724  15.373  65.157  1.00  0.00    -0.460 A  
HETATM   18  C   UNL     1     -10.996  16.734  65.051  1.00  0.00    -0.118 A  
HETATM   19  C   UNL     1     -10.198  17.676  65.706  1.00  0.00    -0.150 A  
HETATM   20  C   UNL     1      -9.066  17.276  66.446  1.00  0.00    -0.281 A  
HETATM   21 CL   UNL     1     -10.758  19.314  65.591  1.00  0.00    -0.463 Cl 
HETATM   22  C   UNL     1      -8.853  15.872  66.578  1.00  0.00    -0.340 A  
BRANCH  20  23
HETATM   23  C   UNL     1      -8.097  18.226  67.058  1.00  0.00    -0.230 A  
HETATM   24  C   UNL     1      -6.882  18.577  66.458  1.00  0.00    -0.230 A  
HETATM   25  C   UNL     1      -6.021  19.475  67.087  1.00  0.00    -0.183 A  
HETATM   26  C   UNL     1      -6.360  19.975  68.331  1.00  0.00    -0.313 A  
HETATM   27  C   UNL     1      -7.555  19.555  68.889  1.00  0.00    -0.348 A  
HETATM   28  N   UNL     1      -8.422  18.702  68.288  1.00  0.00    -0.314 NA 
ENDBRANCH  20  23
ENDBRANCH  14  16
ENDBRANCH   8  12
ENDBRANCH   2   5
TORSDOF 4
ENDMDL
MODEL       77
REMARK 921   NORMALIZED FREE ENERGY PREDICTED BY IDOCK:   -5.11 KCAL/MOL
REMARK 922        TOTAL FREE ENERGY PREDICTED BY IDOCK:   -6.93 KCAL/MOL
REMARK 923 INTER-LIGAND FREE ENERGY PREDICTED BY IDOCK:   -6.19 KCAL/MOL
REMARK 924 INTRA-LIGAND FREE ENERGY PREDICTED BY IDOCK:   -0.74 KCAL/MOL
REMARK 927      BINDING AFFINITY PREDICTED BY RF-SCORE:    0.00 PKD
ROOT
HETATM    1  C   UNL     1     -10.272   3.756  64.368  1.00  0.00    -0.222 C  
HETATM    2  S   UNL     1      -8.975   4.164  65.509  1.00  0.00    -0.139 S  
HETATM    3  O   UNL     1      -7.708   4.112  64.805  1.00  0.00    -0.076 OA 
HETATM    4  O   UNL     1      -9.182   3.400  66.727  1.00  0.00    -0.158 OA 
ENDROOT
BRANCH   2   5
HETATM    5  C   UNL     1      -9.299   5.867  65.901  1.00  0.00    -0.049 A  
HETATM    6  C   UNL     1      -8.402   6.861  65.492  1.00  0.00    -0.138 A  
HETATM    7  C   UNL     1      -8.623   8.201  65.852  1.00  0.00    -0.151 A  
HETATM    8  C   UNL     1      -9.751   8.553  66.605  1.00  0.00    -0.318 A  
HETATM    9 CL   UNL     1      -7.410   9.331  65.366  1.00  0.00    -0.089 Cl 
HETATM   10  C   UNL     1     -10.663   7.532  66.964  1.00  0.00    -0.367 A  
HETATM   11  C   UNL     1     -10.449   6.199  66.612  1.00  0.00    -0.267 A  
BRANCH   8  12
HETATM   12  C   UNL     1     -10.046   9.907  67.171  1.00  0.00    -0.215 C  
HETATM   13  O   UNL     1     -10.040   9.984  68.399  1.00  0.00    -0.156 OA 
HETATM   14  N   UNL     1     -10.329  10.953  66.305  1.00  0.00    -0.246 N  
HETATM   15  H   UNL     1     -10.350  10.734  65.309  1.00  0.00     0.000 HD 
BRANCH  14  16
HETATM   16  C   UNL     1     -10.592  12.302  66.670  1.00  0.00    -0.229 A  
HETATM   17  C   UNL     1     -11.857  12.751  67.041  1.00  0.00    -0.428 A  
HETATM   18  C   UNL     1     -12.058  14.071  67.434  1.00  0.00    -0.384 A  
HETATM   19  C   UNL     1     -11.001  14.985  67.442  1.00  0.00    -0.315 A  
HETATM   20  C   UNL     1      -9.715  14.607  67.001  1.00  0.00    -0.247 A  
HETATM   21 CL   UNL     1     -11.387  16.544  68.095  1.00  0.00    -0.246 Cl 
HETATM   22  C   UNL     1      -9.535  13.233  66.660  1.00  0.00    -0.262 A  
BRANCH  20  23
HETATM   23  C   UNL     1      -8.576  15.555  66.855  1.00  0.00    -0.256 A  
HETATM   24  C   UNL     1      -7.401  15.466  67.610  1.00  0.00    -0.203 A  
HETATM   25  C   UNL     1      -6.373  16.387  67.421  1.00  0.00    -0.203 A  
HETATM   26  C   UNL     1      -6.549  17.416  66.514  1.00  0.00    -0.282 A  
HETATM   27  C   UNL     1      -7.751  17.474  65.831  1.00  0.00    -0.084 A  
HETATM   28  N   UNL     1      -8.757  16.576  65.978  1.00  0.00    -0.457 NA 
ENDBRANCH  20  23
ENDBRANCH  14  16
ENDBRANCH   8  12
ENDBRANCH   2   5
TORSDOF 4
ENDMDL
MODEL       78
REMARK 921   NORMALIZED FREE ENERGY PREDICTED BY IDOCK:   -5.10 KCAL/MOL
REMARK 922        TOTAL FREE ENERGY PREDICTED BY IDOCK:   -6.91 KCAL/MOL
REMARK 923 INTER-LIGAND FREE ENERGY PREDICTED BY IDOCK:   -6.31 KCAL/MOL
REMARK 924 INTRA-LIGAND FREE ENERGY PREDICTED BY IDOCK:   -0.60 KCAL/MOL
REMARK 927      BINDING AFFINITY PREDICTED BY RF-SCORE:    0.00 PKD
ROOT
HETATM    1  C   UNL     1      -8.729  19.100  66.369  1.00  0.00    -0.328 C  
HETATM    2  S   UNL     1     -10.373  18.453  66.530  1.00  0.00    -0.392 S  
HETATM    3  O   UNL     1     -11.014  18.492  65.229  1.00  0.00    -0.551 OA 
HETATM    4  O   UNL     1     -10.996  19.073  67.686  1.00  0.00    -0.407 OA 
ENDROOT
BRANCH   2   5
HETATM    5  C   UNL     1     -10.100  16.744  66.939  1.00  0.00    -0.286 A  
HETATM    6  C   UNL     1      -8.834  16.320  67.360  1.00  0.00    -0.198 A  
HETATM    7  C   UNL     1      -8.599  14.960  67.626  1.00  0.00    -0.174 A  
HETATM    8  C   UNL     1      -9.633  14.026  67.490  1.00  0.00    -0.228 A  
HETATM    9 CL   UNL     1      -6.980  14.537  68.056  1.00  0.00    -0.128 Cl 
HETATM   10  C   UNL     1     -10.914  14.492  67.108  1.00  0.00    -0.304 A  
HETATM   11  C   UNL     1     -11.154  15.841  66.840  1.00  0.00    -0.133 A  
BRANCH   8  12
HETATM   12  C   UNL     1      -9.499  12.540  67.608  1.00  0.00    -0.188 C  
HETATM   13  O   UNL     1     -10.144  11.880  66.793  1.00  0.00    -0.199 OA 
HETATM   14  N   UNL     1      -8.706  12.011  68.616  1.00  0.00    -0.350 N  
HETATM   15  H   UNL     1      -8.270  12.676  69.255  1.00  0.00     0.000 HD 
BRANCH  14  16
HETATM   16  C   UNL     1      -8.441  10.633  68.846  1.00  0.00    -0.154 A  
HETATM   17  C   UNL     1      -7.456   9.929  68.160  1.00  0.00    -0.080 A  
HETATM   18  C   UNL     1      -7.203   8.591  68.449  1.00  0.00    -0.085 A  
HETATM   19  C   UNL     1      -7.949   7.915  69.418  1.00  0.00    -0.117 A  
HETATM   20  C   UNL     1      -9.013   8.554  70.088  1.00  0.00    -0.148 A  
HETATM   21 CL   UNL     1      -7.412   6.301  69.759  1.00  0.00    -0.079 Cl 
HETATM   22  C   UNL     1      -9.205   9.939  69.806  1.00  0.00    -0.252 A  
BRANCH  20  23
HETATM   23  C   UNL     1      -9.934   7.863  71.031  1.00  0.00    -0.181 A  
HETATM   24  C   UNL     1      -9.635   7.653  72.382  1.00  0.00    -0.220 A  
HETATM   25  C   UNL     1     -10.545   7.000  73.211  1.00  0.00    -0.378 A  
HETATM   26  C   UNL     1     -11.724   6.519  72.669  1.00  0.00    -0.126 A  
HETATM   27  C   UNL     1     -11.940   6.721  71.318  1.00  0.00    -0.365 A  
HETATM   28  N   UNL     1     -11.083   7.375  70.495  1.00  0.00    -0.257 NA 
ENDBRANCH  20  23
ENDBRANCH  14  16
ENDBRANCH   8  12
ENDBRANCH   2   5
TORSDOF 4
ENDMDL
MODEL       79
REMARK 921   NORMALIZED FREE ENERGY PREDICTED BY IDOCK:   -5.04 KCAL/MOL
REMARK 922        TOTAL FREE ENERGY PREDICTED BY IDOCK:   -6.85 KCAL/MOL
REMARK 923 INTER-LIGAND FREE ENERGY PREDICTED BY IDOCK:   -6.57 KCAL/MOL
REMARK 924 INTRA-LIGAND FREE ENERGY PREDICTED BY IDOCK:   -0.27 KCAL/MOL
REMARK 927      BINDING AFFINITY PREDICTED BY RF-SCORE:    0.00 PKD
ROOT
HETATM    1  C   UNL     1      -9.311   1.959  69.204  1.00  0.00    -0.119 C  
HETATM    2  S   UNL     1      -8.545   2.520  70.702  1.00  0.00    -0.061 S  
HETATM    3  O   UNL     1      -7.107   2.394  70.560  1.00  0.00    -0.033 OA 
HETATM    4  O   UNL     1      -9.239   1.914  71.824  1.00  0.00    -0.078 OA 
ENDROOT
BRANCH   2   5
HETATM    5  C   UNL     1      -8.927   4.256  70.730  1.00  0.00    -0.101 A  
HETATM    6  C   UNL     1      -8.103   5.143  71.432  1.00  0.00    -0.114 A  
HETATM    7  C   UNL     1      -8.435   6.506  71.506  1.00  0.00    -0.125 A  
HETATM    8  C   UNL     1      -9.582   6.989  70.862  1.00  0.00    -0.167 A  
HETATM    9 CL   UNL     1      -7.394   7.494  72.468  1.00  0.00    -0.075 Cl 
HETATM   10  C   UNL     1     -10.370   6.076  70.121  1.00  0.00    -0.284 A  
HETATM   11  C   UNL     1     -10.047   4.720  70.046  1.00  0.00    -0.308 A  
BRANCH   8  12
HETATM   12  C   UNL     1     -10.130   8.378  70.962  1.00  0.00    -0.196 C  
HETATM   13  O   UNL     1     -10.096   8.886  72.083  1.00  0.00    -0.325 OA 
HETATM   14  N   UNL     1     -10.655   8.979  69.828  1.00  0.00    -0.225 N  
HETATM   15  H   UNL     1     -10.667   8.422  68.974  1.00  0.00     0.000 HD 
BRANCH  14  16
HETATM   16  C   UNL     1     -11.179  10.299  69.739  1.00  0.00    -0.282 A  
HETATM   17  C   UNL     1     -11.901  10.896  70.769  1.00  0.00    -0.424 A  
HETATM   18  C   UNL     1     -12.356  12.206  70.655  1.00  0.00    -0.385 A  
HETATM   19  C   UNL     1     -12.121  12.946  69.493  1.00  0.00    -0.214 A  
HETATM   20  C   UNL     1     -11.465  12.367  68.386  1.00  0.00    -0.356 A  
HETATM   21 CL   UNL     1     -12.625  14.604  69.568  1.00  0.00    -0.142 Cl 
HETATM   22  C   UNL     1     -10.964  11.043  68.562  1.00  0.00    -0.276 A  
BRANCH  20  23
HETATM   23  C   UNL     1     -11.298  13.046  67.072  1.00  0.00    -0.301 A  
HETATM   24  C   UNL     1     -10.297  13.990  66.817  1.00  0.00    -0.271 A  
HETATM   25  C   UNL     1     -10.197  14.587  65.561  1.00  0.00    -0.394 A  
HETATM   26  C   UNL     1     -11.128  14.271  64.589  1.00  0.00    -0.371 A  
HETATM   27  C   UNL     1     -12.120  13.363  64.918  1.00  0.00    -0.392 A  
HETATM   28  N   UNL     1     -12.224  12.750  66.124  1.00  0.00    -0.556 NA 
ENDBRANCH  20  23
ENDBRANCH  14  16
ENDBRANCH   8  12
ENDBRANCH   2   5
TORSDOF 4
ENDMDL
MODEL       80
REMARK 921   NORMALIZED FREE ENERGY PREDICTED BY IDOCK:   -5.04 KCAL/MOL
REMARK 922        TOTAL FREE ENERGY PREDICTED BY IDOCK:   -6.84 KCAL/MOL
REMARK 923 INTER-LIGAND FREE ENERGY PREDICTED BY IDOCK:   -6.58 KCAL/MOL
REMARK 924 INTRA-LIGAND FREE ENERGY PREDICTED BY IDOCK:   -0.26 KCAL/MOL
REMARK 927      BINDING AFFINITY PREDICTED BY RF-SCORE:    0.00 PKD
ROOT
HETATM    1  C   UNL     1     -11.729  15.957  72.050  1.00  0.00    -0.492 C  
HETATM    2  S   UNL     1     -13.288  15.127  71.885  1.00  0.00    -0.444 S  
HETATM    3  O   UNL     1     -14.012  15.723  70.778  1.00  0.00    -0.302 OA 
HETATM    4  O   UNL     1     -13.892  15.025  73.201  1.00  0.00    -0.451 OA 
ENDROOT
BRANCH   2   5
HETATM    5  C   UNL     1     -12.824  13.483  71.396  1.00  0.00    -0.355 A  
HETATM    6  C   UNL     1     -13.344  12.377  72.078  1.00  0.00    -0.511 A  
HETATM    7  C   UNL     1     -12.934  11.078  71.733  1.00  0.00    -0.438 A  
HETATM    8  C   UNL     1     -12.015  10.881  70.694  1.00  0.00    -0.467 A  
HETATM    9 CL   UNL     1     -13.575   9.794  72.695  1.00  0.00    -0.240 Cl 
HETATM   10  C   UNL     1     -11.542  12.016  69.992  1.00  0.00    -0.275 A  
HETATM   11  C   UNL     1     -11.944  13.309  70.331  1.00  0.00    -0.350 A  
BRANCH   8  12
HETATM   12  C   UNL     1     -11.389   9.579  70.305  1.00  0.00    -0.236 C  
HETATM   13  O   UNL     1     -12.081   8.578  70.490  1.00  0.00    -0.065 OA 
HETATM   14  N   UNL     1     -10.095   9.574  69.804  1.00  0.00    -0.201 N  
HETATM   15  H   UNL     1      -9.619  10.474  69.752  1.00  0.00     0.000 HD 
BRANCH  14  16
HETATM   16  C   UNL     1      -9.370   8.437  69.354  1.00  0.00    -0.154 A  
HETATM   17  C   UNL     1      -8.672   8.415  68.149  1.00  0.00    -0.143 A  
HETATM   18  C   UNL     1      -7.939   7.294  67.771  1.00  0.00    -0.115 A  
HETATM   19  C   UNL     1      -7.906   6.154  68.578  1.00  0.00    -0.104 A  
HETATM   20  C   UNL     1      -8.657   6.090  69.770  1.00  0.00    -0.130 A  
HETATM   21 CL   UNL     1      -6.833   4.904  68.035  1.00  0.00    -0.055 Cl 
HETATM   22  C   UNL     1      -9.350   7.277  70.153  1.00  0.00    -0.155 A  
BRANCH  20  23
HETATM   23  C   UNL     1      -8.778   4.867  70.610  1.00  0.00    -0.116 A  
HETATM   24  C   UNL     1      -9.531   3.748  70.236  1.00  0.00    -0.257 A  
HETATM   25  C   UNL     1      -9.599   2.635  71.072  1.00  0.00    -0.210 A  
HETATM   26  C   UNL     1      -8.954   2.670  72.295  1.00  0.00    -0.117 A  
HETATM   27  C   UNL     1      -8.262   3.822  72.624  1.00  0.00    -0.089 A  
HETATM   28  N   UNL     1      -8.159   4.909  71.819  1.00  0.00    -0.111 NA 
ENDBRANCH  20  23
ENDBRANCH  14  16
ENDBRANCH   8  12
ENDBRANCH   2   5
TORSDOF 4
ENDMDL
MODEL       81
REMARK 921   NORMALIZED FREE ENERGY PREDICTED BY IDOCK:   -4.99 KCAL/MOL
REMARK 922        TOTAL FREE ENERGY PREDICTED BY IDOCK:   -6.79 KCAL/MOL
REMARK 923 INTER-LIGAND FREE ENERGY PREDICTED BY IDOCK:   -6.27 KCAL/MOL
REMARK 924 INTRA-LIGAND FREE ENERGY PREDICTED BY IDOCK:   -0.51 KCAL/MOL
REMARK 927      BINDING AFFINITY PREDICTED BY RF-SCORE:    0.00 PKD
ROOT
HETATM    1  C   UNL     1     -11.103  15.300  64.743  1.00  0.00    -0.394 C  
HETATM    2  S   UNL     1     -12.235  13.939  64.639  1.00  0.00    -0.406 S  
HETATM    3  O   UNL     1     -12.507  13.671  63.239  1.00  0.00    -0.801 OA 
HETATM    4  O   UNL     1     -13.319  14.173  65.576  1.00  0.00    -0.656 OA 
ENDROOT
BRANCH   2   5
HETATM    5  C   UNL     1     -11.288  12.573  65.270  1.00  0.00    -0.324 A  
HETATM    6  C   UNL     1     -10.583  11.745  64.389  1.00  0.00    -0.368 A  
HETATM    7  C   UNL     1      -9.882  10.630  64.877  1.00  0.00    -0.302 A  
HETATM    8  C   UNL     1      -9.869  10.350  66.249  1.00  0.00    -0.272 A  
HETATM    9 CL   UNL     1      -9.117   9.631  63.693  1.00  0.00    -0.258 Cl 
HETATM   10  C   UNL     1     -10.554  11.232  67.120  1.00  0.00    -0.274 A  
HETATM   11  C   UNL     1     -11.253  12.340  66.642  1.00  0.00    -0.367 A  
BRANCH   8  12
HETATM   12  C   UNL     1      -9.283   9.134  66.896  1.00  0.00    -0.148 C  
HETATM   13  O   UNL     1      -8.076   9.185  67.132  1.00  0.00    -0.108 OA 
HETATM   14  N   UNL     1     -10.104   8.046  67.157  1.00  0.00    -0.234 N  
HETATM   15  H   UNL     1     -11.076   8.122  66.861  1.00  0.00     0.000 HD 
BRANCH  14  16
HETATM   16  C   UNL     1      -9.720   6.835  67.796  1.00  0.00    -0.124 A  
HETATM   17  C   UNL     1     -10.135   5.582  67.353  1.00  0.00    -0.215 A  
HETATM   18  C   UNL     1      -9.698   4.422  67.984  1.00  0.00    -0.182 A  
HETATM   19  C   UNL     1      -8.852   4.486  69.095  1.00  0.00    -0.091 A  
HETATM   20  C   UNL     1      -8.463   5.729  69.637  1.00  0.00    -0.112 A  
HETATM   21 CL   UNL     1      -8.285   2.952  69.672  1.00  0.00    -0.063 Cl 
HETATM   22  C   UNL     1      -8.885   6.894  68.929  1.00  0.00    -0.129 A  
BRANCH  20  23
HETATM   23  C   UNL     1      -7.677   5.877  70.892  1.00  0.00    -0.098 A  
HETATM   24  C   UNL     1      -6.279   5.947  70.919  1.00  0.00    -0.035 A  
HETATM   25  C   UNL     1      -5.606   6.088  72.132  1.00  0.00    -0.031 A  
HETATM   26  C   UNL     1      -6.334   6.107  73.308  1.00  0.00    -0.064 A  
HETATM   27  C   UNL     1      -7.709   5.989  73.216  1.00  0.00    -0.101 A  
HETATM   28  N   UNL     1      -8.390   5.877  72.048  1.00  0.00    -0.115 NA 
ENDBRANCH  20  23
ENDBRANCH  14  16
ENDBRANCH   8  12
ENDBRANCH   2   5
TORSDOF 4
ENDMDL
MODEL       82
REMARK 921   NORMALIZED FREE ENERGY PREDICTED BY IDOCK:   -4.93 KCAL/MOL
REMARK 922        TOTAL FREE ENERGY PREDICTED BY IDOCK:   -6.71 KCAL/MOL
REMARK 923 INTER-LIGAND FREE ENERGY PREDICTED BY IDOCK:   -5.92 KCAL/MOL
REMARK 924 INTRA-LIGAND FREE ENERGY PREDICTED BY IDOCK:   -0.78 KCAL/MOL
REMARK 927      BINDING AFFINITY PREDICTED BY RF-SCORE:    0.00 PKD
ROOT
HETATM    1  C   UNL     1     -14.338  14.170  72.275  1.00  0.00    -0.444 C  
HETATM    2  S   UNL     1     -12.833  14.818  71.593  1.00  0.00    -0.358 S  
HETATM    3  O   UNL     1     -11.869  14.971  72.666  1.00  0.00    -0.358 OA 
HETATM    4  O   UNL     1     -13.168  15.934  70.727  1.00  0.00    -0.491 OA 
ENDROOT
BRANCH   2   5
HETATM    5  C   UNL     1     -12.261  13.500  70.546  1.00  0.00    -0.361 A  
HETATM    6  C   UNL     1     -12.309  12.176  70.998  1.00  0.00    -0.331 A  
HETATM    7  C   UNL     1     -11.802  11.139  70.198  1.00  0.00    -0.365 A  
HETATM    8  C   UNL     1     -11.263  11.420  68.936  1.00  0.00    -0.310 A  
HETATM    9 CL   UNL     1     -11.835   9.556  70.890  1.00  0.00    -0.365 Cl 
HETATM   10  C   UNL     1     -11.271  12.762  68.487  1.00  0.00    -0.314 A  
HETATM   11  C   UNL     1     -11.770  13.798  69.278  1.00  0.00    -0.376 A  
BRANCH   8  12
HETATM   12  C   UNL     1     -10.571  10.445  68.036  1.00  0.00    -0.221 C  
HETATM   13  O   UNL     1     -11.122  10.233  66.956  1.00  0.00    -0.189 OA 
HETATM   14  N   UNL     1      -9.402   9.836  68.471  1.00  0.00    -0.140 N  
HETATM   15  H   UNL     1      -9.086  10.067  69.412  1.00  0.00     0.000 HD 
BRANCH  14  16
HETATM   16  C   UNL     1      -8.603   8.921  67.731  1.00  0.00    -0.125 A  
HETATM   17  C   UNL     1      -7.745   9.322  66.710  1.00  0.00    -0.094 A  
HETATM   18  C   UNL     1      -6.949   8.395  66.044  1.00  0.00    -0.065 A  
HETATM   19  C   UNL     1      -7.010   7.037  66.365  1.00  0.00    -0.069 A  
HETATM   20  C   UNL     1      -7.917   6.562  67.335  1.00  0.00    -0.113 A  
HETATM   21 CL   UNL     1      -5.852   6.039  65.545  1.00  0.00    -0.024 Cl 
HETATM   22  C   UNL     1      -8.675   7.547  68.036  1.00  0.00    -0.121 A  
BRANCH  20  23
HETATM   23  C   UNL     1      -8.133   5.121  67.635  1.00  0.00    -0.099 A  
HETATM   24  C   UNL     1      -9.232   4.393  67.164  1.00  0.00    -0.157 A  
HETATM   25  C   UNL     1      -9.371   3.044  67.482  1.00  0.00    -0.229 A  
HETATM   26  C   UNL     1      -8.436   2.447  68.308  1.00  0.00    -0.097 A  
HETATM   27  C   UNL     1      -7.397   3.232  68.777  1.00  0.00    -0.049 A  
HETATM   28  N   UNL     1      -7.225   4.540  68.462  1.00  0.00    -0.059 NA 
ENDBRANCH  20  23
ENDBRANCH  14  16
ENDBRANCH   8  12
ENDBRANCH   2   5
TORSDOF 4
ENDMDL
MODEL       83
REMARK 921   NORMALIZED FREE ENERGY PREDICTED BY IDOCK:   -4.91 KCAL/MOL
REMARK 922        TOTAL FREE ENERGY PREDICTED BY IDOCK:   -6.68 KCAL/MOL
REMARK 923 INTER-LIGAND FREE ENERGY PREDICTED BY IDOCK:   -6.08 KCAL/MOL
REMARK 924 INTRA-LIGAND FREE ENERGY PREDICTED BY IDOCK:   -0.60 KCAL/MOL
REMARK 927      BINDING AFFINITY PREDICTED BY RF-SCORE:    0.00 PKD
ROOT
HETATM    1  C   UNL     1      -9.312  19.571  66.019  1.00  0.00    -0.231 C  
HETATM    2  S   UNL     1      -9.242  19.300  67.771  1.00  0.00    -0.318 S  
HETATM    3  O   UNL     1     -10.463  19.809  68.365  1.00  0.00    -0.431 OA 
HETATM    4  O   UNL     1      -7.942  19.736  68.248  1.00  0.00    -0.321 OA 
ENDROOT
BRANCH   2   5
HETATM    5  C   UNL     1      -9.280  17.528  67.910  1.00  0.00    -0.265 A  
HETATM    6  C   UNL     1     -10.074  16.920  68.888  1.00  0.00    -0.297 A  
HETATM    7  C   UNL     1     -10.061  15.523  69.040  1.00  0.00    -0.234 A  
HETATM    8  C   UNL     1      -9.267  14.730  68.203  1.00  0.00    -0.195 A  
HETATM    9 CL   UNL     1     -11.014  14.887  70.333  1.00  0.00    -0.208 Cl 
HETATM   10  C   UNL     1      -8.510  15.370  67.192  1.00  0.00    -0.241 A  
HETATM   11  C   UNL     1      -8.517  16.757  67.037  1.00  0.00    -0.225 A  
BRANCH   8  12
HETATM   12  C   UNL     1      -9.049  13.255  68.331  1.00  0.00    -0.137 C  
HETATM   13  O   UNL     1      -7.875  12.888  68.338  1.00  0.00    -0.133 OA 
HETATM   14  N   UNL     1     -10.150  12.414  68.403  1.00  0.00    -0.223 N  
HETATM   15  H   UNL     1     -11.069  12.851  68.333  1.00  0.00     0.000 HD 
BRANCH  14  16
HETATM   16  C   UNL     1     -10.123  11.001  68.564  1.00  0.00    -0.190 A  
HETATM   17  C   UNL     1     -10.689  10.124  67.642  1.00  0.00    -0.339 A  
HETATM   18  C   UNL     1     -10.599   8.747  67.820  1.00  0.00    -0.256 A  
HETATM   19  C   UNL     1      -9.960   8.210  68.941  1.00  0.00    -0.192 A  
HETATM   20  C   UNL     1      -9.439   9.049  69.947  1.00  0.00    -0.186 A  
HETATM   21 CL   UNL     1      -9.807   6.483  68.937  1.00  0.00    -0.136 Cl 
HETATM   22  C   UNL     1      -9.500  10.454  69.703  1.00  0.00    -0.118 A  
BRANCH  20  23
HETATM   23  C   UNL     1      -8.866   8.552  71.228  1.00  0.00    -0.190 A  
HETATM   24  C   UNL     1      -9.622   8.385  72.394  1.00  0.00    -0.373 A  
HETATM   25  C   UNL     1      -9.021   7.913  73.560  1.00  0.00    -0.343 A  
HETATM   26  C   UNL     1      -7.661   7.659  73.562  1.00  0.00    -0.153 A  
HETATM   27  C   UNL     1      -6.963   7.886  72.389  1.00  0.00    -0.075 A  
HETATM   28  N   UNL     1      -7.527   8.321  71.235  1.00  0.00    -0.073 NA 
ENDBRANCH  20  23
ENDBRANCH  14  16
ENDBRANCH   8  12
ENDBRANCH   2   5
TORSDOF 4
ENDMDL
MODEL       84
REMARK 921   NORMALIZED FREE ENERGY PREDICTED BY IDOCK:   -4.90 KCAL/MOL
REMARK 922        TOTAL FREE ENERGY PREDICTED BY IDOCK:   -6.67 KCAL/MOL
REMARK 923 INTER-LIGAND FREE ENERGY PREDICTED BY IDOCK:   -5.94 KCAL/MOL
REMARK 924 INTRA-LIGAND FREE ENERGY PREDICTED BY IDOCK:   -0.73 KCAL/MOL
REMARK 927      BINDING AFFINITY PREDICTED BY RF-SCORE:    0.00 PKD
ROOT
HETATM    1  C   UNL     1      -8.655   5.483  68.757  1.00  0.00    -0.100 C  
HETATM    2  S   UNL     1     -10.255   6.109  68.316  1.00  0.00    -0.197 S  
HETATM    3  O   UNL     1     -11.121   6.018  69.476  1.00  0.00    -0.373 OA 
HETATM    4  O   UNL     1     -10.643   5.517  67.048  1.00  0.00    -0.254 OA 
ENDROOT
BRANCH   2   5
HETATM    5  C   UNL     1      -9.948   7.834  68.013  1.00  0.00    -0.175 A  
HETATM    6  C   UNL     1      -8.882   8.477  68.652  1.00  0.00    -0.136 A  
HETATM    7  C   UNL     1      -8.672   9.853  68.462  1.00  0.00    -0.121 A  
HETATM    8  C   UNL     1      -9.517  10.585  67.618  1.00  0.00    -0.164 A  
HETATM    9 CL   UNL     1      -7.379  10.560  69.364  1.00  0.00    -0.119 Cl 
HETATM   10  C   UNL     1     -10.558   9.898  66.950  1.00  0.00    -0.248 A  
HETATM   11  C   UNL     1     -10.773   8.531  67.136  1.00  0.00    -0.209 A  
BRANCH   8  12
HETATM   12  C   UNL     1      -9.499  12.069  67.424  1.00  0.00    -0.177 C  
HETATM   13  O   UNL     1      -9.100  12.459  66.327  1.00  0.00    -0.194 OA 
HETATM   14  N   UNL     1      -9.893  12.892  68.470  1.00  0.00    -0.357 N  
HETATM   15  H   UNL     1     -10.151  12.434  69.344  1.00  0.00     0.000 HD 
BRANCH  14  16
HETATM   16  C   UNL     1      -9.971  14.311  68.442  1.00  0.00    -0.240 A  
HETATM   17  C   UNL     1     -11.178  15.003  68.511  1.00  0.00    -0.298 A  
HETATM   18  C   UNL     1     -11.203  16.394  68.525  1.00  0.00    -0.334 A  
HETATM   19  C   UNL     1     -10.019  17.132  68.444  1.00  0.00    -0.310 A  
HETATM   20  C   UNL     1      -8.774  16.487  68.293  1.00  0.00    -0.209 A  
HETATM   21 CL   UNL     1     -10.213  18.846  68.621  1.00  0.00    -0.418 Cl 
HETATM   22  C   UNL     1      -8.783  15.061  68.340  1.00  0.00    -0.175 A  
BRANCH  20  23
HETATM   23  C   UNL     1      -7.490  17.206  68.067  1.00  0.00    -0.195 A  
HETATM   24  C   UNL     1      -6.766  17.826  69.092  1.00  0.00    -0.239 A  
HETATM   25  C   UNL     1      -5.568  18.480  68.810  1.00  0.00    -0.191 A  
HETATM   26  C   UNL     1      -5.131  18.550  67.500  1.00  0.00    -0.149 A  
HETATM   27  C   UNL     1      -5.915  17.955  66.527  1.00  0.00    -0.172 A  
HETATM   28  N   UNL     1      -7.070  17.290  66.778  1.00  0.00    -0.188 NA 
ENDBRANCH  20  23
ENDBRANCH  14  16
ENDBRANCH   8  12
ENDBRANCH   2   5
TORSDOF 4
ENDMDL
MODEL       85
REMARK 921   NORMALIZED FREE ENERGY PREDICTED BY IDOCK:   -4.87 KCAL/MOL
REMARK 922        TOTAL FREE ENERGY PREDICTED BY IDOCK:   -6.64 KCAL/MOL
REMARK 923 INTER-LIGAND FREE ENERGY PREDICTED BY IDOCK:   -6.20 KCAL/MOL
REMARK 924 INTRA-LIGAND FREE ENERGY PREDICTED BY IDOCK:   -0.44 KCAL/MOL
REMARK 927      BINDING AFFINITY PREDICTED BY RF-SCORE:    0.00 PKD
ROOT
HETATM    1  C   UNL     1     -11.916  14.823  72.477  1.00  0.00    -0.183 C  
HETATM    2  S   UNL     1     -13.310  14.009  71.740  1.00  0.00    -0.409 S  
HETATM    3  O   UNL     1     -13.814  14.842  70.664  1.00  0.00    -0.126 OA 
HETATM    4  O   UNL     1     -14.187  13.554  72.804  1.00  0.00    -0.692 OA 
ENDROOT
BRANCH   2   5
HETATM    5  C   UNL     1     -12.592  12.561  71.001  1.00  0.00    -0.256 A  
HETATM    6  C   UNL     1     -12.895  11.293  71.510  1.00  0.00    -0.519 A  
HETATM    7  C   UNL     1     -12.283  10.150  70.967  1.00  0.00    -0.374 A  
HETATM    8  C   UNL     1     -11.380  10.272  69.903  1.00  0.00    -0.354 A  
HETATM    9 CL   UNL     1     -12.665   8.646  71.727  1.00  0.00    -0.376 Cl 
HETATM   10  C   UNL     1     -11.130  11.563  69.379  1.00  0.00    -0.287 A  
HETATM   11  C   UNL     1     -11.732  12.702  69.915  1.00  0.00    -0.320 A  
BRANCH   8  12
HETATM   12  C   UNL     1     -10.557   9.169  69.314  1.00  0.00    -0.216 C  
HETATM   13  O   UNL     1      -9.350   9.393  69.226  1.00  0.00    -0.156 OA 
HETATM   14  N   UNL     1     -11.188   8.008  68.890  1.00  0.00    -0.274 N  
HETATM   15  H   UNL     1     -12.203   7.978  68.975  1.00  0.00     0.000 HD 
BRANCH  14  16
HETATM   16  C   UNL     1     -10.556   6.856  68.347  1.00  0.00    -0.210 A  
HETATM   17  C   UNL     1     -10.994   6.233  67.181  1.00  0.00    -0.453 A  
HETATM   18  C   UNL     1     -10.316   5.133  66.662  1.00  0.00    -0.325 A  
HETATM   19  C   UNL     1      -9.195   4.612  67.313  1.00  0.00    -0.130 A  
HETATM   20  C   UNL     1      -8.753   5.151  68.539  1.00  0.00    -0.101 A  
HETATM   21 CL   UNL     1      -8.384   3.337  66.462  1.00  0.00    -0.100 Cl 
HETATM   22  C   UNL     1      -9.437   6.312  69.009  1.00  0.00    -0.133 A  
BRANCH  20  23
HETATM   23  C   UNL     1      -7.653   4.568  69.354  1.00  0.00    -0.055 A  
HETATM   24  C   UNL     1      -7.686   3.268  69.872  1.00  0.00    -0.043 A  
HETATM   25  C   UNL     1      -6.618   2.785  70.626  1.00  0.00    -0.032 A  
HETATM   26  C   UNL     1      -5.551   3.622  70.897  1.00  0.00    -0.012 A  
HETATM   27  C   UNL     1      -5.599   4.910  70.393  1.00  0.00    -0.015 A  
HETATM   28  N   UNL     1      -6.614   5.397  69.636  1.00  0.00    -0.045 NA 
ENDBRANCH  20  23
ENDBRANCH  14  16
ENDBRANCH   8  12
ENDBRANCH   2   5
TORSDOF 4
ENDMDL
MODEL       86
REMARK 921   NORMALIZED FREE ENERGY PREDICTED BY IDOCK:   -4.86 KCAL/MOL
REMARK 922        TOTAL FREE ENERGY PREDICTED BY IDOCK:   -6.62 KCAL/MOL
REMARK 923 INTER-LIGAND FREE ENERGY PREDICTED BY IDOCK:   -6.00 KCAL/MOL
REMARK 924 INTRA-LIGAND FREE ENERGY PREDICTED BY IDOCK:   -0.63 KCAL/MOL
REMARK 927      BINDING AFFINITY PREDICTED BY RF-SCORE:    0.00 PKD
ROOT
HETATM    1  C   UNL     1      -6.700   3.816  72.552  1.00  0.00    -0.036 C  
HETATM    2  S   UNL     1      -7.933   3.026  71.550  1.00  0.00    -0.057 S  
HETATM    3  O   UNL     1      -9.016   2.589  72.412  1.00  0.00    -0.076 OA 
HETATM    4  O   UNL     1      -7.268   2.093  70.659  1.00  0.00    -0.033 OA 
ENDROOT
BRANCH   2   5
HETATM    5  C   UNL     1      -8.554   4.355  70.545  1.00  0.00    -0.081 A  
HETATM    6  C   UNL     1      -9.819   4.895  70.804  1.00  0.00    -0.285 A  
HETATM    7  C   UNL     1     -10.337   5.904  69.974  1.00  0.00    -0.244 A  
HETATM    8  C   UNL     1      -9.585   6.387  68.897  1.00  0.00    -0.130 A  
HETATM    9 CL   UNL     1     -11.940   6.438  70.334  1.00  0.00    -0.334 Cl 
HETATM   10  C   UNL     1      -8.290   5.854  68.689  1.00  0.00    -0.109 A  
HETATM   11  C   UNL     1      -7.770   4.850  69.507  1.00  0.00    -0.067 A  
BRANCH   8  12
HETATM   12  C   UNL     1     -10.055   7.356  67.857  1.00  0.00    -0.178 C  
HETATM   13  O   UNL     1     -11.005   6.982  67.170  1.00  0.00    -0.357 OA 
HETATM   14  N   UNL     1      -9.393   8.567  67.715  1.00  0.00    -0.137 N  
HETATM   15  H   UNL     1      -8.587   8.725  68.318  1.00  0.00     0.000 HD 
BRANCH  14  16
HETATM   16  C   UNL     1      -9.731   9.610  66.809  1.00  0.00    -0.197 A  
HETATM   17  C   UNL     1      -9.728   9.441  65.427  1.00  0.00    -0.248 A  
HETATM   18  C   UNL     1     -10.108  10.478  64.581  1.00  0.00    -0.408 A  
HETATM   19  C   UNL     1     -10.478  11.723  65.096  1.00  0.00    -0.283 A  
HETATM   20  C   UNL     1     -10.423  11.978  66.482  1.00  0.00    -0.253 A  
HETATM   21 CL   UNL     1     -11.062  12.857  63.921  1.00  0.00    -0.450 Cl 
HETATM   22  C   UNL     1     -10.084  10.875  67.321  1.00  0.00    -0.225 A  
BRANCH  20  23
HETATM   23  C   UNL     1     -10.672  13.313  67.091  1.00  0.00    -0.259 A  
HETATM   24  C   UNL     1      -9.907  14.447  66.797  1.00  0.00    -0.269 A  
HETATM   25  C   UNL     1     -10.197  15.668  67.404  1.00  0.00    -0.264 A  
HETATM   26  C   UNL     1     -11.218  15.732  68.335  1.00  0.00    -0.362 A  
HETATM   27  C   UNL     1     -11.908  14.565  68.614  1.00  0.00    -0.320 A  
HETATM   28  N   UNL     1     -11.663  13.371  68.020  1.00  0.00    -0.336 NA 
ENDBRANCH  20  23
ENDBRANCH  14  16
ENDBRANCH   8  12
ENDBRANCH   2   5
TORSDOF 4
ENDMDL
MODEL       87
REMARK 921   NORMALIZED FREE ENERGY PREDICTED BY IDOCK:   -4.85 KCAL/MOL
REMARK 922        TOTAL FREE ENERGY PREDICTED BY IDOCK:   -6.61 KCAL/MOL
REMARK 923 INTER-LIGAND FREE ENERGY PREDICTED BY IDOCK:   -5.90 KCAL/MOL
REMARK 924 INTRA-LIGAND FREE ENERGY PREDICTED BY IDOCK:   -0.70 KCAL/MOL
REMARK 927      BINDING AFFINITY PREDICTED BY RF-SCORE:    0.00 PKD
ROOT
HETATM    1  C   UNL     1     -12.190  14.494  64.514  1.00  0.00    -0.465 C  
HETATM    2  S   UNL     1     -11.054  14.516  65.876  1.00  0.00    -0.334 S  
HETATM    3  O   UNL     1     -11.747  15.022  67.047  1.00  0.00    -0.309 OA 
HETATM    4  O   UNL     1      -9.813  15.122  65.426  1.00  0.00    -0.328 OA 
ENDROOT
BRANCH   2   5
HETATM    5  C   UNL     1     -10.721  12.793  66.157  1.00  0.00    -0.275 A  
HETATM    6  C   UNL     1     -10.809  12.265  67.450  1.00  0.00    -0.277 A  
HETATM    7  C   UNL     1     -10.489  10.917  67.685  1.00  0.00    -0.209 A  
HETATM    8  C   UNL     1     -10.097  10.090  66.625  1.00  0.00    -0.289 A  
HETATM    9 CL   UNL     1     -10.550  10.394  69.330  1.00  0.00    -0.242 Cl 
HETATM   10  C   UNL     1     -10.062  10.641  65.321  1.00  0.00    -0.363 A  
HETATM   11  C   UNL     1     -10.377  11.979  65.081  1.00  0.00    -0.313 A  
BRANCH   8  12
HETATM   12  C   UNL     1      -9.602   8.683  66.741  1.00  0.00    -0.207 C  
HETATM   13  O   UNL     1      -8.434   8.498  66.398  1.00  0.00    -0.110 OA 
HETATM   14  N   UNL     1     -10.470   7.696  67.186  1.00  0.00    -0.318 N  
HETATM   15  H   UNL     1     -11.428   7.981  67.386  1.00  0.00     0.000 HD 
BRANCH  14  16
HETATM   16  C   UNL     1     -10.154   6.324  67.389  1.00  0.00    -0.156 A  
HETATM   17  C   UNL     1     -10.080   5.746  68.654  1.00  0.00    -0.227 A  
HETATM   18  C   UNL     1      -9.810   4.388  68.802  1.00  0.00    -0.149 A  
HETATM   19  C   UNL     1      -9.582   3.578  67.687  1.00  0.00    -0.127 A  
HETATM   20  C   UNL     1      -9.566   4.124  66.387  1.00  0.00    -0.215 A  
HETATM   21 CL   UNL     1      -9.406   1.888  68.036  1.00  0.00    -0.229 Cl 
HETATM   22  C   UNL     1      -9.902   5.506  66.270  1.00  0.00    -0.173 A  
BRANCH  20  23
HETATM   23  C   UNL     1      -9.200   3.353  65.167  1.00  0.00    -0.149 A  
HETATM   24  C   UNL     1     -10.125   2.989  64.182  1.00  0.00    -0.134 A  
HETATM   25  C   UNL     1      -9.713   2.267  63.063  1.00  0.00    -0.092 A  
HETATM   26  C   UNL     1      -8.390   1.874  62.965  1.00  0.00    -0.072 A  
HETATM   27  C   UNL     1      -7.535   2.228  63.994  1.00  0.00    -0.059 A  
HETATM   28  N   UNL     1      -7.905   2.951  65.080  1.00  0.00    -0.081 NA 
ENDBRANCH  20  23
ENDBRANCH  14  16
ENDBRANCH   8  12
ENDBRANCH   2   5
TORSDOF 4
ENDMDL
MODEL       88
REMARK 921   NORMALIZED FREE ENERGY PREDICTED BY IDOCK:   -4.81 KCAL/MOL
REMARK 922        TOTAL FREE ENERGY PREDICTED BY IDOCK:   -6.56 KCAL/MOL
REMARK 923 INTER-LIGAND FREE ENERGY PREDICTED BY IDOCK:   -5.76 KCAL/MOL
REMARK 924 INTRA-LIGAND FREE ENERGY PREDICTED BY IDOCK:   -0.79 KCAL/MOL
REMARK 927      BINDING AFFINITY PREDICTED BY RF-SCORE:    0.00 PKD
ROOT
HETATM    1  C   UNL     1      -8.519   6.652  66.462  1.00  0.00    -0.121 C  
HETATM    2  S   UNL     1      -8.988   7.084  68.117  1.00  0.00    -0.125 S  
HETATM    3  O   UNL     1      -8.165   6.327  69.042  1.00  0.00    -0.111 OA 
HETATM    4  O   UNL     1     -10.437   7.045  68.206  1.00  0.00    -0.185 OA 
ENDROOT
BRANCH   2   5
HETATM    5  C   UNL     1      -8.504   8.790  68.245  1.00  0.00    -0.130 A  
HETATM    6  C   UNL     1      -9.167   9.763  67.489  1.00  0.00    -0.145 A  
HETATM    7  C   UNL     1      -8.747  11.104  67.543  1.00  0.00    -0.129 A  
HETATM    8  C   UNL     1      -7.677  11.476  68.365  1.00  0.00    -0.129 A  
HETATM    9 CL   UNL     1      -9.582  12.205  66.506  1.00  0.00    -0.226 Cl 
HETATM   10  C   UNL     1      -7.056  10.476  69.153  1.00  0.00    -0.089 A  
HETATM   11  C   UNL     1      -7.466   9.143  69.103  1.00  0.00    -0.072 A  
BRANCH   8  12
HETATM   12  C   UNL     1      -7.038  12.828  68.423  1.00  0.00    -0.102 C  
HETATM   13  O   UNL     1      -6.044  12.980  67.714  1.00  0.00    -0.121 OA 
HETATM   14  N   UNL     1      -7.571  13.790  69.270  1.00  0.00    -0.330 N  
HETATM   15  H   UNL     1      -8.367  13.511  69.841  1.00  0.00     0.000 HD 
BRANCH  14  16
HETATM   16  C   UNL     1      -7.113  15.129  69.418  1.00  0.00    -0.189 A  
HETATM   17  C   UNL     1      -6.005  15.467  70.190  1.00  0.00    -0.141 A  
HETATM   18  C   UNL     1      -5.567  16.786  70.270  1.00  0.00    -0.198 A  
HETATM   19  C   UNL     1      -6.245  17.806  69.598  1.00  0.00    -0.214 A  
HETATM   20  C   UNL     1      -7.420  17.535  68.866  1.00  0.00    -0.234 A  
HETATM   21 CL   UNL     1      -5.488  19.365  69.682  1.00  0.00    -0.216 Cl 
HETATM   22  C   UNL     1      -7.805  16.165  68.761  1.00  0.00    -0.203 A  
BRANCH  20  23
HETATM   23  C   UNL     1      -8.267  18.585  68.238  1.00  0.00    -0.314 A  
HETATM   24  C   UNL     1      -9.509  18.980  68.749  1.00  0.00    -0.433 A  
HETATM   25  C   UNL     1     -10.249  19.972  68.110  1.00  0.00    -0.535 A  
HETATM   26  C   UNL     1      -9.765  20.526  66.939  1.00  0.00    -0.516 A  
HETATM   27  C   UNL     1      -8.552  20.061  66.461  1.00  0.00    -0.309 A  
HETATM   28  N   UNL     1      -7.800  19.115  67.077  1.00  0.00    -0.246 NA 
ENDBRANCH  20  23
ENDBRANCH  14  16
ENDBRANCH   8  12
ENDBRANCH   2   5
TORSDOF 4
ENDMDL
MODEL       89
REMARK 921   NORMALIZED FREE ENERGY PREDICTED BY IDOCK:   -4.80 KCAL/MOL
REMARK 922        TOTAL FREE ENERGY PREDICTED BY IDOCK:   -6.55 KCAL/MOL
REMARK 923 INTER-LIGAND FREE ENERGY PREDICTED BY IDOCK:   -6.57 KCAL/MOL
REMARK 924 INTRA-LIGAND FREE ENERGY PREDICTED BY IDOCK:    0.03 KCAL/MOL
REMARK 927      BINDING AFFINITY PREDICTED BY RF-SCORE:    0.00 PKD
ROOT
HETATM    1  C   UNL     1      -9.549   4.289  64.987  1.00  0.00    -0.177 C  
HETATM    2  S   UNL     1      -8.717   4.241  66.554  1.00  0.00    -0.116 S  
HETATM    3  O   UNL     1      -7.312   3.964  66.321  1.00  0.00    -0.073 OA 
HETATM    4  O   UNL     1      -9.498   3.418  67.460  1.00  0.00    -0.205 OA 
ENDROOT
BRANCH   2   5
HETATM    5  C   UNL     1      -8.842   5.917  67.133  1.00  0.00    -0.107 A  
HETATM    6  C   UNL     1      -7.837   6.451  67.947  1.00  0.00    -0.104 A  
HETATM    7  C   UNL     1      -7.961   7.755  68.456  1.00  0.00    -0.122 A  
HETATM    8  C   UNL     1      -9.081   8.533  68.137  1.00  0.00    -0.138 A  
HETATM    9 CL   UNL     1      -6.704   8.283  69.518  1.00  0.00    -0.038 Cl 
HETATM   10  C   UNL     1     -10.058   7.981  67.274  1.00  0.00    -0.309 A  
HETATM   11  C   UNL     1      -9.942   6.687  66.767  1.00  0.00    -0.238 A  
BRANCH   8  12
HETATM   12  C   UNL     1      -9.413   9.877  68.707  1.00  0.00    -0.157 C  
HETATM   13  O   UNL     1      -8.495  10.448  69.296  1.00  0.00    -0.153 OA 
HETATM   14  N   UNL     1     -10.702  10.370  68.567  1.00  0.00    -0.206 N  
HETATM   15  H   UNL     1     -11.378   9.766  68.100  1.00  0.00     0.000 HD 
BRANCH  14  16
HETATM   16  C   UNL     1     -11.173  11.636  69.012  1.00  0.00    -0.262 A  
HETATM   17  C   UNL     1     -11.954  11.793  70.154  1.00  0.00    -0.421 A  
HETATM   18  C   UNL     1     -12.355  13.057  70.576  1.00  0.00    -0.365 A  
HETATM   19  C   UNL     1     -12.006  14.198  69.849  1.00  0.00    -0.338 A  
HETATM   20  C   UNL     1     -11.284  14.094  68.642  1.00  0.00    -0.291 A  
HETATM   21 CL   UNL     1     -12.459  15.701  70.587  1.00  0.00    -0.464 Cl 
HETATM   22  C   UNL     1     -10.843  12.789  68.273  1.00  0.00    -0.270 A  
BRANCH  20  23
HETATM   23  C   UNL     1     -10.992  15.248  67.748  1.00  0.00    -0.312 A  
HETATM   24  C   UNL     1     -10.938  15.145  66.353  1.00  0.00    -0.329 A  
HETATM   25  C   UNL     1     -10.660  16.268  65.576  1.00  0.00    -0.369 A  
HETATM   26  C   UNL     1     -10.390  17.471  66.203  1.00  0.00    -0.330 A  
HETATM   27  C   UNL     1     -10.416  17.496  67.586  1.00  0.00    -0.370 A  
HETATM   28  N   UNL     1     -10.708  16.425  68.365  1.00  0.00    -0.310 NA 
ENDBRANCH  20  23
ENDBRANCH  14  16
ENDBRANCH   8  12
ENDBRANCH   2   5
TORSDOF 4
ENDMDL
MODEL       90
REMARK 921   NORMALIZED FREE ENERGY PREDICTED BY IDOCK:   -4.74 KCAL/MOL
REMARK 922        TOTAL FREE ENERGY PREDICTED BY IDOCK:   -6.47 KCAL/MOL
REMARK 923 INTER-LIGAND FREE ENERGY PREDICTED BY IDOCK:   -5.76 KCAL/MOL
REMARK 924 INTRA-LIGAND FREE ENERGY PREDICTED BY IDOCK:   -0.71 KCAL/MOL
REMARK 927      BINDING AFFINITY PREDICTED BY RF-SCORE:    0.00 PKD
ROOT
HETATM    1  C   UNL     1      -8.674   4.342  74.020  1.00  0.00    -0.104 C  
HETATM    2  S   UNL     1      -8.708   4.162  72.256  1.00  0.00    -0.108 S  
HETATM    3  O   UNL     1      -9.690   3.150  71.915  1.00  0.00    -0.144 OA 
HETATM    4  O   UNL     1      -7.340   4.062  71.781  1.00  0.00    -0.055 OA 
ENDROOT
BRANCH   2   5
HETATM    5  C   UNL     1      -9.340   5.727  71.699  1.00  0.00    -0.146 A  
HETATM    6  C   UNL     1     -10.720   5.961  71.689  1.00  0.00    -0.308 A  
HETATM    7  C   UNL     1     -11.226   7.175  71.194  1.00  0.00    -0.262 A  
HETATM    8  C   UNL     1     -10.353   8.164  70.724  1.00  0.00    -0.217 A  
HETATM    9 CL   UNL     1     -12.947   7.322  71.152  1.00  0.00    -0.364 Cl 
HETATM   10  C   UNL     1      -8.961   7.916  70.789  1.00  0.00    -0.141 A  
HETATM   11  C   UNL     1      -8.451   6.713  71.278  1.00  0.00    -0.125 A  
BRANCH   8  12
HETATM   12  C   UNL     1     -10.748   9.440  70.050  1.00  0.00    -0.239 C  
HETATM   13  O   UNL     1     -11.562  10.135  70.658  1.00  0.00    -0.291 OA 
HETATM   14  N   UNL     1     -10.213   9.740  68.805  1.00  0.00    -0.186 N  
HETATM   15  H   UNL     1      -9.588   9.048  68.393  1.00  0.00     0.000 HD 
BRANCH  14  16
HETATM   16  C   UNL     1     -10.450  10.921  68.048  1.00  0.00    -0.191 A  
HETATM   17  C   UNL     1     -11.400  10.988  67.033  1.00  0.00    -0.164 A  
HETATM   18  C   UNL     1     -11.629  12.178  66.348  1.00  0.00    -0.429 A  
HETATM   19  C   UNL     1     -10.892  13.328  66.645  1.00  0.00    -0.281 A  
HETATM   20  C   UNL     1      -9.862  13.298  67.608  1.00  0.00    -0.230 A  
HETATM   21 CL   UNL     1     -11.399  14.758  65.806  1.00  0.00    -0.342 Cl 
HETATM   22  C   UNL     1      -9.696  12.077  68.328  1.00  0.00    -0.205 A  
BRANCH  20  23
HETATM   23  C   UNL     1      -8.949  14.441  67.883  1.00  0.00    -0.186 A  
HETATM   24  C   UNL     1      -7.642  14.517  67.391  1.00  0.00    -0.209 A  
HETATM   25  C   UNL     1      -6.841  15.619  67.686  1.00  0.00    -0.201 A  
HETATM   26  C   UNL     1      -7.339  16.611  68.511  1.00  0.00    -0.201 A  
HETATM   27  C   UNL     1      -8.624  16.456  69.001  1.00  0.00    -0.230 A  
HETATM   28  N   UNL     1      -9.432  15.406  68.709  1.00  0.00    -0.200 NA 
ENDBRANCH  20  23
ENDBRANCH  14  16
ENDBRANCH   8  12
ENDBRANCH   2   5
TORSDOF 4
ENDMDL
MODEL       91
REMARK 921   NORMALIZED FREE ENERGY PREDICTED BY IDOCK:   -4.72 KCAL/MOL
REMARK 922        TOTAL FREE ENERGY PREDICTED BY IDOCK:   -6.45 KCAL/MOL
REMARK 923 INTER-LIGAND FREE ENERGY PREDICTED BY IDOCK:   -5.63 KCAL/MOL
REMARK 924 INTRA-LIGAND FREE ENERGY PREDICTED BY IDOCK:   -0.82 KCAL/MOL
REMARK 927      BINDING AFFINITY PREDICTED BY RF-SCORE:    0.00 PKD
ROOT
HETATM    1  C   UNL     1      -8.022   1.681  70.670  1.00  0.00    -0.038 C  
HETATM    2  S   UNL     1      -8.694   2.529  72.076  1.00  0.00    -0.070 S  
HETATM    3  O   UNL     1      -7.619   2.789  73.015  1.00  0.00    -0.047 OA 
HETATM    4  O   UNL     1      -9.898   1.833  72.496  1.00  0.00    -0.096 OA 
ENDROOT
BRANCH   2   5
HETATM    5  C   UNL     1      -9.204   4.093  71.403  1.00  0.00    -0.135 A  
HETATM    6  C   UNL     1      -9.599   4.182  70.063  1.00  0.00    -0.274 A  
HETATM    7  C   UNL     1      -9.946   5.427  69.511  1.00  0.00    -0.219 A  
HETATM    8  C   UNL     1      -9.914   6.582  70.302  1.00  0.00    -0.198 A  
HETATM    9 CL   UNL     1     -10.337   5.433  67.828  1.00  0.00    -0.234 Cl 
HETATM   10  C   UNL     1      -9.555   6.453  71.665  1.00  0.00    -0.171 A  
HETATM   11  C   UNL     1      -9.208   5.220  72.219  1.00  0.00    -0.153 A  
BRANCH   8  12
HETATM   12  C   UNL     1     -10.125   7.984  69.823  1.00  0.00    -0.196 C  
HETATM   13  O   UNL     1     -11.228   8.472  70.071  1.00  0.00    -0.205 OA 
HETATM   14  N   UNL     1      -9.109   8.620  69.124  1.00  0.00    -0.142 N  
HETATM   15  H   UNL     1      -8.265   8.077  68.944  1.00  0.00     0.000 HD 
BRANCH  14  16
HETATM   16  C   UNL     1      -9.129   9.955  68.635  1.00  0.00    -0.132 A  
HETATM   17  C   UNL     1      -8.483  11.006  69.280  1.00  0.00     0.051 A  
HETATM   18  C   UNL     1      -8.493  12.288  68.740  1.00  0.00     0.113 A  
HETATM   19  C   UNL     1      -9.174  12.558  67.550  1.00  0.00    -0.188 A  
HETATM   20  C   UNL     1      -9.912  11.551  66.894  1.00  0.00    -0.231 A  
HETATM   21 CL   UNL     1      -8.967  14.168  66.939  1.00  0.00    -0.253 Cl 
HETATM   22  C   UNL     1      -9.831  10.238  67.447  1.00  0.00    -0.214 A  
BRANCH  20  23
HETATM   23  C   UNL     1     -10.767  11.793  65.700  1.00  0.00    -0.280 A  
HETATM   24  C   UNL     1     -10.365  11.495  64.393  1.00  0.00    -0.364 A  
HETATM   25  C   UNL     1     -11.218  11.747  63.320  1.00  0.00    -0.357 A  
HETATM   26  C   UNL     1     -12.445  12.338  63.560  1.00  0.00    -0.642 A  
HETATM   27  C   UNL     1     -12.766  12.648  64.870  1.00  0.00    -0.370 A  
HETATM   28  N   UNL     1     -11.965  12.391  65.934  1.00  0.00    -0.587 NA 
ENDBRANCH  20  23
ENDBRANCH  14  16
ENDBRANCH   8  12
ENDBRANCH   2   5
TORSDOF 4
ENDMDL
MODEL       92
REMARK 921   NORMALIZED FREE ENERGY PREDICTED BY IDOCK:   -4.70 KCAL/MOL
REMARK 922        TOTAL FREE ENERGY PREDICTED BY IDOCK:   -6.43 KCAL/MOL
REMARK 923 INTER-LIGAND FREE ENERGY PREDICTED BY IDOCK:   -5.76 KCAL/MOL
REMARK 924 INTRA-LIGAND FREE ENERGY PREDICTED BY IDOCK:   -0.67 KCAL/MOL
REMARK 927      BINDING AFFINITY PREDICTED BY RF-SCORE:    0.00 PKD
ROOT
HETATM    1  C   UNL     1     -10.898   5.855  69.375  1.00  0.00    -0.352 C  
HETATM    2  S   UNL     1     -10.102   5.875  67.789  1.00  0.00    -0.178 S  
HETATM    3  O   UNL     1     -11.114   5.699  66.763  1.00  0.00    -0.188 OA 
HETATM    4  O   UNL     1      -8.944   5.002  67.849  1.00  0.00    -0.106 OA 
ENDROOT
BRANCH   2   5
HETATM    5  C   UNL     1      -9.494   7.540  67.659  1.00  0.00    -0.138 A  
HETATM    6  C   UNL     1     -10.329   8.553  67.176  1.00  0.00    -0.377 A  
HETATM    7  C   UNL     1      -9.834   9.859  67.015  1.00  0.00    -0.191 A  
HETATM    8  C   UNL     1      -8.509  10.157  67.355  1.00  0.00    -0.122 A  
HETATM    9 CL   UNL     1     -10.926  11.010  66.332  1.00  0.00    -0.254 Cl 
HETATM   10  C   UNL     1      -7.702   9.121  67.885  1.00  0.00    -0.093 A  
HETATM   11  C   UNL     1      -8.187   7.822  68.045  1.00  0.00    -0.123 A  
BRANCH   8  12
HETATM   12  C   UNL     1      -7.809  11.458  67.116  1.00  0.00    -0.156 C  
HETATM   13  O   UNL     1      -6.995  11.464  66.192  1.00  0.00    -0.010 OA 
HETATM   14  N   UNL     1      -8.088  12.537  67.942  1.00  0.00    -0.150 N  
HETATM   15  H   UNL     1      -8.747  12.376  68.703  1.00  0.00     0.000 HD 
BRANCH  14  16
HETATM   16  C   UNL     1      -7.544  13.846  67.832  1.00  0.00    -0.156 A  
HETATM   17  C   UNL     1      -6.178  14.106  67.905  1.00  0.00    -0.164 A  
HETATM   18  C   UNL     1      -5.688  15.399  67.746  1.00  0.00    -0.138 A  
HETATM   19  C   UNL     1      -6.557  16.472  67.536  1.00  0.00    -0.151 A  
HETATM   20  C   UNL     1      -7.955  16.282  67.532  1.00  0.00    -0.171 A  
HETATM   21 CL   UNL     1      -5.780  17.989  67.214  1.00  0.00    -0.147 Cl 
HETATM   22  C   UNL     1      -8.416  14.936  67.640  1.00  0.00    -0.176 A  
BRANCH  20  23
HETATM   23  C   UNL     1      -8.943  17.392  67.447  1.00  0.00    -0.231 A  
HETATM   24  C   UNL     1      -9.725  17.640  66.313  1.00  0.00    -0.275 A  
HETATM   25  C   UNL     1     -10.633  18.697  66.303  1.00  0.00    -0.396 A  
HETATM   26  C   UNL     1     -10.716  19.525  67.408  1.00  0.00    -0.589 A  
HETATM   27  C   UNL     1      -9.885  19.252  68.480  1.00  0.00    -0.424 A  
HETATM   28  N   UNL     1      -9.011  18.216  68.525  1.00  0.00    -0.302 NA 
ENDBRANCH  20  23
ENDBRANCH  14  16
ENDBRANCH   8  12
ENDBRANCH   2   5
TORSDOF 4
ENDMDL
MODEL       93
REMARK 921   NORMALIZED FREE ENERGY PREDICTED BY IDOCK:   -4.68 KCAL/MOL
REMARK 922        TOTAL FREE ENERGY PREDICTED BY IDOCK:   -6.40 KCAL/MOL
REMARK 923 INTER-LIGAND FREE ENERGY PREDICTED BY IDOCK:   -5.88 KCAL/MOL
REMARK 924 INTRA-LIGAND FREE ENERGY PREDICTED BY IDOCK:   -0.52 KCAL/MOL
REMARK 927      BINDING AFFINITY PREDICTED BY RF-SCORE:    0.00 PKD
ROOT
HETATM    1  C   UNL     1     -10.673  18.781  67.932  1.00  0.00    -0.285 C  
HETATM    2  S   UNL     1     -10.031  18.198  66.385  1.00  0.00    -0.369 S  
HETATM    3  O   UNL     1      -8.831  18.951  66.071  1.00  0.00    -0.464 OA 
HETATM    4  O   UNL     1     -11.127  18.114  65.438  1.00  0.00    -0.314 OA 
ENDROOT
BRANCH   2   5
HETATM    5  C   UNL     1      -9.532  16.532  66.754  1.00  0.00    -0.249 A  
HETATM    6  C   UNL     1      -8.186  16.244  67.008  1.00  0.00    -0.238 A  
HETATM    7  C   UNL     1      -7.780  14.920  67.241  1.00  0.00    -0.197 A  
HETATM    8  C   UNL     1      -8.720  13.882  67.238  1.00  0.00    -0.225 A  
HETATM    9 CL   UNL     1      -6.084  14.670  67.459  1.00  0.00    -0.064 Cl 
HETATM   10  C   UNL     1     -10.081  14.210  67.025  1.00  0.00    -0.261 A  
HETATM   11  C   UNL     1     -10.491  15.523  66.791  1.00  0.00    -0.295 A  
BRANCH   8  12
HETATM   12  C   UNL     1      -8.420  12.420  67.338  1.00  0.00    -0.179 C  
HETATM   13  O   UNL     1      -7.663  12.091  68.251  1.00  0.00    -0.113 OA 
HETATM   14  N   UNL     1      -8.973  11.552  66.406  1.00  0.00    -0.195 N  
HETATM   15  H   UNL     1      -9.542  11.969  65.670  1.00  0.00     0.000 HD 
BRANCH  14  16
HETATM   16  C   UNL     1      -8.822  10.138  66.378  1.00  0.00    -0.143 A  
HETATM   17  C   UNL     1      -8.342   9.452  65.266  1.00  0.00    -0.147 A  
HETATM   18  C   UNL     1      -8.170   8.071  65.300  1.00  0.00    -0.148 A  
HETATM   19  C   UNL     1      -8.499   7.337  66.442  1.00  0.00    -0.129 A  
HETATM   20  C   UNL     1      -9.064   7.967  67.570  1.00  0.00    -0.146 A  
HETATM   21 CL   UNL     1      -8.088   5.653  66.371  1.00  0.00    -0.105 Cl 
HETATM   22  C   UNL     1      -9.172   9.389  67.519  1.00  0.00    -0.139 A  
BRANCH  20  23
HETATM   23  C   UNL     1      -9.561   7.236  68.767  1.00  0.00    -0.142 A  
HETATM   24  C   UNL     1     -10.838   6.668  68.846  1.00  0.00    -0.326 A  
HETATM   25  C   UNL     1     -11.238   5.995  69.999  1.00  0.00    -0.425 A  
HETATM   26  C   UNL     1     -10.376   5.939  71.079  1.00  0.00    -0.281 A  
HETATM   27  C   UNL     1      -9.145   6.558  70.954  1.00  0.00    -0.154 A  
HETATM   28  N   UNL     1      -8.722   7.198  69.835  1.00  0.00    -0.141 NA 
ENDBRANCH  20  23
ENDBRANCH  14  16
ENDBRANCH   8  12
ENDBRANCH   2   5
TORSDOF 4
ENDMDL
MODEL       94
REMARK 921   NORMALIZED FREE ENERGY PREDICTED BY IDOCK:   -4.68 KCAL/MOL
REMARK 922        TOTAL FREE ENERGY PREDICTED BY IDOCK:   -6.39 KCAL/MOL
REMARK 923 INTER-LIGAND FREE ENERGY PREDICTED BY IDOCK:   -5.68 KCAL/MOL
REMARK 924 INTRA-LIGAND FREE ENERGY PREDICTED BY IDOCK:   -0.72 KCAL/MOL
REMARK 927      BINDING AFFINITY PREDICTED BY RF-SCORE:    0.00 PKD
ROOT
HETATM    1  C   UNL     1      -5.154  19.181  71.184  1.00  0.00    -0.279 C  
HETATM    2  S   UNL     1      -6.166  19.462  69.754  1.00  0.00    -0.265 S  
HETATM    3  O   UNL     1      -5.358  20.111  68.738  1.00  0.00    -0.203 OA 
HETATM    4  O   UNL     1      -7.422  20.044  70.190  1.00  0.00     0.135 OA 
ENDROOT
BRANCH   2   5
HETATM    5  C   UNL     1      -6.524  17.818  69.180  1.00  0.00    -0.240 A  
HETATM    6  C   UNL     1      -7.385  17.629  68.093  1.00  0.00    -0.228 A  
HETATM    7  C   UNL     1      -7.718  16.329  67.675  1.00  0.00    -0.143 A  
HETATM    8  C   UNL     1      -7.178  15.217  68.332  1.00  0.00    -0.114 A  
HETATM    9 CL   UNL     1      -8.854  16.213  66.378  1.00  0.00    -0.326 Cl 
HETATM   10  C   UNL     1      -6.274  15.440  69.398  1.00  0.00    -0.128 A  
HETATM   11  C   UNL     1      -5.940  16.728  69.820  1.00  0.00    -0.226 A  
BRANCH   8  12
HETATM   12  C   UNL     1      -7.541  13.786  68.087  1.00  0.00    -0.128 C  
HETATM   13  O   UNL     1      -6.612  13.049  67.756  1.00  0.00    -0.113 OA 
HETATM   14  N   UNL     1      -8.866  13.394  68.215  1.00  0.00    -0.186 N  
HETATM   15  H   UNL     1      -9.541  14.123  68.445  1.00  0.00     0.000 HD 
BRANCH  14  16
HETATM   16  C   UNL     1      -9.374  12.075  68.057  1.00  0.00    -0.196 A  
HETATM   17  C   UNL     1      -9.601  11.498  66.810  1.00  0.00    -0.203 A  
HETATM   18  C   UNL     1     -10.058  10.187  66.704  1.00  0.00    -0.283 A  
HETATM   19  C   UNL     1     -10.324   9.428  67.846  1.00  0.00    -0.225 A  
HETATM   20  C   UNL     1     -10.189   9.986  69.134  1.00  0.00    -0.224 A  
HETATM   21 CL   UNL     1     -10.745   7.773  67.541  1.00  0.00    -0.301 Cl 
HETATM   22  C   UNL     1      -9.665  11.311  69.204  1.00  0.00     0.008 A  
BRANCH  20  23
HETATM   23  C   UNL     1     -10.580   9.285  70.388  1.00  0.00    -0.248 A  
HETATM   24  C   UNL     1      -9.654   8.795  71.315  1.00  0.00    -0.323 A  
HETATM   25  C   UNL     1     -10.091   8.149  72.471  1.00  0.00    -0.370 A  
HETATM   26  C   UNL     1     -11.447   7.956  72.663  1.00  0.00    -0.454 A  
HETATM   27  C   UNL     1     -12.308   8.425  71.687  1.00  0.00    -0.320 A  
HETATM   28  N   UNL     1     -11.911   9.078  70.567  1.00  0.00    -0.096 NA 
ENDBRANCH  20  23
ENDBRANCH  14  16
ENDBRANCH   8  12
ENDBRANCH   2   5
TORSDOF 4
ENDMDL
MODEL       95
REMARK 921   NORMALIZED FREE ENERGY PREDICTED BY IDOCK:   -4.67 KCAL/MOL
REMARK 922        TOTAL FREE ENERGY PREDICTED BY IDOCK:   -6.39 KCAL/MOL
REMARK 923 INTER-LIGAND FREE ENERGY PREDICTED BY IDOCK:   -5.91 KCAL/MOL
REMARK 924 INTRA-LIGAND FREE ENERGY PREDICTED BY IDOCK:   -0.48 KCAL/MOL
REMARK 927      BINDING AFFINITY PREDICTED BY RF-SCORE:    0.00 PKD
ROOT
HETATM    1  C   UNL     1     -10.546  17.579  67.188  1.00  0.00    -0.264 C  
HETATM    2  S   UNL     1      -9.616  16.533  66.098  1.00  0.00    -0.306 S  
HETATM    3  O   UNL     1      -8.240  16.993  66.079  1.00  0.00    -0.463 OA 
HETATM    4  O   UNL     1     -10.366  16.377  64.865  1.00  0.00    -0.590 OA 
ENDROOT
BRANCH   2   5
HETATM    5  C   UNL     1      -9.640  14.960  66.925  1.00  0.00    -0.245 A  
HETATM    6  C   UNL     1      -8.455  14.231  67.077  1.00  0.00    -0.190 A  
HETATM    7  C   UNL     1      -8.480  12.961  67.677  1.00  0.00    -0.183 A  
HETATM    8  C   UNL     1      -9.687  12.424  68.142  1.00  0.00    -0.214 A  
HETATM    9 CL   UNL     1      -6.974  12.116  67.737  1.00  0.00    -0.097 Cl 
HETATM   10  C   UNL     1     -10.861  13.204  68.016  1.00  0.00    -0.261 A  
HETATM   11  C   UNL     1     -10.844  14.466  67.420  1.00  0.00    -0.293 A  
BRANCH   8  12
HETATM   12  C   UNL     1      -9.889  11.041  68.677  1.00  0.00    -0.193 C  
HETATM   13  O   UNL     1     -10.857  10.430  68.225  1.00  0.00    -0.218 OA 
HETATM   14  N   UNL     1      -9.018  10.556  69.643  1.00  0.00    -0.398 N  
HETATM   15  H   UNL     1      -8.288  11.191  69.965  1.00  0.00     0.000 HD 
BRANCH  14  16
HETATM   16  C   UNL     1      -9.043   9.260  70.226  1.00  0.00    -0.237 A  
HETATM   17  C   UNL     1      -9.080   9.051  71.602  1.00  0.00    -0.178 A  
HETATM   18  C   UNL     1      -9.148   7.764  72.127  1.00  0.00    -0.192 A  
HETATM   19  C   UNL     1      -9.156   6.648  71.286  1.00  0.00    -0.151 A  
HETATM   20  C   UNL     1      -9.040   6.794  69.888  1.00  0.00    -0.144 A  
HETATM   21 CL   UNL     1      -9.392   5.129  72.090  1.00  0.00    -0.157 Cl 
HETATM   22  C   UNL     1      -9.030   8.130  69.385  1.00  0.00    -0.147 A  
BRANCH  20  23
HETATM   23  C   UNL     1      -8.908   5.653  68.942  1.00  0.00    -0.109 A  
HETATM   24  C   UNL     1      -9.917   5.273  68.050  1.00  0.00    -0.202 A  
HETATM   25  C   UNL     1      -9.725   4.194  67.189  1.00  0.00    -0.224 A  
HETATM   26  C   UNL     1      -8.546   3.474  67.264  1.00  0.00    -0.119 A  
HETATM   27  C   UNL     1      -7.606   3.874  68.197  1.00  0.00    -0.066 A  
HETATM   28  N   UNL     1      -7.757   4.935  69.028  1.00  0.00    -0.072 NA 
ENDBRANCH  20  23
ENDBRANCH  14  16
ENDBRANCH   8  12
ENDBRANCH   2   5
TORSDOF 4
ENDMDL
MODEL       96
REMARK 921   NORMALIZED FREE ENERGY PREDICTED BY IDOCK:   -4.65 KCAL/MOL
REMARK 922        TOTAL FREE ENERGY PREDICTED BY IDOCK:   -6.36 KCAL/MOL
REMARK 923 INTER-LIGAND FREE ENERGY PREDICTED BY IDOCK:   -6.45 KCAL/MOL
REMARK 924 INTRA-LIGAND FREE ENERGY PREDICTED BY IDOCK:    0.09 KCAL/MOL
REMARK 927      BINDING AFFINITY PREDICTED BY RF-SCORE:    0.00 PKD
ROOT
HETATM    1  C   UNL     1      -9.402   2.180  68.659  1.00  0.00    -0.175 C  
HETATM    2  S   UNL     1      -8.298   3.103  69.696  1.00  0.00    -0.057 S  
HETATM    3  O   UNL     1      -6.972   3.061  69.109  1.00  0.00    -0.040 OA 
HETATM    4  O   UNL     1      -8.517   2.696  71.072  1.00  0.00    -0.056 OA 
ENDROOT
BRANCH   2   5
HETATM    5  C   UNL     1      -8.896   4.770  69.544  1.00  0.00    -0.087 A  
HETATM    6  C   UNL     1     -10.075   5.152  70.194  1.00  0.00    -0.342 A  
HETATM    7  C   UNL     1     -10.582   6.452  70.028  1.00  0.00    -0.236 A  
HETATM    8  C   UNL     1      -9.903   7.378  69.226  1.00  0.00    -0.168 A  
HETATM    9 CL   UNL     1     -12.087   6.789  70.807  1.00  0.00    -0.438 Cl 
HETATM   10  C   UNL     1      -8.688   6.976  68.619  1.00  0.00    -0.123 A  
HETATM   11  C   UNL     1      -8.180   5.686  68.778  1.00  0.00    -0.103 A  
BRANCH   8  12
HETATM   12  C   UNL     1     -10.387   8.743  68.851  1.00  0.00    -0.212 C  
HETATM   13  O   UNL     1     -11.157   9.275  69.652  1.00  0.00    -0.212 OA 
HETATM   14  N   UNL     1      -9.976   9.299  67.648  1.00  0.00    -0.183 N  
HETATM   15  H   UNL     1      -9.377   8.724  67.056  1.00  0.00     0.000 HD 
BRANCH  14  16
HETATM   16  C   UNL     1     -10.309  10.592  67.159  1.00  0.00    -0.228 A  
HETATM   17  C   UNL     1     -10.332  10.905  65.803  1.00  0.00    -0.303 A  
HETATM   18  C   UNL     1     -10.707  12.173  65.369  1.00  0.00    -0.323 A  
HETATM   19  C   UNL     1     -11.046  13.171  66.286  1.00  0.00    -0.287 A  
HETATM   20  C   UNL     1     -10.964  12.937  67.674  1.00  0.00    -0.274 A  
HETATM   21 CL   UNL     1     -11.629  14.645  65.580  1.00  0.00    -0.345 Cl 
HETATM   22  C   UNL     1     -10.631  11.610  68.079  1.00  0.00    -0.232 A  
BRANCH  20  23
HETATM   23  C   UNL     1     -11.180  13.987  68.707  1.00  0.00    -0.271 A  
HETATM   24  C   UNL     1     -12.152  13.891  69.709  1.00  0.00    -0.404 A  
HETATM   25  C   UNL     1     -12.298  14.912  70.647  1.00  0.00    -0.406 A  
HETATM   26  C   UNL     1     -11.504  16.040  70.544  1.00  0.00    -0.409 A  
HETATM   27  C   UNL     1     -10.592  16.092  69.505  1.00  0.00    -0.306 A  
HETATM   28  N   UNL     1     -10.413  15.103  68.595  1.00  0.00    -0.228 NA 
ENDBRANCH  20  23
ENDBRANCH  14  16
ENDBRANCH   8  12
ENDBRANCH   2   5
TORSDOF 4
ENDMDL
MODEL       97
REMARK 921   NORMALIZED FREE ENERGY PREDICTED BY IDOCK:   -4.64 KCAL/MOL
REMARK 922        TOTAL FREE ENERGY PREDICTED BY IDOCK:   -6.35 KCAL/MOL
REMARK 923 INTER-LIGAND FREE ENERGY PREDICTED BY IDOCK:   -5.99 KCAL/MOL
REMARK 924 INTRA-LIGAND FREE ENERGY PREDICTED BY IDOCK:   -0.36 KCAL/MOL
REMARK 927      BINDING AFFINITY PREDICTED BY RF-SCORE:    0.00 PKD
ROOT
HETATM    1  C   UNL     1      -8.741   6.072  67.788  1.00  0.00    -0.104 C  
HETATM    2  S   UNL     1      -9.552   7.000  66.510  1.00  0.00    -0.103 S  
HETATM    3  O   UNL     1     -10.961   6.655  66.514  1.00  0.00    -0.159 OA 
HETATM    4  O   UNL     1      -8.761   6.893  65.297  1.00  0.00    -0.057 OA 
ENDROOT
BRANCH   2   5
HETATM    5  C   UNL     1      -9.413   8.679  67.077  1.00  0.00    -0.171 A  
HETATM    6  C   UNL     1     -10.484   9.282  67.746  1.00  0.00    -0.313 A  
HETATM    7  C   UNL     1     -10.400  10.628  68.142  1.00  0.00    -0.176 A  
HETATM    8  C   UNL     1      -9.239  11.368  67.886  1.00  0.00    -0.164 A  
HETATM    9 CL   UNL     1     -11.811  11.293  68.885  1.00  0.00    -0.401 Cl 
HETATM   10  C   UNL     1      -8.155  10.717  67.249  1.00  0.00    -0.116 A  
HETATM   11  C   UNL     1      -8.232   9.381  66.851  1.00  0.00    -0.116 A  
BRANCH   8  12
HETATM   12  C   UNL     1      -9.056  12.833  68.127  1.00  0.00    -0.203 C  
HETATM   13  O   UNL     1      -8.119  13.140  68.865  1.00  0.00     0.022 OA 
HETATM   14  N   UNL     1      -9.943  13.729  67.547  1.00  0.00    -0.230 N  
HETATM   15  H   UNL     1     -10.706  13.332  67.000  1.00  0.00     0.000 HD 
BRANCH  14  16
HETATM   16  C   UNL     1      -9.891  15.147  67.642  1.00  0.00    -0.219 A  
HETATM   17  C   UNL     1     -10.869  15.897  68.290  1.00  0.00    -0.315 A  
HETATM   18  C   UNL     1     -10.754  17.280  68.396  1.00  0.00    -0.332 A  
HETATM   19  C   UNL     1      -9.667  17.952  67.832  1.00  0.00    -0.288 A  
HETATM   20  C   UNL     1      -8.687  17.255  67.096  1.00  0.00    -0.231 A  
HETATM   21 CL   UNL     1      -9.598  19.651  68.178  1.00  0.00    -0.447 Cl 
HETATM   22  C   UNL     1      -8.809  15.834  67.057  1.00  0.00    -0.241 A  
BRANCH  20  23
HETATM   23  C   UNL     1      -7.577  17.916  66.357  1.00  0.00    -0.273 A  
HETATM   24  C   UNL     1      -6.272  17.412  66.318  1.00  0.00    -0.241 A  
HETATM   25  C   UNL     1      -5.280  18.082  65.603  1.00  0.00    -0.220 A  
HETATM   26  C   UNL     1      -5.591  19.275  64.977  1.00  0.00    -0.240 A  
HETATM   27  C   UNL     1      -6.889  19.742  65.090  1.00  0.00    -0.200 A  
HETATM   28  N   UNL     1      -7.878  19.097  65.757  1.00  0.00    -0.450 NA 
ENDBRANCH  20  23
ENDBRANCH  14  16
ENDBRANCH   8  12
ENDBRANCH   2   5
TORSDOF 4
ENDMDL
MODEL       98
REMARK 921   NORMALIZED FREE ENERGY PREDICTED BY IDOCK:   -4.63 KCAL/MOL
REMARK 922        TOTAL FREE ENERGY PREDICTED BY IDOCK:   -6.34 KCAL/MOL
REMARK 923 INTER-LIGAND FREE ENERGY PREDICTED BY IDOCK:   -6.19 KCAL/MOL
REMARK 924 INTRA-LIGAND FREE ENERGY PREDICTED BY IDOCK:   -0.15 KCAL/MOL
REMARK 927      BINDING AFFINITY PREDICTED BY RF-SCORE:    0.00 PKD
ROOT
HETATM    1  C   UNL     1      -6.781  18.448  67.278  1.00  0.00    -0.196 C  
HETATM    2  S   UNL     1      -8.528  18.173  67.138  1.00  0.00    -0.248 S  
HETATM    3  O   UNL     1      -8.903  18.290  65.742  1.00  0.00    -0.443 OA 
HETATM    4  O   UNL     1      -9.197  18.962  68.157  1.00  0.00    -0.299 OA 
ENDROOT
BRANCH   2   5
HETATM    5  C   UNL     1      -8.709  16.466  67.598  1.00  0.00    -0.182 A  
HETATM    6  C   UNL     1      -7.811  15.885  68.501  1.00  0.00    -0.142 A  
HETATM    7  C   UNL     1      -7.914  14.521  68.821  1.00  0.00    -0.142 A  
HETATM    8  C   UNL     1      -8.928  13.739  68.253  1.00  0.00    -0.186 A  
HETATM    9 CL   UNL     1      -6.702  13.891  69.879  1.00  0.00    -0.025 Cl 
HETATM   10  C   UNL     1      -9.850  14.365  67.380  1.00  0.00    -0.224 A  
HETATM   11  C   UNL     1      -9.751  15.719  67.056  1.00  0.00    -0.235 A  
BRANCH   8  12
HETATM   12  C   UNL     1      -9.082  12.257  68.394  1.00  0.00    -0.146 C  
HETATM   13  O   UNL     1      -8.270  11.574  67.768  1.00  0.00    -0.125 OA 
HETATM   14  N   UNL     1     -10.115  11.756  69.174  1.00  0.00    -0.417 N  
HETATM   15  H   UNL     1     -10.746  12.437  69.594  1.00  0.00     0.000 HD 
BRANCH  14  16
HETATM   16  C   UNL     1     -10.379  10.385  69.443  1.00  0.00    -0.237 A  
HETATM   17  C   UNL     1     -10.878   9.938  70.663  1.00  0.00    -0.400 A  
HETATM   18  C   UNL     1     -11.163   8.591  70.867  1.00  0.00    -0.304 A  
HETATM   19  C   UNL     1     -10.931   7.650  69.860  1.00  0.00    -0.200 A  
HETATM   20  C   UNL     1     -10.353   8.033  68.632  1.00  0.00    -0.224 A  
HETATM   21 CL   UNL     1     -11.475   6.043  70.221  1.00  0.00    -0.352 Cl 
HETATM   22  C   UNL     1     -10.127   9.429  68.439  1.00  0.00    -0.208 A  
BRANCH  20  23
HETATM   23  C   UNL     1      -9.955   7.072  67.567  1.00  0.00    -0.156 A  
HETATM   24  C   UNL     1     -10.777   6.029  67.126  1.00  0.00    -0.409 A  
HETATM   25  C   UNL     1     -10.341   5.166  66.122  1.00  0.00    -0.280 A  
HETATM   26  C   UNL     1      -9.069   5.324  65.603  1.00  0.00    -0.158 A  
HETATM   27  C   UNL     1      -8.289   6.348  66.112  1.00  0.00    -0.128 A  
HETATM   28  N   UNL     1      -8.698   7.217  67.071  1.00  0.00    -0.121 NA 
ENDBRANCH  20  23
ENDBRANCH  14  16
ENDBRANCH   8  12
ENDBRANCH   2   5
TORSDOF 4
ENDMDL
MODEL       99
REMARK 921   NORMALIZED FREE ENERGY PREDICTED BY IDOCK:   -4.62 KCAL/MOL
REMARK 922        TOTAL FREE ENERGY PREDICTED BY IDOCK:   -6.33 KCAL/MOL
REMARK 923 INTER-LIGAND FREE ENERGY PREDICTED BY IDOCK:   -6.02 KCAL/MOL
REMARK 924 INTRA-LIGAND FREE ENERGY PREDICTED BY IDOCK:   -0.31 KCAL/MOL
REMARK 927      BINDING AFFINITY PREDICTED BY RF-SCORE:    0.00 PKD
ROOT
HETATM    1  C   UNL     1      -7.617   4.175  67.596  1.00  0.00    -0.069 C  
HETATM    2  S   UNL     1      -9.332   4.627  67.545  1.00  0.00    -0.153 S  
HETATM    3  O   UNL     1      -9.812   4.770  68.906  1.00  0.00    -0.169 OA 
HETATM    4  O   UNL     1     -10.008   3.750  66.605  1.00  0.00    -0.121 OA 
ENDROOT
BRANCH   2   5
HETATM    5  C   UNL     1      -9.304   6.248  66.816  1.00  0.00    -0.142 A  
HETATM    6  C   UNL     1      -8.272   6.603  65.940  1.00  0.00    -0.132 A  
HETATM    7  C   UNL     1      -8.213   7.903  65.409  1.00  0.00    -0.138 A  
HETATM    8  C   UNL     1      -9.196   8.845  65.739  1.00  0.00    -0.283 A  
HETATM    9 CL   UNL     1      -6.851   8.256  64.406  1.00  0.00    -0.068 Cl 
HETATM   10  C   UNL     1     -10.252   8.442  66.590  1.00  0.00    -0.335 A  
HETATM   11  C   UNL     1     -10.316   7.154  67.123  1.00  0.00    -0.359 A  
BRANCH   8  12
HETATM   12  C   UNL     1      -9.192  10.293  65.360  1.00  0.00    -0.193 C  
HETATM   13  O   UNL     1      -8.341  10.626  64.535  1.00  0.00    -0.143 OA 
HETATM   14  N   UNL     1     -10.098  11.151  65.965  1.00  0.00    -0.236 N  
HETATM   15  H   UNL     1     -10.713  10.748  66.672  1.00  0.00     0.000 HD 
BRANCH  14  16
HETATM   16  C   UNL     1     -10.254  12.539  65.696  1.00  0.00    -0.267 A  
HETATM   17  C   UNL     1     -11.140  13.027  64.739  1.00  0.00    -0.347 A  
HETATM   18  C   UNL     1     -11.291  14.397  64.540  1.00  0.00    -0.328 A  
HETATM   19  C   UNL     1     -10.539  15.314  65.278  1.00  0.00    -0.417 A  
HETATM   20  C   UNL     1      -9.570  14.876  66.205  1.00  0.00    -0.340 A  
HETATM   21 CL   UNL     1     -10.951  16.978  65.014  1.00  0.00    -0.162 Cl 
HETATM   22  C   UNL     1      -9.484  13.468  66.421  1.00  0.00    -0.236 A  
BRANCH  20  23
HETATM   23  C   UNL     1      -8.641  15.788  66.928  1.00  0.00    -0.247 A  
HETATM   24  C   UNL     1      -7.825  16.724  66.282  1.00  0.00    -0.334 A  
HETATM   25  C   UNL     1      -6.980  17.548  67.023  1.00  0.00    -0.207 A  
HETATM   26  C   UNL     1      -6.922  17.394  68.396  1.00  0.00    -0.201 A  
HETATM   27  C   UNL     1      -7.721  16.421  68.969  1.00  0.00    -0.235 A  
HETATM   28  N   UNL     1      -8.571  15.624  68.275  1.00  0.00    -0.156 NA 
ENDBRANCH  20  23
ENDBRANCH  14  16
ENDBRANCH   8  12
ENDBRANCH   2   5
TORSDOF 4
ENDMDL
MODEL      100
REMARK 921   NORMALIZED FREE ENERGY PREDICTED BY IDOCK:   -4.60 KCAL/MOL
REMARK 922        TOTAL FREE ENERGY PREDICTED BY IDOCK:   -6.30 KCAL/MOL
REMARK 923 INTER-LIGAND FREE ENERGY PREDICTED BY IDOCK:   -5.49 KCAL/MOL
REMARK 924 INTRA-LIGAND FREE ENERGY PREDICTED BY IDOCK:   -0.81 KCAL/MOL
REMARK 927      BINDING AFFINITY PREDICTED BY RF-SCORE:    0.00 PKD
ROOT
HETATM    1  C   UNL     1     -12.160  14.444  64.721  1.00  0.00    -0.452 C  
HETATM    2  S   UNL     1     -11.380  14.347  66.312  1.00  0.00    -0.357 S  
HETATM    3  O   UNL     1     -12.368  14.651  67.329  1.00  0.00    -0.203 OA 
HETATM    4  O   UNL     1     -10.125  15.075  66.251  1.00  0.00    -0.257 OA 
ENDROOT
BRANCH   2   5
HETATM    5  C   UNL     1     -10.974  12.622  66.461  1.00  0.00    -0.269 A  
HETATM    6  C   UNL     1     -11.076  11.985  67.703  1.00  0.00    -0.319 A  
HETATM    7  C   UNL     1     -10.699  10.638  67.837  1.00  0.00    -0.248 A  
HETATM    8  C   UNL     1     -10.237   9.921  66.727  1.00  0.00    -0.301 A  
HETATM    9 CL   UNL     1     -10.786   9.977  69.431  1.00  0.00    -0.248 Cl 
HETATM   10  C   UNL     1     -10.189  10.579  65.474  1.00  0.00    -0.325 A  
HETATM   11  C   UNL     1     -10.559  11.918  65.334  1.00  0.00    -0.315 A  
BRANCH   8  12
HETATM   12  C   UNL     1      -9.679   8.532  66.744  1.00  0.00    -0.236 C  
HETATM   13  O   UNL     1      -8.470   8.440  66.530  1.00  0.00    -0.107 OA 
HETATM   14  N   UNL     1     -10.536   7.463  66.963  1.00  0.00    -0.316 N  
HETATM   15  H   UNL     1     -11.525   7.681  67.074  1.00  0.00     0.000 HD 
BRANCH  14  16
HETATM   16  C   UNL     1     -10.168   6.092  67.048  1.00  0.00    -0.205 A  
HETATM   17  C   UNL     1     -10.432   5.174  66.034  1.00  0.00    -0.241 A  
HETATM   18  C   UNL     1     -10.014   3.851  66.143  1.00  0.00    -0.070 A  
HETATM   19  C   UNL     1      -9.341   3.405  67.283  1.00  0.00    -0.201 A  
HETATM   20  C   UNL     1      -9.115   4.269  68.375  1.00  0.00    -0.172 A  
HETATM   21 CL   UNL     1      -8.761   1.772  67.197  1.00  0.00    -0.115 Cl 
HETATM   22  C   UNL     1      -9.507   5.630  68.204  1.00  0.00    -0.125 A  
BRANCH  20  23
HETATM   23  C   UNL     1      -8.526   3.833  69.670  1.00  0.00    -0.060 A  
HETATM   24  C   UNL     1      -7.153   3.865  69.940  1.00  0.00    -0.042 A  
HETATM   25  C   UNL     1      -6.669   3.443  71.177  1.00  0.00    -0.031 A  
HETATM   26  C   UNL     1      -7.558   2.946  72.114  1.00  0.00    -0.053 A  
HETATM   27  C   UNL     1      -8.897   2.900  71.769  1.00  0.00    -0.076 A  
HETATM   28  N   UNL     1      -9.396   3.328  70.583  1.00  0.00    -0.146 NA 
ENDBRANCH  20  23
ENDBRANCH  14  16
ENDBRANCH   8  12
ENDBRANCH   2   5
TORSDOF 4
ENDMDL
MODEL      101
REMARK 921   NORMALIZED FREE ENERGY PREDICTED BY IDOCK:   -4.58 KCAL/MOL
REMARK 922        TOTAL FREE ENERGY PREDICTED BY IDOCK:   -6.27 KCAL/MOL
REMARK 923 INTER-LIGAND FREE ENERGY PREDICTED BY IDOCK:   -5.84 KCAL/MOL
REMARK 924 INTRA-LIGAND FREE ENERGY PREDICTED BY IDOCK:   -0.43 KCAL/MOL
REMARK 927      BINDING AFFINITY PREDICTED BY RF-SCORE:    0.00 PKD
ROOT
HETATM    1  C   UNL     1      -5.659   4.227  68.252  1.00  0.00    -0.017 C  
HETATM    2  S   UNL     1      -6.273   4.807  69.812  1.00  0.00    -0.027 S  
HETATM    3  O   UNL     1      -5.173   5.397  70.551  1.00  0.00    -0.004 OA 
HETATM    4  O   UNL     1      -7.088   3.760  70.400  1.00  0.00    -0.037 OA 
ENDROOT
BRANCH   2   5
HETATM    5  C   UNL     1      -7.373   6.126  69.351  1.00  0.00    -0.091 A  
HETATM    6  C   UNL     1      -8.758   5.939  69.423  1.00  0.00    -0.116 A  
HETATM    7  C   UNL     1      -9.630   6.957  69.003  1.00  0.00    -0.136 A  
HETATM    8  C   UNL     1      -9.120   8.171  68.526  1.00  0.00    -0.136 A  
HETATM    9 CL   UNL     1     -11.317   6.587  69.057  1.00  0.00    -0.344 Cl 
HETATM   10  C   UNL     1      -7.715   8.347  68.508  1.00  0.00    -0.104 A  
HETATM   11  C   UNL     1      -6.843   7.340  68.922  1.00  0.00    -0.072 A  
BRANCH   8  12
HETATM   12  C   UNL     1      -9.915   9.286  67.924  1.00  0.00    -0.187 C  
HETATM   13  O   UNL     1     -10.946   9.590  68.523  1.00  0.00    -0.168 OA 
HETATM   14  N   UNL     1      -9.472   9.873  66.747  1.00  0.00    -0.163 N  
HETATM   15  H   UNL     1      -8.626   9.487  66.330  1.00  0.00     0.000 HD 
BRANCH  14  16
HETATM   16  C   UNL     1     -10.083  10.963  66.067  1.00  0.00    -0.249 A  
HETATM   17  C   UNL     1     -10.575  10.861  64.768  1.00  0.00    -0.316 A  
HETATM   18  C   UNL     1     -11.205  11.942  64.158  1.00  0.00    -0.446 A  
HETATM   19  C   UNL     1     -11.336  13.163  64.824  1.00  0.00    -0.324 A  
HETATM   20  C   UNL     1     -10.787  13.349  66.110  1.00  0.00    -0.287 A  
HETATM   21 CL   UNL     1     -12.272  14.357  63.983  1.00  0.00    -0.418 Cl 
HETATM   22  C   UNL     1     -10.200  12.203  66.725  1.00  0.00    -0.224 A  
BRANCH  20  23
HETATM   23  C   UNL     1     -10.771  14.654  66.825  1.00  0.00    -0.301 A  
HETATM   24  C   UNL     1     -11.367  14.853  68.075  1.00  0.00    -0.337 A  
HETATM   25  C   UNL     1     -11.312  16.103  68.690  1.00  0.00    -0.365 A  
HETATM   26  C   UNL     1     -10.705  17.154  68.026  1.00  0.00    -0.372 A  
HETATM   27  C   UNL     1     -10.173  16.902  66.773  1.00  0.00    -0.306 A  
HETATM   28  N   UNL     1     -10.191  15.690  66.165  1.00  0.00    -0.291 NA 
ENDBRANCH  20  23
ENDBRANCH  14  16
ENDBRANCH   8  12
ENDBRANCH   2   5
TORSDOF 4
ENDMDL
MODEL      102
REMARK 921   NORMALIZED FREE ENERGY PREDICTED BY IDOCK:   -4.50 KCAL/MOL
REMARK 922        TOTAL FREE ENERGY PREDICTED BY IDOCK:   -6.18 KCAL/MOL
REMARK 923 INTER-LIGAND FREE ENERGY PREDICTED BY IDOCK:   -5.40 KCAL/MOL
REMARK 924 INTRA-LIGAND FREE ENERGY PREDICTED BY IDOCK:   -0.78 KCAL/MOL
REMARK 927      BINDING AFFINITY PREDICTED BY RF-SCORE:    0.00 PKD
ROOT
HETATM    1  C   UNL     1      -9.639  15.267  66.926  1.00  0.00    -0.233 C  
HETATM    2  S   UNL     1     -11.047  14.189  66.859  1.00  0.00    -0.316 S  
HETATM    3  O   UNL     1     -11.183  13.694  65.502  1.00  0.00    -0.292 OA 
HETATM    4  O   UNL     1     -12.156  14.845  67.528  1.00  0.00    -0.246 OA 
ENDROOT
BRANCH   2   5
HETATM    5  C   UNL     1     -10.559  12.819  67.880  1.00  0.00    -0.221 A  
HETATM    6  C   UNL     1      -9.277  12.271  67.750  1.00  0.00    -0.191 A  
HETATM    7  C   UNL     1      -8.909  11.150  68.512  1.00  0.00    -0.161 A  
HETATM    8  C   UNL     1      -9.814  10.585  69.420  1.00  0.00    -0.205 A  
HETATM    9 CL   UNL     1      -7.334  10.506  68.210  1.00  0.00    -0.086 Cl 
HETATM   10  C   UNL     1     -11.086  11.190  69.563  1.00  0.00    -0.311 A  
HETATM   11  C   UNL     1     -11.459  12.302  68.807  1.00  0.00    -0.360 A  
BRANCH   8  12
HETATM   12  C   UNL     1      -9.612   9.322  70.196  1.00  0.00    -0.220 C  
HETATM   13  O   UNL     1      -8.730   9.358  71.054  1.00  0.00    -0.261 OA 
HETATM   14  N   UNL     1     -10.386   8.212  69.892  1.00  0.00    -0.210 N  
HETATM   15  H   UNL     1     -11.045   8.307  69.121  1.00  0.00     0.000 HD 
BRANCH  14  16
HETATM   16  C   UNL     1     -10.350   6.953  70.553  1.00  0.00    -0.204 A  
HETATM   17  C   UNL     1     -10.904   6.745  71.813  1.00  0.00    -0.257 A  
HETATM   18  C   UNL     1     -10.884   5.484  72.402  1.00  0.00    -0.301 A  
HETATM   19  C   UNL     1     -10.285   4.401  71.753  1.00  0.00    -0.131 A  
HETATM   20  C   UNL     1      -9.638   4.569  70.511  1.00  0.00    -0.274 A  
HETATM   21 CL   UNL     1     -10.474   2.874  72.554  1.00  0.00    -0.188 Cl 
HETATM   22  C   UNL     1      -9.729   5.862  69.914  1.00  0.00    -0.208 A  
BRANCH  20  23
HETATM   23  C   UNL     1      -8.866   3.497  69.826  1.00  0.00    -0.090 A  
HETATM   24  C   UNL     1      -9.410   2.673  68.833  1.00  0.00    -0.223 A  
HETATM   25  C   UNL     1      -8.628   1.688  68.231  1.00  0.00    -0.092 A  
HETATM   26  C   UNL     1      -7.326   1.505  68.661  1.00  0.00    -0.043 A  
HETATM   27  C   UNL     1      -6.863   2.323  69.677  1.00  0.00    -0.033 A  
HETATM   28  N   UNL     1      -7.594   3.304  70.261  1.00  0.00    -0.044 NA 
ENDBRANCH  20  23
ENDBRANCH  14  16
ENDBRANCH   8  12
ENDBRANCH   2   5
TORSDOF 4
ENDMDL
MODEL      103
REMARK 921   NORMALIZED FREE ENERGY PREDICTED BY IDOCK:   -4.50 KCAL/MOL
REMARK 922        TOTAL FREE ENERGY PREDICTED BY IDOCK:   -6.17 KCAL/MOL
REMARK 923 INTER-LIGAND FREE ENERGY PREDICTED BY IDOCK:   -6.11 KCAL/MOL
REMARK 924 INTRA-LIGAND FREE ENERGY PREDICTED BY IDOCK:   -0.07 KCAL/MOL
REMARK 927      BINDING AFFINITY PREDICTED BY RF-SCORE:    0.00 PKD
ROOT
HETATM    1  C   UNL     1     -10.753   7.709  69.141  1.00  0.00    -0.141 C  
HETATM    2  S   UNL     1      -9.787   7.877  67.663  1.00  0.00    -0.178 S  
HETATM    3  O   UNL     1     -10.468   7.184  66.585  1.00  0.00    -0.235 OA 
HETATM    4  O   UNL     1      -8.404   7.576  67.985  1.00  0.00    -0.122 OA 
ENDROOT
BRANCH   2   5
HETATM    5  C   UNL     1      -9.875   9.618  67.316  1.00  0.00    -0.175 A  
HETATM    6  C   UNL     1     -10.775  10.095  66.356  1.00  0.00    -0.077 A  
HETATM    7  C   UNL     1     -10.805  11.463  66.036  1.00  0.00    -0.249 A  
HETATM    8  C   UNL     1      -9.948  12.359  66.687  1.00  0.00    -0.236 A  
HETATM    9 CL   UNL     1     -11.895  11.928  64.778  1.00  0.00    -0.308 Cl 
HETATM   10  C   UNL     1      -9.082  11.854  67.686  1.00  0.00    -0.179 A  
HETATM   11  C   UNL     1      -9.045  10.496  68.008  1.00  0.00    -0.138 A  
BRANCH   8  12
HETATM   12  C   UNL     1      -9.775  13.809  66.361  1.00  0.00    -0.294 C  
HETATM   13  O   UNL     1      -9.468  14.061  65.195  1.00  0.00     0.103 OA 
HETATM   14  N   UNL     1      -9.937  14.752  67.366  1.00  0.00    -0.223 N  
HETATM   15  H   UNL     1     -10.141  14.399  68.300  1.00  0.00     0.000 HD 
BRANCH  14  16
HETATM   16  C   UNL     1      -9.846  16.164  67.220  1.00  0.00    -0.241 A  
HETATM   17  C   UNL     1     -10.756  16.906  66.471  1.00  0.00    -0.087 A  
HETATM   18  C   UNL     1     -10.653  18.291  66.393  1.00  0.00    -0.318 A  
HETATM   19  C   UNL     1      -9.619  18.970  67.043  1.00  0.00    -0.318 A  
HETATM   20  C   UNL     1      -8.623  18.265  67.750  1.00  0.00    -0.263 A  
HETATM   21 CL   UNL     1      -9.719  20.700  66.967  1.00  0.00    -0.556 Cl 
HETATM   22  C   UNL     1      -8.794  16.852  67.856  1.00  0.00    -0.218 A  
BRANCH  20  23
HETATM   23  C   UNL     1      -7.423  18.905  68.354  1.00  0.00    -0.300 A  
HETATM   24  C   UNL     1      -6.573  18.251  69.253  1.00  0.00    -0.245 A  
HETATM   25  C   UNL     1      -5.463  18.912  69.779  1.00  0.00    -0.222 A  
HETATM   26  C   UNL     1      -5.243  20.234  69.439  1.00  0.00    -0.259 A  
HETATM   27  C   UNL     1      -6.144  20.836  68.579  1.00  0.00    -0.338 A  
HETATM   28  N   UNL     1      -7.216  20.210  68.034  1.00  0.00    -0.290 NA 
ENDBRANCH  20  23
ENDBRANCH  14  16
ENDBRANCH   8  12
ENDBRANCH   2   5
TORSDOF 4
ENDMDL
MODEL      104
REMARK 921   NORMALIZED FREE ENERGY PREDICTED BY IDOCK:   -4.49 KCAL/MOL
REMARK 922        TOTAL FREE ENERGY PREDICTED BY IDOCK:   -6.16 KCAL/MOL
REMARK 923 INTER-LIGAND FREE ENERGY PREDICTED BY IDOCK:   -5.75 KCAL/MOL
REMARK 924 INTRA-LIGAND FREE ENERGY PREDICTED BY IDOCK:   -0.41 KCAL/MOL
REMARK 927      BINDING AFFINITY PREDICTED BY RF-SCORE:    0.00 PKD
ROOT
HETATM    1  C   UNL     1     -10.710  15.264  65.423  1.00  0.00    -0.391 C  
HETATM    2  S   UNL     1     -11.440  13.681  65.093  1.00  0.00    -0.328 S  
HETATM    3  O   UNL     1     -10.872  13.159  63.864  1.00  0.00    -0.370 OA 
HETATM    4  O   UNL     1     -12.878  13.797  65.258  1.00  0.00    -0.681 OA 
ENDROOT
BRANCH   2   5
HETATM    5  C   UNL     1     -10.841  12.670  66.428  1.00  0.00    -0.269 A  
HETATM    6  C   UNL     1      -9.582  12.921  66.984  1.00  0.00    -0.231 A  
HETATM    7  C   UNL     1      -9.081  12.088  67.999  1.00  0.00    -0.188 A  
HETATM    8  C   UNL     1      -9.844  11.013  68.471  1.00  0.00    -0.194 A  
HETATM    9 CL   UNL     1      -7.483  12.439  68.553  1.00  0.00    -0.111 Cl 
HETATM   10  C   UNL     1     -11.133  10.813  67.920  1.00  0.00    -0.369 A  
HETATM   11  C   UNL     1     -11.637  11.635  66.911  1.00  0.00    -0.246 A  
BRANCH   8  12
HETATM   12  C   UNL     1      -9.392   9.970  69.443  1.00  0.00    -0.223 C  
HETATM   13  O   UNL     1      -9.986   9.952  70.521  1.00  0.00    -0.244 OA 
HETATM   14  N   UNL     1      -8.343   9.131  69.095  1.00  0.00    -0.120 N  
HETATM   15  H   UNL     1      -7.908   9.292  68.187  1.00  0.00     0.000 HD 
BRANCH  14  16
HETATM   16  C   UNL     1      -7.817   8.069  69.880  1.00  0.00    -0.102 A  
HETATM   17  C   UNL     1      -6.454   7.804  69.976  1.00  0.00    -0.034 A  
HETATM   18  C   UNL     1      -5.981   6.780  70.792  1.00  0.00    -0.028 A  
HETATM   19  C   UNL     1      -6.866   5.976  71.515  1.00  0.00    -0.067 A  
HETATM   20  C   UNL     1      -8.261   6.146  71.396  1.00  0.00    -0.123 A  
HETATM   21 CL   UNL     1      -6.112   4.846  72.593  1.00  0.00    -0.028 Cl 
HETATM   22  C   UNL     1      -8.705   7.241  70.596  1.00  0.00    -0.147 A  
BRANCH  20  23
HETATM   23  C   UNL     1      -9.264   5.247  72.029  1.00  0.00    -0.137 A  
HETATM   24  C   UNL     1      -9.295   3.863  71.821  1.00  0.00    -0.197 A  
HETATM   25  C   UNL     1     -10.263   3.080  72.448  1.00  0.00    -0.200 A  
HETATM   26  C   UNL     1     -11.219   3.693  73.238  1.00  0.00    -0.214 A  
HETATM   27  C   UNL     1     -11.159   5.070  73.368  1.00  0.00    -0.335 A  
HETATM   28  N   UNL     1     -10.214   5.852  72.789  1.00  0.00    -0.180 NA 
ENDBRANCH  20  23
ENDBRANCH  14  16
ENDBRANCH   8  12
ENDBRANCH   2   5
TORSDOF 4
ENDMDL
MODEL      105
REMARK 921   NORMALIZED FREE ENERGY PREDICTED BY IDOCK:   -4.39 KCAL/MOL
REMARK 922        TOTAL FREE ENERGY PREDICTED BY IDOCK:   -6.04 KCAL/MOL
REMARK 923 INTER-LIGAND FREE ENERGY PREDICTED BY IDOCK:   -5.26 KCAL/MOL
REMARK 924 INTRA-LIGAND FREE ENERGY PREDICTED BY IDOCK:   -0.79 KCAL/MOL
REMARK 927      BINDING AFFINITY PREDICTED BY RF-SCORE:    0.00 PKD
ROOT
HETATM    1  C   UNL     1      -8.944  20.203  66.609  1.00  0.00    -0.314 C  
HETATM    2  S   UNL     1      -8.887  19.589  68.272  1.00  0.00    -0.324 S  
HETATM    3  O   UNL     1     -10.062  20.064  68.979  1.00  0.00    -0.389 OA 
HETATM    4  O   UNL     1      -7.555  19.824  68.800  1.00  0.00    -0.330 OA 
ENDROOT
BRANCH   2   5
HETATM    5  C   UNL     1      -9.063  17.833  68.064  1.00  0.00    -0.269 A  
HETATM    6  C   UNL     1      -7.947  16.998  68.192  1.00  0.00    -0.206 A  
HETATM    7  C   UNL     1      -8.071  15.616  67.970  1.00  0.00    -0.136 A  
HETATM    8  C   UNL     1      -9.313  15.064  67.636  1.00  0.00    -0.194 A  
HETATM    9 CL   UNL     1      -6.613  14.694  68.072  1.00  0.00    -0.136 Cl 
HETATM   10  C   UNL     1     -10.433  15.927  67.559  1.00  0.00    -0.298 A  
HETATM   11  C   UNL     1     -10.317  17.300  67.777  1.00  0.00    -0.356 A  
BRANCH   8  12
HETATM   12  C   UNL     1      -9.570  13.643  67.243  1.00  0.00    -0.238 C  
HETATM   13  O   UNL     1     -10.071  13.479  66.131  1.00  0.00    -0.290 OA 
HETATM   14  N   UNL     1      -9.264  12.628  68.139  1.00  0.00    -0.206 N  
HETATM   15  H   UNL     1      -8.900  12.912  69.048  1.00  0.00     0.000 HD 
BRANCH  14  16
HETATM   16  C   UNL     1      -9.408  11.232  67.912  1.00  0.00    -0.161 A  
HETATM   17  C   UNL     1     -10.511  10.505  68.352  1.00  0.00    -0.212 A  
HETATM   18  C   UNL     1     -10.630   9.148  68.068  1.00  0.00    -0.253 A  
HETATM   19  C   UNL     1      -9.632   8.475  67.358  1.00  0.00    -0.160 A  
HETATM   20  C   UNL     1      -8.456   9.141  66.957  1.00  0.00    -0.123 A  
HETATM   21 CL   UNL     1     -10.001   6.827  66.963  1.00  0.00    -0.214 Cl 
HETATM   22  C   UNL     1      -8.396  10.543  67.215  1.00  0.00    -0.122 A  
BRANCH  20  23
HETATM   23  C   UNL     1      -7.295   8.463  66.316  1.00  0.00    -0.086 A  
HETATM   24  C   UNL     1      -6.405   7.639  67.015  1.00  0.00    -0.054 A  
HETATM   25  C   UNL     1      -5.340   7.034  66.351  1.00  0.00    -0.022 A  
HETATM   26  C   UNL     1      -5.146   7.297  65.007  1.00  0.00    -0.028 A  
HETATM   27  C   UNL     1      -6.036   8.155  64.384  1.00  0.00    -0.056 A  
HETATM   28  N   UNL     1      -7.095   8.737  65.001  1.00  0.00    -0.079 NA 
ENDBRANCH  20  23
ENDBRANCH  14  16
ENDBRANCH   8  12
ENDBRANCH   2   5
TORSDOF 4
ENDMDL
MODEL      106
REMARK 921   NORMALIZED FREE ENERGY PREDICTED BY IDOCK:   -4.38 KCAL/MOL
REMARK 922        TOTAL FREE ENERGY PREDICTED BY IDOCK:   -6.03 KCAL/MOL
REMARK 923 INTER-LIGAND FREE ENERGY PREDICTED BY IDOCK:   -5.29 KCAL/MOL
REMARK 924 INTRA-LIGAND FREE ENERGY PREDICTED BY IDOCK:   -0.73 KCAL/MOL
REMARK 927      BINDING AFFINITY PREDICTED BY RF-SCORE:    0.00 PKD
ROOT
HETATM    1  C   UNL     1      -8.288   3.142  65.882  1.00  0.00    -0.097 C  
HETATM    2  S   UNL     1      -7.382   4.246  64.828  1.00  0.00    -0.072 S  
HETATM    3  O   UNL     1      -7.765   3.989  63.453  1.00  0.00    -0.064 OA 
HETATM    4  O   UNL     1      -5.987   4.219  65.230  1.00  0.00    -0.022 OA 
ENDROOT
BRANCH   2   5
HETATM    5  C   UNL     1      -8.021   5.845  65.270  1.00  0.00    -0.115 A  
HETATM    6  C   UNL     1      -9.026   5.953  66.238  1.00  0.00    -0.153 A  
HETATM    7  C   UNL     1      -9.575   7.210  66.546  1.00  0.00    -0.144 A  
HETATM    8  C   UNL     1      -9.108   8.361  65.901  1.00  0.00    -0.225 A  
HETATM    9 CL   UNL     1     -10.867   7.216  67.694  1.00  0.00    -0.299 Cl 
HETATM   10  C   UNL     1      -8.058   8.225  64.960  1.00  0.00    -0.148 A  
HETATM   11  C   UNL     1      -7.510   6.981  64.648  1.00  0.00    -0.098 A  
BRANCH   8  12
HETATM   12  C   UNL     1      -9.683   9.737  66.027  1.00  0.00    -0.255 C  
HETATM   13  O   UNL     1     -10.140  10.221  64.992  1.00  0.00    -0.323 OA 
HETATM   14  N   UNL     1      -9.640  10.377  67.258  1.00  0.00    -0.154 N  
HETATM   15  H   UNL     1      -9.184   9.877  68.020  1.00  0.00     0.000 HD 
BRANCH  14  16
HETATM   16  C   UNL     1     -10.172  11.661  67.559  1.00  0.00    -0.195 A  
HETATM   17  C   UNL     1     -11.535  11.898  67.712  1.00  0.00    -0.389 A  
HETATM   18  C   UNL     1     -12.006  13.163  68.050  1.00  0.00    -0.345 A  
HETATM   19  C   UNL     1     -11.123  14.233  68.221  1.00  0.00    -0.258 A  
HETATM   20  C   UNL     1      -9.740  14.071  68.002  1.00  0.00    -0.221 A  
HETATM   21 CL   UNL     1     -11.855  15.701  68.783  1.00  0.00    -0.374 Cl 
HETATM   22  C   UNL     1      -9.289  12.749  67.712  1.00  0.00    -0.199 A  
BRANCH  20  23
HETATM   23  C   UNL     1      -8.758  15.190  68.034  1.00  0.00    -0.165 A  
HETATM   24  C   UNL     1      -7.806  15.349  69.047  1.00  0.00    -0.194 A  
HETATM   25  C   UNL     1      -6.915  16.420  69.014  1.00  0.00    -0.200 A  
HETATM   26  C   UNL     1      -7.017  17.349  67.994  1.00  0.00    -0.187 A  
HETATM   27  C   UNL     1      -8.008  17.159  67.047  1.00  0.00    -0.201 A  
HETATM   28  N   UNL     1      -8.870  16.112  67.042  1.00  0.00    -0.196 NA 
ENDBRANCH  20  23
ENDBRANCH  14  16
ENDBRANCH   8  12
ENDBRANCH   2   5
TORSDOF 4
ENDMDL
MODEL      107
REMARK 921   NORMALIZED FREE ENERGY PREDICTED BY IDOCK:   -4.34 KCAL/MOL
REMARK 922        TOTAL FREE ENERGY PREDICTED BY IDOCK:   -5.98 KCAL/MOL
REMARK 923 INTER-LIGAND FREE ENERGY PREDICTED BY IDOCK:   -5.49 KCAL/MOL
REMARK 924 INTRA-LIGAND FREE ENERGY PREDICTED BY IDOCK:   -0.49 KCAL/MOL
REMARK 927      BINDING AFFINITY PREDICTED BY RF-SCORE:    0.00 PKD
ROOT
HETATM    1  C   UNL     1      -9.971  15.396  66.839  1.00  0.00    -0.243 C  
HETATM    2  S   UNL     1     -11.439  14.513  67.301  1.00  0.00    -0.377 S  
HETATM    3  O   UNL     1     -12.315  14.441  66.147  1.00  0.00    -0.401 OA 
HETATM    4  O   UNL     1     -11.914  15.047  68.565  1.00  0.00    -0.303 OA 
ENDROOT
BRANCH   2   5
HETATM    5  C   UNL     1     -10.841  12.870  67.620  1.00  0.00    -0.232 A  
HETATM    6  C   UNL     1      -9.503  12.670  67.978  1.00  0.00    -0.209 A  
HETATM    7  C   UNL     1      -9.013  11.367  68.173  1.00  0.00    -0.169 A  
HETATM    8  C   UNL     1      -9.863  10.264  68.028  1.00  0.00    -0.171 A  
HETATM    9 CL   UNL     1      -7.327  11.233  68.529  1.00  0.00    -0.099 Cl 
HETATM   10  C   UNL     1     -11.222  10.501  67.710  1.00  0.00    -0.344 A  
HETATM   11  C   UNL     1     -11.716  11.792  67.514  1.00  0.00    -0.312 A  
BRANCH   8  12
HETATM   12  C   UNL     1      -9.456   8.825  68.072  1.00  0.00    -0.143 C  
HETATM   13  O   UNL     1      -8.425   8.543  67.461  1.00  0.00    -0.126 OA 
HETATM   14  N   UNL     1     -10.255   7.918  68.753  1.00  0.00    -0.202 N  
HETATM   15  H   UNL     1     -11.110   8.281  69.171  1.00  0.00     0.000 HD 
BRANCH  14  16
HETATM   16  C   UNL     1      -9.996   6.530  68.925  1.00  0.00    -0.151 A  
HETATM   17  C   UNL     1      -9.895   5.642  67.857  1.00  0.00    -0.158 A  
HETATM   18  C   UNL     1      -9.597   4.300  68.071  1.00  0.00    -0.204 A  
HETATM   19  C   UNL     1      -9.417   3.804  69.365  1.00  0.00    -0.187 A  
HETATM   20  C   UNL     1      -9.585   4.639  70.489  1.00  0.00    -0.268 A  
HETATM   21 CL   UNL     1      -8.908   2.148  69.449  1.00  0.00    -0.127 Cl 
HETATM   22  C   UNL     1      -9.834   6.019  70.228  1.00  0.00    -0.221 A  
BRANCH  20  23
HETATM   23  C   UNL     1      -9.540   4.155  71.896  1.00  0.00    -0.152 A  
HETATM   24  C   UNL     1     -10.410   3.182  72.402  1.00  0.00    -0.146 A  
HETATM   25  C   UNL     1     -10.311   2.774  73.731  1.00  0.00    -0.212 A  
HETATM   26  C   UNL     1      -9.377   3.377  74.554  1.00  0.00    -0.117 A  
HETATM   27  C   UNL     1      -8.577   4.363  74.004  1.00  0.00    -0.101 A  
HETATM   28  N   UNL     1      -8.635   4.761  72.709  1.00  0.00    -0.114 NA 
ENDBRANCH  20  23
ENDBRANCH  14  16
ENDBRANCH   8  12
ENDBRANCH   2   5
TORSDOF 4
ENDMDL
MODEL      108
REMARK 921   NORMALIZED FREE ENERGY PREDICTED BY IDOCK:   -4.31 KCAL/MOL
REMARK 922        TOTAL FREE ENERGY PREDICTED BY IDOCK:   -5.94 KCAL/MOL
REMARK 923 INTER-LIGAND FREE ENERGY PREDICTED BY IDOCK:   -5.48 KCAL/MOL
REMARK 924 INTRA-LIGAND FREE ENERGY PREDICTED BY IDOCK:   -0.46 KCAL/MOL
REMARK 927      BINDING AFFINITY PREDICTED BY RF-SCORE:    0.00 PKD
ROOT
HETATM    1  C   UNL     1      -8.971   6.149  72.780  1.00  0.00    -0.126 C  
HETATM    2  S   UNL     1     -10.442   6.948  72.194  1.00  0.00    -0.209 S  
HETATM    3  O   UNL     1     -11.041   7.678  73.296  1.00  0.00    -0.382 OA 
HETATM    4  O   UNL     1     -11.215   5.981  71.434  1.00  0.00    -0.284 OA 
ENDROOT
BRANCH   2   5
HETATM    5  C   UNL     1      -9.822   8.145  71.036  1.00  0.00    -0.179 A  
HETATM    6  C   UNL     1      -8.657   7.876  70.309  1.00  0.00    -0.137 A  
HETATM    7  C   UNL     1      -8.130   8.844  69.437  1.00  0.00    -0.105 A  
HETATM    8  C   UNL     1      -8.777  10.076  69.277  1.00  0.00    -0.182 A  
HETATM    9 CL   UNL     1      -6.643   8.439  68.656  1.00  0.00    -0.054 Cl 
HETATM   10  C   UNL     1      -9.979  10.301  69.991  1.00  0.00    -0.123 A  
HETATM   11  C   UNL     1     -10.506   9.344  70.860  1.00  0.00    -0.381 A  
BRANCH   8  12
HETATM   12  C   UNL     1      -8.267  11.245  68.494  1.00  0.00    -0.150 C  
HETATM   13  O   UNL     1      -8.301  11.121  67.269  1.00  0.00    -0.129 OA 
HETATM   14  N   UNL     1      -7.776  12.350  69.173  1.00  0.00    -0.324 N  
HETATM   15  H   UNL     1      -7.760  12.296  70.190  1.00  0.00     0.000 HD 
BRANCH  14  16
HETATM   16  C   UNL     1      -7.292  13.553  68.587  1.00  0.00    -0.112 A  
HETATM   17  C   UNL     1      -5.941  13.782  68.341  1.00  0.00    -0.099 A  
HETATM   18  C   UNL     1      -5.518  14.956  67.725  1.00  0.00    -0.060 A  
HETATM   19  C   UNL     1      -6.436  15.945  67.362  1.00  0.00    -0.175 A  
HETATM   20  C   UNL     1      -7.808  15.802  67.658  1.00  0.00    -0.168 A  
HETATM   21 CL   UNL     1      -5.765  17.276  66.476  1.00  0.00    -0.230 Cl 
HETATM   22  C   UNL     1      -8.210  14.562  68.238  1.00  0.00    -0.149 A  
BRANCH  20  23
HETATM   23  C   UNL     1      -8.822  16.866  67.423  1.00  0.00    -0.204 A  
HETATM   24  C   UNL     1      -9.860  17.149  68.318  1.00  0.00    -0.288 A  
HETATM   25  C   UNL     1     -10.776  18.161  68.035  1.00  0.00    -0.297 A  
HETATM   26  C   UNL     1     -10.674  18.847  66.838  1.00  0.00    -0.447 A  
HETATM   27  C   UNL     1      -9.652  18.489  65.976  1.00  0.00    -0.059 A  
HETATM   28  N   UNL     1      -8.733  17.526  66.238  1.00  0.00    -0.433 NA 
ENDBRANCH  20  23
ENDBRANCH  14  16
ENDBRANCH   8  12
ENDBRANCH   2   5
TORSDOF 4
ENDMDL
MODEL      109
REMARK 921   NORMALIZED FREE ENERGY PREDICTED BY IDOCK:   -4.30 KCAL/MOL
REMARK 922        TOTAL FREE ENERGY PREDICTED BY IDOCK:   -5.93 KCAL/MOL
REMARK 923 INTER-LIGAND FREE ENERGY PREDICTED BY IDOCK:   -5.20 KCAL/MOL
REMARK 924 INTRA-LIGAND FREE ENERGY PREDICTED BY IDOCK:   -0.73 KCAL/MOL
REMARK 927      BINDING AFFINITY PREDICTED BY RF-SCORE:    0.00 PKD
ROOT
HETATM    1  C   UNL     1      -7.841  16.616  67.854  1.00  0.00    -0.166 C  
HETATM    2  S   UNL     1      -9.188  15.997  66.880  1.00  0.00    -0.239 S  
HETATM    3  O   UNL     1      -8.956  16.353  65.493  1.00  0.00    -0.352 OA 
HETATM    4  O   UNL     1     -10.431  16.353  67.542  1.00  0.00    -0.293 OA 
ENDROOT
BRANCH   2   5
HETATM    5  C   UNL     1      -9.012  14.234  67.016  1.00  0.00    -0.236 A  
HETATM    6  C   UNL     1      -9.846  13.389  66.274  1.00  0.00    -0.295 A  
HETATM    7  C   UNL     1      -9.750  11.995  66.423  1.00  0.00    -0.225 A  
HETATM    8  C   UNL     1      -8.809  11.443  67.301  1.00  0.00    -0.153 A  
HETATM    9 CL   UNL     1     -10.883  11.052  65.522  1.00  0.00    -0.217 Cl 
HETATM   10  C   UNL     1      -7.949  12.321  68.003  1.00  0.00    -0.150 A  
HETATM   11  C   UNL     1      -8.040  13.707  67.861  1.00  0.00    -0.164 A  
BRANCH   8  12
HETATM   12  C   UNL     1      -8.682   9.996  67.662  1.00  0.00    -0.121 C  
HETATM   13  O   UNL     1      -7.568   9.500  67.495  1.00  0.00    -0.094 OA 
HETATM   14  N   UNL     1      -9.800   9.313  68.119  1.00  0.00    -0.157 N  
HETATM   15  H   UNL     1     -10.675   9.836  68.159  1.00  0.00     0.000 HD 
BRANCH  14  16
HETATM   16  C   UNL     1      -9.846   7.955  68.538  1.00  0.00    -0.177 A  
HETATM   17  C   UNL     1     -10.179   6.910  67.680  1.00  0.00    -0.235 A  
HETATM   18  C   UNL     1     -10.167   5.591  68.124  1.00  0.00    -0.232 A  
HETATM   19  C   UNL     1      -9.846   5.285  69.449  1.00  0.00    -0.195 A  
HETATM   20  C   UNL     1      -9.578   6.307  70.383  1.00  0.00    -0.183 A  
HETATM   21 CL   UNL     1      -9.735   3.591  69.801  1.00  0.00    -0.199 Cl 
HETATM   22  C   UNL     1      -9.543   7.641  69.878  1.00  0.00    -0.160 A  
BRANCH  20  23
HETATM   23  C   UNL     1      -9.359   6.067  71.836  1.00  0.00    -0.150 A  
HETATM   24  C   UNL     1     -10.395   5.783  72.732  1.00  0.00    -0.221 A  
HETATM   25  C   UNL     1     -10.119   5.566  74.081  1.00  0.00    -0.255 A  
HETATM   26  C   UNL     1      -8.816   5.686  74.529  1.00  0.00    -0.118 A  
HETATM   27  C   UNL     1      -7.843   6.013  73.601  1.00  0.00    -0.103 A  
HETATM   28  N   UNL     1      -8.082   6.203  72.279  1.00  0.00    -0.109 NA 
ENDBRANCH  20  23
ENDBRANCH  14  16
ENDBRANCH   8  12
ENDBRANCH   2   5
TORSDOF 4
ENDMDL
MODEL      110
REMARK 921   NORMALIZED FREE ENERGY PREDICTED BY IDOCK:   -4.30 KCAL/MOL
REMARK 922        TOTAL FREE ENERGY PREDICTED BY IDOCK:   -5.92 KCAL/MOL
REMARK 923 INTER-LIGAND FREE ENERGY PREDICTED BY IDOCK:   -5.44 KCAL/MOL
REMARK 924 INTRA-LIGAND FREE ENERGY PREDICTED BY IDOCK:   -0.48 KCAL/MOL
REMARK 927      BINDING AFFINITY PREDICTED BY RF-SCORE:    0.00 PKD
ROOT
HETATM    1  C   UNL     1      -8.449  17.536  66.787  1.00  0.00    -0.250 C  
HETATM    2  S   UNL     1     -10.122  16.960  66.661  1.00  0.00    -0.313 S  
HETATM    3  O   UNL     1     -10.477  16.881  65.257  1.00  0.00    -0.638 OA 
HETATM    4  O   UNL     1     -10.937  17.717  67.594  1.00  0.00    -0.296 OA 
ENDROOT
BRANCH   2   5
HETATM    5  C   UNL     1     -10.027  15.297  67.282  1.00  0.00    -0.226 A  
HETATM    6  C   UNL     1      -8.780  14.722  67.554  1.00  0.00    -0.195 A  
HETATM    7  C   UNL     1      -8.698  13.388  67.988  1.00  0.00    -0.178 A  
HETATM    8  C   UNL     1      -9.863  12.631  68.167  1.00  0.00    -0.226 A  
HETATM    9 CL   UNL     1      -7.106  12.756  68.213  1.00  0.00    -0.094 Cl 
HETATM   10  C   UNL     1     -11.111  13.255  67.928  1.00  0.00    -0.287 A  
HETATM   11  C   UNL     1     -11.200  14.579  67.495  1.00  0.00    -0.333 A  
BRANCH   8  12
HETATM   12  C   UNL     1      -9.925  11.172  68.492  1.00  0.00    -0.199 C  
HETATM   13  O   UNL     1     -10.030  10.896  69.687  1.00  0.00    -0.073 OA 
HETATM   14  N   UNL     1      -9.834  10.246  67.463  1.00  0.00    -0.169 N  
HETATM   15  H   UNL     1      -9.698  10.615  66.523  1.00  0.00     0.000 HD 
BRANCH  14  16
HETATM   16  C   UNL     1      -9.914   8.832  67.592  1.00  0.00    -0.193 A  
HETATM   17  C   UNL     1     -10.636   8.033  66.710  1.00  0.00    -0.225 A  
HETATM   18  C   UNL     1     -10.648   6.648  66.849  1.00  0.00    -0.376 A  
HETATM   19  C   UNL     1      -9.958   6.028  67.894  1.00  0.00    -0.131 A  
HETATM   20  C   UNL     1      -9.275   6.791  68.864  1.00  0.00    -0.131 A  
HETATM   21 CL   UNL     1      -9.955   4.294  67.840  1.00  0.00    -0.117 Cl 
HETATM   22  C   UNL     1      -9.237   8.202  68.655  1.00  0.00    -0.143 A  
BRANCH  20  23
HETATM   23  C   UNL     1      -8.632   6.211  70.074  1.00  0.00    -0.136 A  
HETATM   24  C   UNL     1      -7.301   5.778  70.104  1.00  0.00    -0.073 A  
HETATM   25  C   UNL     1      -6.761   5.246  71.274  1.00  0.00    -0.044 A  
HETATM   26  C   UNL     1      -7.571   5.106  72.387  1.00  0.00    -0.096 A  
HETATM   27  C   UNL     1      -8.889   5.513  72.279  1.00  0.00    -0.132 A  
HETATM   28  N   UNL     1      -9.432   6.057  71.161  1.00  0.00    -0.163 NA 
ENDBRANCH  20  23
ENDBRANCH  14  16
ENDBRANCH   8  12
ENDBRANCH   2   5
TORSDOF 4
ENDMDL
MODEL      111
REMARK 921   NORMALIZED FREE ENERGY PREDICTED BY IDOCK:   -4.27 KCAL/MOL
REMARK 922        TOTAL FREE ENERGY PREDICTED BY IDOCK:   -5.89 KCAL/MOL
REMARK 923 INTER-LIGAND FREE ENERGY PREDICTED BY IDOCK:   -5.52 KCAL/MOL
REMARK 924 INTRA-LIGAND FREE ENERGY PREDICTED BY IDOCK:   -0.37 KCAL/MOL
REMARK 927      BINDING AFFINITY PREDICTED BY RF-SCORE:    0.00 PKD
ROOT
HETATM    1  C   UNL     1     -12.114  15.914  71.607  1.00  0.00    -0.484 C  
HETATM    2  S   UNL     1     -13.548  14.874  71.511  1.00  0.00    -0.467 S  
HETATM    3  O   UNL     1     -14.343  15.288  70.370  1.00  0.00     0.355 OA 
HETATM    4  O   UNL     1     -14.137  14.785  72.836  1.00  0.00    -0.434 OA 
ENDROOT
BRANCH   2   5
HETATM    5  C   UNL     1     -12.867  13.276  71.135  1.00  0.00    -0.280 A  
HETATM    6  C   UNL     1     -13.328  12.142  71.814  1.00  0.00    -0.342 A  
HETATM    7  C   UNL     1     -12.750  10.886  71.562  1.00  0.00    -0.428 A  
HETATM    8  C   UNL     1     -11.724  10.758  70.618  1.00  0.00    -0.442 A  
HETATM    9 CL   UNL     1     -13.338   9.571  72.517  1.00  0.00    -0.447 Cl 
HETATM   10  C   UNL     1     -11.312  11.915  69.914  1.00  0.00    -0.175 A  
HETATM   11  C   UNL     1     -11.879  13.166  70.160  1.00  0.00    -0.328 A  
BRANCH   8  12
HETATM   12  C   UNL     1     -10.929   9.521  70.342  1.00  0.00    -0.278 C  
HETATM   13  O   UNL     1     -11.424   8.468  70.744  1.00  0.00    -0.269 OA 
HETATM   14  N   UNL     1      -9.706   9.634  69.696  1.00  0.00    -0.199 N  
HETATM   15  H   UNL     1      -9.393  10.576  69.465  1.00  0.00     0.000 HD 
BRANCH  14  16
HETATM   16  C   UNL     1      -8.846   8.563  69.325  1.00  0.00    -0.142 A  
HETATM   17  C   UNL     1      -7.891   8.029  70.185  1.00  0.00    -0.099 A  
HETATM   18  C   UNL     1      -7.102   6.951  69.793  1.00  0.00    -0.068 A  
HETATM   19  C   UNL     1      -7.231   6.396  68.518  1.00  0.00    -0.085 A  
HETATM   20  C   UNL     1      -8.126   6.946  67.576  1.00  0.00    -0.116 A  
HETATM   21 CL   UNL     1      -6.280   4.972  68.240  1.00  0.00    -0.033 Cl 
HETATM   22  C   UNL     1      -8.957   8.013  68.033  1.00  0.00    -0.130 A  
BRANCH  20  23
HETATM   23  C   UNL     1      -8.223   6.495  66.161  1.00  0.00    -0.123 A  
HETATM   24  C   UNL     1      -8.680   5.226  65.789  1.00  0.00    -0.143 A  
HETATM   25  C   UNL     1      -8.747   4.870  64.443  1.00  0.00    -0.140 A  
HETATM   26  C   UNL     1      -8.309   5.768  63.486  1.00  0.00    -0.017 A  
HETATM   27  C   UNL     1      -7.827   6.989  63.922  1.00  0.00    -0.106 A  
HETATM   28  N   UNL     1      -7.775   7.370  65.223  1.00  0.00    -0.105 NA 
ENDBRANCH  20  23
ENDBRANCH  14  16
ENDBRANCH   8  12
ENDBRANCH   2   5
TORSDOF 4
ENDMDL
MODEL      112
REMARK 921   NORMALIZED FREE ENERGY PREDICTED BY IDOCK:   -4.19 KCAL/MOL
REMARK 922        TOTAL FREE ENERGY PREDICTED BY IDOCK:   -5.79 KCAL/MOL
REMARK 923 INTER-LIGAND FREE ENERGY PREDICTED BY IDOCK:   -5.65 KCAL/MOL
REMARK 924 INTRA-LIGAND FREE ENERGY PREDICTED BY IDOCK:   -0.14 KCAL/MOL
REMARK 927      BINDING AFFINITY PREDICTED BY RF-SCORE:    0.00 PKD
ROOT
HETATM    1  C   UNL     1      -7.997  16.076  67.200  1.00  0.00    -0.201 C  
HETATM    2  S   UNL     1      -9.746  16.216  67.467  1.00  0.00    -0.235 S  
HETATM    3  O   UNL     1     -10.366  16.664  66.234  1.00  0.00    -0.311 OA 
HETATM    4  O   UNL     1      -9.961  16.930  68.712  1.00  0.00    -0.248 OA 
ENDROOT
BRANCH   2   5
HETATM    5  C   UNL     1     -10.252  14.533  67.737  1.00  0.00    -0.226 A  
HETATM    6  C   UNL     1     -10.967  14.195  68.891  1.00  0.00    -0.280 A  
HETATM    7  C   UNL     1     -11.317  12.857  69.138  1.00  0.00    -0.273 A  
HETATM    8  C   UNL     1     -10.968  11.856  68.221  1.00  0.00    -0.273 A  
HETATM    9 CL   UNL     1     -12.124  12.542  70.632  1.00  0.00    -0.400 Cl 
HETATM   10  C   UNL     1     -10.286  12.236  67.041  1.00  0.00    -0.230 A  
HETATM   11  C   UNL     1      -9.933  13.563  66.791  1.00  0.00    -0.269 A  
BRANCH   8  12
HETATM   12  C   UNL     1     -11.154  10.384  68.411  1.00  0.00    -0.268 C  
HETATM   13  O   UNL     1     -12.286  10.026  68.734  1.00  0.00     0.294 OA 
HETATM   14  N   UNL     1     -10.065   9.539  68.244  1.00  0.00    -0.176 N  
HETATM   15  H   UNL     1      -9.171   9.978  68.026  1.00  0.00     0.000 HD 
BRANCH  14  16
HETATM   16  C   UNL     1     -10.075   8.121  68.348  1.00  0.00    -0.200 A  
HETATM   17  C   UNL     1     -10.133   7.282  67.238  1.00  0.00    -0.291 A  
HETATM   18  C   UNL     1     -10.096   5.899  67.386  1.00  0.00    -0.201 A  
HETATM   19  C   UNL     1     -10.026   5.317  68.655  1.00  0.00    -0.168 A  
HETATM   20  C   UNL     1     -10.044   6.113  69.818  1.00  0.00    -0.229 A  
HETATM   21 CL   UNL     1      -9.840   3.592  68.658  1.00  0.00    -0.041 Cl 
HETATM   22  C   UNL     1     -10.026   7.527  69.625  1.00  0.00    -0.184 A  
BRANCH  20  23
HETATM   23  C   UNL     1     -10.106   5.563  71.200  1.00  0.00    -0.207 A  
HETATM   24  C   UNL     1     -10.546   6.303  72.303  1.00  0.00    -0.244 A  
HETATM   25  C   UNL     1     -10.580   5.724  73.570  1.00  0.00    -0.295 A  
HETATM   26  C   UNL     1     -10.127   4.426  73.730  1.00  0.00    -0.199 A  
HETATM   27  C   UNL     1      -9.664   3.763  72.607  1.00  0.00    -0.144 A  
HETATM   28  N   UNL     1      -9.644   4.295  71.360  1.00  0.00    -0.158 NA 
ENDBRANCH  20  23
ENDBRANCH  14  16
ENDBRANCH   8  12
ENDBRANCH   2   5
TORSDOF 4
ENDMDL
MODEL      113
REMARK 921   NORMALIZED FREE ENERGY PREDICTED BY IDOCK:   -4.18 KCAL/MOL
REMARK 922        TOTAL FREE ENERGY PREDICTED BY IDOCK:   -5.79 KCAL/MOL
REMARK 923 INTER-LIGAND FREE ENERGY PREDICTED BY IDOCK:   -5.23 KCAL/MOL
REMARK 924 INTRA-LIGAND FREE ENERGY PREDICTED BY IDOCK:   -0.56 KCAL/MOL
REMARK 927      BINDING AFFINITY PREDICTED BY RF-SCORE:    0.00 PKD
ROOT
HETATM    1  C   UNL     1      -8.354   5.273  73.969  1.00  0.00    -0.113 C  
HETATM    2  S   UNL     1      -9.488   4.872  72.664  1.00  0.00    -0.138 S  
HETATM    3  O   UNL     1     -10.840   5.064  73.154  1.00  0.00    -0.234 OA 
HETATM    4  O   UNL     1      -9.081   3.607  72.078  1.00  0.00    -0.102 OA 
ENDROOT
BRANCH   2   5
HETATM    5  C   UNL     1      -9.176   6.133  71.451  1.00  0.00    -0.143 A  
HETATM    6  C   UNL     1      -7.860   6.468  71.114  1.00  0.00    -0.103 A  
HETATM    7  C   UNL     1      -7.608   7.506  70.200  1.00  0.00    -0.088 A  
HETATM    8  C   UNL     1      -8.672   8.198  69.609  1.00  0.00    -0.142 A  
HETATM    9 CL   UNL     1      -5.947   7.890  69.921  1.00  0.00    -0.023 Cl 
HETATM   10  C   UNL     1      -9.992   7.805  69.935  1.00  0.00    -0.191 A  
HETATM   11  C   UNL     1     -10.249   6.777  70.843  1.00  0.00    -0.215 A  
BRANCH   8  12
HETATM   12  C   UNL     1      -8.559   9.403  68.728  1.00  0.00    -0.127 C  
HETATM   13  O   UNL     1      -8.185   9.187  67.575  1.00  0.00    -0.107 OA 
HETATM   14  N   UNL     1      -8.845  10.654  69.255  1.00  0.00    -0.330 N  
HETATM   15  H   UNL     1      -9.094  10.691  70.243  1.00  0.00     0.000 HD 
BRANCH  14  16
HETATM   16  C   UNL     1      -8.825  11.890  68.552  1.00  0.00    -0.108 A  
HETATM   17  C   UNL     1      -8.043  12.971  68.947  1.00  0.00     0.206 A  
HETATM   18  C   UNL     1      -8.022  14.147  68.202  1.00  0.00    -0.143 A  
HETATM   19  C   UNL     1      -8.805  14.279  67.052  1.00  0.00    -0.226 A  
HETATM   20  C   UNL     1      -9.677  13.246  66.648  1.00  0.00    -0.270 A  
HETATM   21 CL   UNL     1      -8.554  15.746  66.161  1.00  0.00    -0.311 Cl 
HETATM   22  C   UNL     1      -9.628  12.037  67.404  1.00  0.00    -0.176 A  
BRANCH  20  23
HETATM   23  C   UNL     1     -10.635  13.366  65.516  1.00  0.00    -0.290 A  
HETATM   24  C   UNL     1     -11.524  14.438  65.370  1.00  0.00    -0.344 A  
HETATM   25  C   UNL     1     -12.394  14.487  64.283  1.00  0.00    -0.396 A  
HETATM   26  C   UNL     1     -12.403  13.440  63.379  1.00  0.00    -0.343 A  
HETATM   27  C   UNL     1     -11.531  12.389  63.603  1.00  0.00    -0.489 A  
HETATM   28  N   UNL     1     -10.657  12.328  64.638  1.00  0.00    -0.288 NA 
ENDBRANCH  20  23
ENDBRANCH  14  16
ENDBRANCH   8  12
ENDBRANCH   2   5
TORSDOF 4
ENDMDL
MODEL      114
REMARK 921   NORMALIZED FREE ENERGY PREDICTED BY IDOCK:   -4.16 KCAL/MOL
REMARK 922        TOTAL FREE ENERGY PREDICTED BY IDOCK:   -5.75 KCAL/MOL
REMARK 923 INTER-LIGAND FREE ENERGY PREDICTED BY IDOCK:   -5.68 KCAL/MOL
REMARK 924 INTRA-LIGAND FREE ENERGY PREDICTED BY IDOCK:   -0.08 KCAL/MOL
REMARK 927      BINDING AFFINITY PREDICTED BY RF-SCORE:    0.00 PKD
ROOT
HETATM    1  C   UNL     1     -12.029   4.941  73.015  1.00  0.00     0.074 C  
HETATM    2  S   UNL     1     -10.335   5.207  72.558  1.00  0.00    -0.211 S  
HETATM    3  O   UNL     1      -9.956   4.196  71.588  1.00  0.00    -0.181 OA 
HETATM    4  O   UNL     1      -9.560   5.404  73.769  1.00  0.00    -0.136 OA 
ENDROOT
BRANCH   2   5
HETATM    5  C   UNL     1     -10.383   6.768  71.709  1.00  0.00    -0.199 A  
HETATM    6  C   UNL     1     -10.507   6.803  70.315  1.00  0.00    -0.238 A  
HETATM    7  C   UNL     1     -10.485   8.032  69.636  1.00  0.00    -0.224 A  
HETATM    8  C   UNL     1     -10.357   9.231  70.350  1.00  0.00    -0.291 A  
HETATM    9 CL   UNL     1     -10.561   7.953  67.912  1.00  0.00    -0.248 Cl 
HETATM   10  C   UNL     1     -10.279   9.166  71.762  1.00  0.00    -0.305 A  
HETATM   11  C   UNL     1     -10.299   7.948  72.443  1.00  0.00    -0.333 A  
BRANCH   8  12
HETATM   12  C   UNL     1     -10.185  10.595  69.759  1.00  0.00    -0.052 C  
HETATM   13  O   UNL     1     -11.183  11.315  69.781  1.00  0.00    -0.257 OA 
HETATM   14  N   UNL     1      -8.959  10.945  69.212  1.00  0.00    -0.388 N  
HETATM   15  H   UNL     1      -8.233  10.229  69.214  1.00  0.00     0.000 HD 
BRANCH  14  16
HETATM   16  C   UNL     1      -8.616  12.204  68.648  1.00  0.00     0.004 A  
HETATM   17  C   UNL     1      -7.500  12.934  69.050  1.00  0.00     0.104 A  
HETATM   18  C   UNL     1      -7.179  14.142  68.438  1.00  0.00    -0.109 A  
HETATM   19  C   UNL     1      -7.984  14.665  67.423  1.00  0.00    -0.201 A  
HETATM   20  C   UNL     1      -9.169  14.011  67.028  1.00  0.00    -0.262 A  
HETATM   21 CL   UNL     1      -7.366  16.100  66.668  1.00  0.00    -0.219 Cl 
HETATM   22  C   UNL     1      -9.434  12.748  67.638  1.00  0.00    -0.190 A  
BRANCH  20  23
HETATM   23  C   UNL     1     -10.142  14.572  66.052  1.00  0.00    -0.318 A  
HETATM   24  C   UNL     1     -11.045  13.786  65.327  1.00  0.00    -0.315 A  
HETATM   25  C   UNL     1     -11.930  14.379  64.429  1.00  0.00    -0.471 A  
HETATM   26  C   UNL     1     -11.871  15.746  64.227  1.00  0.00    -0.120 A  
HETATM   27  C   UNL     1     -10.926  16.461  64.941  1.00  0.00    -0.263 A  
HETATM   28  N   UNL     1     -10.070  15.912  65.840  1.00  0.00    -0.327 NA 
ENDBRANCH  20  23
ENDBRANCH  14  16
ENDBRANCH   8  12
ENDBRANCH   2   5
TORSDOF 4
ENDMDL
MODEL      115
REMARK 921   NORMALIZED FREE ENERGY PREDICTED BY IDOCK:   -4.15 KCAL/MOL
REMARK 922        TOTAL FREE ENERGY PREDICTED BY IDOCK:   -5.74 KCAL/MOL
REMARK 923 INTER-LIGAND FREE ENERGY PREDICTED BY IDOCK:   -5.37 KCAL/MOL
REMARK 924 INTRA-LIGAND FREE ENERGY PREDICTED BY IDOCK:   -0.37 KCAL/MOL
REMARK 927      BINDING AFFINITY PREDICTED BY RF-SCORE:    0.00 PKD
ROOT
HETATM    1  C   UNL     1      -8.944  20.203  66.609  1.00  0.00    -0.314 C  
HETATM    2  S   UNL     1      -8.887  19.589  68.272  1.00  0.00    -0.324 S  
HETATM    3  O   UNL     1     -10.062  20.064  68.979  1.00  0.00    -0.389 OA 
HETATM    4  O   UNL     1      -7.555  19.824  68.800  1.00  0.00    -0.330 OA 
ENDROOT
BRANCH   2   5
HETATM    5  C   UNL     1      -9.063  17.833  68.064  1.00  0.00    -0.269 A  
HETATM    6  C   UNL     1      -7.947  16.998  68.192  1.00  0.00    -0.206 A  
HETATM    7  C   UNL     1      -8.071  15.616  67.970  1.00  0.00    -0.136 A  
HETATM    8  C   UNL     1      -9.313  15.064  67.636  1.00  0.00    -0.194 A  
HETATM    9 CL   UNL     1      -6.613  14.694  68.072  1.00  0.00    -0.136 Cl 
HETATM   10  C   UNL     1     -10.433  15.927  67.559  1.00  0.00    -0.298 A  
HETATM   11  C   UNL     1     -10.317  17.300  67.777  1.00  0.00    -0.356 A  
BRANCH   8  12
HETATM   12  C   UNL     1      -9.570  13.643  67.243  1.00  0.00    -0.238 C  
HETATM   13  O   UNL     1     -10.071  13.479  66.131  1.00  0.00    -0.290 OA 
HETATM   14  N   UNL     1      -9.264  12.628  68.139  1.00  0.00    -0.206 N  
HETATM   15  H   UNL     1      -8.900  12.912  69.048  1.00  0.00     0.000 HD 
BRANCH  14  16
HETATM   16  C   UNL     1      -9.408  11.232  67.912  1.00  0.00    -0.161 A  
HETATM   17  C   UNL     1     -10.401  10.698  67.095  1.00  0.00    -0.275 A  
HETATM   18  C   UNL     1     -10.476   9.327  66.868  1.00  0.00    -0.284 A  
HETATM   19  C   UNL     1      -9.572   8.450  67.474  1.00  0.00    -0.154 A  
HETATM   20  C   UNL     1      -8.595   8.926  68.374  1.00  0.00    -0.134 A  
HETATM   21 CL   UNL     1      -9.710   6.795  66.973  1.00  0.00    -0.185 Cl 
HETATM   22  C   UNL     1      -8.513  10.341  68.537  1.00  0.00    -0.121 A  
BRANCH  20  23
HETATM   23  C   UNL     1      -7.688   8.043  69.157  1.00  0.00    -0.099 A  
HETATM   24  C   UNL     1      -8.111   7.289  70.258  1.00  0.00    -0.121 A  
HETATM   25  C   UNL     1      -7.208   6.481  70.945  1.00  0.00    -0.071 A  
HETATM   26  C   UNL     1      -5.880   6.472  70.556  1.00  0.00    -0.023 A  
HETATM   27  C   UNL     1      -5.517   7.274  69.488  1.00  0.00    -0.015 A  
HETATM   28  N   UNL     1      -6.381   8.049  68.787  1.00  0.00    -0.043 NA 
ENDBRANCH  20  23
ENDBRANCH  14  16
ENDBRANCH   8  12
ENDBRANCH   2   5
TORSDOF 4
ENDMDL
MODEL      116
REMARK 921   NORMALIZED FREE ENERGY PREDICTED BY IDOCK:   -4.11 KCAL/MOL
REMARK 922        TOTAL FREE ENERGY PREDICTED BY IDOCK:   -5.69 KCAL/MOL
REMARK 923 INTER-LIGAND FREE ENERGY PREDICTED BY IDOCK:   -4.92 KCAL/MOL
REMARK 924 INTRA-LIGAND FREE ENERGY PREDICTED BY IDOCK:   -0.77 KCAL/MOL
REMARK 927      BINDING AFFINITY PREDICTED BY RF-SCORE:    0.00 PKD
ROOT
HETATM    1  C   UNL     1      -8.916  16.202  67.014  1.00  0.00    -0.211 C  
HETATM    2  S   UNL     1     -10.539  15.491  66.915  1.00  0.00    -0.307 S  
HETATM    3  O   UNL     1     -10.978  15.536  65.533  1.00  0.00    -0.338 OA 
HETATM    4  O   UNL     1     -11.352  16.061  67.974  1.00  0.00    -0.340 OA 
ENDROOT
BRANCH   2   5
HETATM    5  C   UNL     1     -10.261  13.785  67.332  1.00  0.00    -0.252 A  
HETATM    6  C   UNL     1      -9.061  13.400  67.940  1.00  0.00    -0.208 A  
HETATM    7  C   UNL     1      -8.814  12.045  68.216  1.00  0.00    -0.182 A  
HETATM    8  C   UNL     1      -9.773  11.074  67.901  1.00  0.00    -0.183 A  
HETATM    9 CL   UNL     1      -7.267  11.674  68.890  1.00  0.00    -0.113 Cl 
HETATM   10  C   UNL     1     -10.996  11.500  67.329  1.00  0.00    -0.323 A  
HETATM   11  C   UNL     1     -11.248  12.844  67.050  1.00  0.00    -0.329 A  
BRANCH   8  12
HETATM   12  C   UNL     1      -9.597   9.592  68.012  1.00  0.00    -0.143 C  
HETATM   13  O   UNL     1     -10.334   9.027  68.821  1.00  0.00    -0.207 OA 
HETATM   14  N   UNL     1      -8.625   8.967  67.244  1.00  0.00    -0.114 N  
HETATM   15  H   UNL     1      -8.050   9.567  66.653  1.00  0.00     0.000 HD 
BRANCH  14  16
HETATM   16  C   UNL     1      -8.354   7.572  67.200  1.00  0.00    -0.121 A  
HETATM   17  C   UNL     1      -7.583   6.922  68.160  1.00  0.00    -0.108 A  
HETATM   18  C   UNL     1      -7.381   5.546  68.100  1.00  0.00    -0.073 A  
HETATM   19  C   UNL     1      -7.924   4.788  67.060  1.00  0.00    -0.103 A  
HETATM   20  C   UNL     1      -8.646   5.403  66.016  1.00  0.00    -0.127 A  
HETATM   21 CL   UNL     1      -7.702   3.074  67.212  1.00  0.00    -0.073 Cl 
HETATM   22  C   UNL     1      -8.881   6.805  66.142  1.00  0.00    -0.161 A  
BRANCH  20  23
HETATM   23  C   UNL     1      -9.138   4.682  64.811  1.00  0.00    -0.149 A  
HETATM   24  C   UNL     1     -10.311   3.917  64.798  1.00  0.00    -0.184 A  
HETATM   25  C   UNL     1     -10.715   3.269  63.632  1.00  0.00    -0.247 A  
HETATM   26  C   UNL     1      -9.918   3.352  62.505  1.00  0.00    -0.113 A  
HETATM   27  C   UNL     1      -8.749   4.087  62.595  1.00  0.00    -0.097 A  
HETATM   28  N   UNL     1      -8.346   4.748  63.709  1.00  0.00    -0.118 NA 
ENDBRANCH  20  23
ENDBRANCH  14  16
ENDBRANCH   8  12
ENDBRANCH   2   5
TORSDOF 4
ENDMDL
MODEL      117
REMARK 921   NORMALIZED FREE ENERGY PREDICTED BY IDOCK:   -4.06 KCAL/MOL
REMARK 922        TOTAL FREE ENERGY PREDICTED BY IDOCK:   -5.63 KCAL/MOL
REMARK 923 INTER-LIGAND FREE ENERGY PREDICTED BY IDOCK:   -5.48 KCAL/MOL
REMARK 924 INTRA-LIGAND FREE ENERGY PREDICTED BY IDOCK:   -0.15 KCAL/MOL
REMARK 927      BINDING AFFINITY PREDICTED BY RF-SCORE:    0.00 PKD
ROOT
HETATM    1  C   UNL     1      -7.288  20.361  71.859  1.00  0.00     1.554 C  
HETATM    2  S   UNL     1      -6.002  19.893  70.729  1.00  0.00    -0.241 S  
HETATM    3  O   UNL     1      -5.146  18.920  71.382  1.00  0.00    -0.323 OA 
HETATM    4  O   UNL     1      -5.446  21.101  70.145  1.00  0.00    -0.553 OA 
ENDROOT
BRANCH   2   5
HETATM    5  C   UNL     1      -6.883  19.048  69.437  1.00  0.00    -0.237 A  
HETATM    6  C   UNL     1      -8.122  19.532  69.003  1.00  0.00    -0.255 A  
HETATM    7  C   UNL     1      -8.849  18.833  68.025  1.00  0.00    -0.300 A  
HETATM    8  C   UNL     1      -8.331  17.658  67.466  1.00  0.00    -0.221 A  
HETATM    9 CL   UNL     1     -10.403  19.475  67.625  1.00  0.00    -0.536 Cl 
HETATM   10  C   UNL     1      -7.054  17.219  67.892  1.00  0.00    -0.174 A  
HETATM   11  C   UNL     1      -6.328  17.907  68.864  1.00  0.00    -0.219 A  
BRANCH   8  12
HETATM   12  C   UNL     1      -9.043  16.743  66.520  1.00  0.00    -0.273 C  
HETATM   13  O   UNL     1      -9.422  17.253  65.466  1.00  0.00    -0.422 OA 
HETATM   14  N   UNL     1      -9.253  15.421  66.889  1.00  0.00    -0.219 N  
HETATM   15  H   UNL     1      -8.931  15.146  67.816  1.00  0.00     0.000 HD 
BRANCH  14  16
HETATM   16  C   UNL     1      -9.874  14.415  66.100  1.00  0.00    -0.320 A  
HETATM   17  C   UNL     1     -10.576  14.697  64.931  1.00  0.00    -0.446 A  
HETATM   18  C   UNL     1     -11.130  13.674  64.168  1.00  0.00    -0.250 A  
HETATM   19  C   UNL     1     -11.018  12.340  64.569  1.00  0.00    -0.315 A  
HETATM   20  C   UNL     1     -10.387  12.000  65.784  1.00  0.00    -0.289 A  
HETATM   21 CL   UNL     1     -11.634  11.181  63.435  1.00  0.00     0.120 Cl 
HETATM   22  C   UNL     1      -9.783  13.070  66.510  1.00  0.00    -0.266 A  
BRANCH  20  23
HETATM   23  C   UNL     1     -10.346  10.621  66.340  1.00  0.00    -0.231 A  
HETATM   24  C   UNL     1      -9.663   9.564  65.727  1.00  0.00    -0.357 A  
HETATM   25  C   UNL     1      -9.664   8.296  66.305  1.00  0.00    -0.253 A  
HETATM   26  C   UNL     1     -10.390   8.084  67.463  1.00  0.00    -0.330 A  
HETATM   27  C   UNL     1     -11.080   9.159  67.996  1.00  0.00     0.175 A  
HETATM   28  N   UNL     1     -11.074  10.408  67.468  1.00  0.00    -0.306 NA 
ENDBRANCH  20  23
ENDBRANCH  14  16
ENDBRANCH   8  12
ENDBRANCH   2   5
TORSDOF 4
ENDMDL
MODEL      118
REMARK 921   NORMALIZED FREE ENERGY PREDICTED BY IDOCK:   -4.05 KCAL/MOL
REMARK 922        TOTAL FREE ENERGY PREDICTED BY IDOCK:   -5.62 KCAL/MOL
REMARK 923 INTER-LIGAND FREE ENERGY PREDICTED BY IDOCK:   -5.08 KCAL/MOL
REMARK 924 INTRA-LIGAND FREE ENERGY PREDICTED BY IDOCK:   -0.54 KCAL/MOL
REMARK 927      BINDING AFFINITY PREDICTED BY RF-SCORE:    0.00 PKD
ROOT
HETATM    1  C   UNL     1      -9.442   2.144  68.261  1.00  0.00    -0.174 C  
HETATM    2  S   UNL     1      -8.781   2.699  69.811  1.00  0.00    -0.081 S  
HETATM    3  O   UNL     1      -7.345   2.493  69.799  1.00  0.00    -0.043 OA 
HETATM    4  O   UNL     1      -9.602   2.156  70.878  1.00  0.00    -0.139 OA 
ENDROOT
BRANCH   2   5
HETATM    5  C   UNL     1      -9.069   4.452  69.771  1.00  0.00    -0.112 A  
HETATM    6  C   UNL     1      -8.281   5.272  68.956  1.00  0.00    -0.085 A  
HETATM    7  C   UNL     1      -8.466   6.665  68.967  1.00  0.00    -0.130 A  
HETATM    8  C   UNL     1      -9.452   7.239  69.780  1.00  0.00    -0.149 A  
HETATM    9 CL   UNL     1      -7.382   7.587  67.987  1.00  0.00    -0.093 Cl 
HETATM   10  C   UNL     1     -10.264   6.380  70.558  1.00  0.00    -0.230 A  
HETATM   11  C   UNL     1     -10.084   4.996  70.553  1.00  0.00    -0.323 A  
BRANCH   8  12
HETATM   12  C   UNL     1      -9.674   8.703  69.996  1.00  0.00    -0.171 C  
HETATM   13  O   UNL     1      -8.981   9.225  70.870  1.00  0.00    -0.235 OA 
HETATM   14  N   UNL     1     -10.638   9.358  69.243  1.00  0.00    -0.224 N  
HETATM   15  H   UNL     1     -11.175   8.790  68.589  1.00  0.00     0.000 HD 
BRANCH  14  16
HETATM   16  C   UNL     1     -10.949  10.745  69.293  1.00  0.00    -0.241 A  
HETATM   17  C   UNL     1     -12.129  11.235  69.847  1.00  0.00    -0.414 A  
HETATM   18  C   UNL     1     -12.370  12.604  69.914  1.00  0.00    -0.126 A  
HETATM   19  C   UNL     1     -11.446  13.519  69.405  1.00  0.00    -0.282 A  
HETATM   20  C   UNL     1     -10.270  13.079  68.762  1.00  0.00    -0.102 A  
HETATM   21 CL   UNL     1     -11.830  15.185  69.699  1.00  0.00    -0.337 Cl 
HETATM   22  C   UNL     1     -10.031  11.673  68.763  1.00  0.00    -0.147 A  
BRANCH  20  23
HETATM   23  C   UNL     1      -9.308  13.987  68.081  1.00  0.00    -0.201 A  
HETATM   24  C   UNL     1      -7.921  13.902  68.248  1.00  0.00    -0.148 A  
HETATM   25  C   UNL     1      -7.076  14.785  67.576  1.00  0.00    -0.209 A  
HETATM   26  C   UNL     1      -7.629  15.774  66.783  1.00  0.00    -0.177 A  
HETATM   27  C   UNL     1      -9.009  15.832  66.695  1.00  0.00    -0.280 A  
HETATM   28  N   UNL     1      -9.851  14.971  67.317  1.00  0.00    -0.227 NA 
ENDBRANCH  20  23
ENDBRANCH  14  16
ENDBRANCH   8  12
ENDBRANCH   2   5
TORSDOF 4
ENDMDL
MODEL      119
REMARK 921   NORMALIZED FREE ENERGY PREDICTED BY IDOCK:   -3.97 KCAL/MOL
REMARK 922        TOTAL FREE ENERGY PREDICTED BY IDOCK:   -5.52 KCAL/MOL
REMARK 923 INTER-LIGAND FREE ENERGY PREDICTED BY IDOCK:   -5.44 KCAL/MOL
REMARK 924 INTRA-LIGAND FREE ENERGY PREDICTED BY IDOCK:   -0.08 KCAL/MOL
REMARK 927      BINDING AFFINITY PREDICTED BY RF-SCORE:    0.00 PKD
ROOT
HETATM    1  C   UNL     1     -10.337   6.428  67.103  1.00  0.00    -0.232 C  
HETATM    2  S   UNL     1      -8.643   6.759  66.693  1.00  0.00    -0.128 S  
HETATM    3  O   UNL     1      -8.449   6.489  65.281  1.00  0.00    -0.146 OA 
HETATM    4  O   UNL     1      -7.800   6.131  67.695  1.00  0.00    -0.102 OA 
ENDROOT
BRANCH   2   5
HETATM    5  C   UNL     1      -8.504   8.517  66.924  1.00  0.00    -0.113 A  
HETATM    6  C   UNL     1      -7.304   9.169  66.619  1.00  0.00    -0.086 A  
HETATM    7  C   UNL     1      -7.172  10.548  66.856  1.00  0.00    -0.106 A  
HETATM    8  C   UNL     1      -8.244  11.280  67.381  1.00  0.00    -0.135 A  
HETATM    9 CL   UNL     1      -5.621  11.233  66.523  1.00  0.00    -0.125 Cl 
HETATM   10  C   UNL     1      -9.460  10.601  67.635  1.00  0.00    -0.167 A  
HETATM   11  C   UNL     1      -9.598   9.231  67.404  1.00  0.00    -0.190 A  
BRANCH   8  12
HETATM   12  C   UNL     1      -8.208  12.714  67.808  1.00  0.00    -0.171 C  
HETATM   13  O   UNL     1      -9.267  13.169  68.238  1.00  0.00    -0.207 OA 
HETATM   14  N   UNL     1      -7.028  13.430  67.669  1.00  0.00    -0.154 N  
HETATM   15  H   UNL     1      -6.239  12.941  67.248  1.00  0.00     0.000 HD 
BRANCH  14  16
HETATM   16  C   UNL     1      -6.811  14.781  68.057  1.00  0.00    -0.140 A  
HETATM   17  C   UNL     1      -5.768  15.169  68.894  1.00  0.00    -0.094 A  
HETATM   18  C   UNL     1      -5.569  16.509  69.211  1.00  0.00    -0.138 A  
HETATM   19  C   UNL     1      -6.426  17.496  68.718  1.00  0.00    -0.207 A  
HETATM   20  C   UNL     1      -7.545  17.155  67.931  1.00  0.00    -0.180 A  
HETATM   21 CL   UNL     1      -5.954  19.124  69.086  1.00  0.00    -0.248 Cl 
HETATM   22  C   UNL     1      -7.684  15.779  67.580  1.00  0.00    -0.174 A  
BRANCH  20  23
HETATM   23  C   UNL     1      -8.574  18.134  67.483  1.00  0.00    -0.249 A  
HETATM   24  C   UNL     1      -8.320  19.139  66.542  1.00  0.00    -0.324 A  
HETATM   25  C   UNL     1      -9.331  20.021  66.166  1.00  0.00    -0.415 A  
HETATM   26  C   UNL     1     -10.572  19.921  66.770  1.00  0.00    -0.536 A  
HETATM   27  C   UNL     1     -10.745  18.934  67.724  1.00  0.00    -0.352 A  
HETATM   28  N   UNL     1      -9.786  18.047  68.090  1.00  0.00    -0.321 NA 
ENDBRANCH  20  23
ENDBRANCH  14  16
ENDBRANCH   8  12
ENDBRANCH   2   5
TORSDOF 4
ENDMDL
MODEL      120
REMARK 921   NORMALIZED FREE ENERGY PREDICTED BY IDOCK:   -3.95 KCAL/MOL
REMARK 922        TOTAL FREE ENERGY PREDICTED BY IDOCK:   -5.50 KCAL/MOL
REMARK 923 INTER-LIGAND FREE ENERGY PREDICTED BY IDOCK:   -5.50 KCAL/MOL
REMARK 924 INTRA-LIGAND FREE ENERGY PREDICTED BY IDOCK:   -0.00 KCAL/MOL
REMARK 927      BINDING AFFINITY PREDICTED BY RF-SCORE:    0.00 PKD
ROOT
HETATM    1  C   UNL     1     -10.346  16.237  67.882  1.00  0.00    -0.285 C  
HETATM    2  S   UNL     1     -10.019  15.472  66.315  1.00  0.00    -0.318 S  
HETATM    3  O   UNL     1      -8.675  15.828  65.900  1.00  0.00    -0.260 OA 
HETATM    4  O   UNL     1     -11.155  15.710  65.444  1.00  0.00    -0.325 OA 
ENDROOT
BRANCH   2   5
HETATM    5  C   UNL     1     -10.014  13.737  66.704  1.00  0.00    -0.279 A  
HETATM    6  C   UNL     1      -9.924  12.791  65.676  1.00  0.00    -0.249 A  
HETATM    7  C   UNL     1      -9.980  11.419  65.974  1.00  0.00    -0.231 A  
HETATM    8  C   UNL     1     -10.109  10.990  67.302  1.00  0.00    -0.222 A  
HETATM    9 CL   UNL     1      -9.945  10.342  64.623  1.00  0.00    -0.408 Cl 
HETATM   10  C   UNL     1     -10.151  11.969  68.323  1.00  0.00    -0.201 A  
HETATM   11  C   UNL     1     -10.097  13.334  68.033  1.00  0.00    -0.235 A  
BRANCH   8  12
HETATM   12  C   UNL     1     -10.314   9.579  67.756  1.00  0.00    -0.239 C  
HETATM   13  O   UNL     1     -10.963   8.862  66.994  1.00  0.00    -0.086 OA 
HETATM   14  N   UNL     1      -9.803   9.184  68.984  1.00  0.00    -0.170 N  
HETATM   15  H   UNL     1      -9.330   9.898  69.537  1.00  0.00     0.000 HD 
BRANCH  14  16
HETATM   16  C   UNL     1      -9.875   7.880  69.547  1.00  0.00    -0.176 A  
HETATM   17  C   UNL     1     -10.819   6.937  69.150  1.00  0.00    -0.262 A  
HETATM   18  C   UNL     1     -10.823   5.657  69.698  1.00  0.00    -0.365 A  
HETATM   19  C   UNL     1      -9.895   5.296  70.678  1.00  0.00    -0.198 A  
HETATM   20  C   UNL     1      -8.966   6.233  71.176  1.00  0.00    -0.146 A  
HETATM   21 CL   UNL     1      -9.941   3.627  71.149  1.00  0.00    -0.195 Cl 
HETATM   22  C   UNL     1      -8.956   7.516  70.551  1.00  0.00    -0.152 A  
BRANCH  20  23
HETATM   23  C   UNL     1      -8.040   5.962  72.309  1.00  0.00    -0.107 A  
HETATM   24  C   UNL     1      -7.028   4.996  72.260  1.00  0.00    -0.071 A  
HETATM   25  C   UNL     1      -6.193   4.796  73.359  1.00  0.00    -0.034 A  
HETATM   26  C   UNL     1      -6.410   5.528  74.512  1.00  0.00    -0.070 A  
HETATM   27  C   UNL     1      -7.455   6.435  74.511  1.00  0.00    -0.099 A  
HETATM   28  N   UNL     1      -8.265   6.668  73.448  1.00  0.00    -0.117 NA 
ENDBRANCH  20  23
ENDBRANCH  14  16
ENDBRANCH   8  12
ENDBRANCH   2   5
TORSDOF 4
ENDMDL
MODEL      121
REMARK 921   NORMALIZED FREE ENERGY PREDICTED BY IDOCK:   -3.94 KCAL/MOL
REMARK 922        TOTAL FREE ENERGY PREDICTED BY IDOCK:   -5.48 KCAL/MOL
REMARK 923 INTER-LIGAND FREE ENERGY PREDICTED BY IDOCK:   -4.82 KCAL/MOL
REMARK 924 INTRA-LIGAND FREE ENERGY PREDICTED BY IDOCK:   -0.66 KCAL/MOL
REMARK 927      BINDING AFFINITY PREDICTED BY RF-SCORE:    0.00 PKD
ROOT
HETATM    1  C   UNL     1      -8.655  17.105  68.402  1.00  0.00    -0.246 C  
HETATM    2  S   UNL     1      -9.384  16.493  66.904  1.00  0.00    -0.243 S  
HETATM    3  O   UNL     1      -8.643  17.030  65.778  1.00  0.00    -0.517 OA 
HETATM    4  O   UNL     1     -10.823  16.660  66.996  1.00  0.00    -0.230 OA 
ENDROOT
BRANCH   2   5
HETATM    5  C   UNL     1      -9.055  14.748  66.975  1.00  0.00    -0.239 A  
HETATM    6  C   UNL     1      -9.786  13.866  66.171  1.00  0.00    -0.289 A  
HETATM    7  C   UNL     1      -9.570  12.480  66.267  1.00  0.00    -0.245 A  
HETATM    8  C   UNL     1      -8.612  11.976  67.155  1.00  0.00    -0.182 A  
HETATM    9 CL   UNL     1     -10.586  11.481  65.290  1.00  0.00    -0.328 Cl 
HETATM   10  C   UNL     1      -7.856  12.896  67.921  1.00  0.00    -0.151 A  
HETATM   11  C   UNL     1      -8.066  14.272  67.832  1.00  0.00    -0.152 A  
BRANCH   8  12
HETATM   12  C   UNL     1      -8.368  10.531  67.461  1.00  0.00    -0.118 C  
HETATM   13  O   UNL     1      -7.199  10.156  67.367  1.00  0.00    -0.087 OA 
HETATM   14  N   UNL     1      -9.443   9.720  67.794  1.00  0.00    -0.133 N  
HETATM   15  H   UNL     1     -10.367  10.153  67.783  1.00  0.00     0.000 HD 
BRANCH  14  16
HETATM   16  C   UNL     1      -9.384   8.344  68.148  1.00  0.00    -0.133 A  
HETATM   17  C   UNL     1      -9.657   7.883  69.433  1.00  0.00    -0.160 A  
HETATM   18  C   UNL     1      -9.629   6.522  69.723  1.00  0.00    -0.161 A  
HETATM   19  C   UNL     1      -9.301   5.587  68.737  1.00  0.00    -0.125 A  
HETATM   20  C   UNL     1      -8.938   6.001  67.439  1.00  0.00    -0.108 A  
HETATM   21 CL   UNL     1      -9.454   3.929  69.223  1.00  0.00    -0.249 Cl 
HETATM   22  C   UNL     1      -9.033   7.398  67.165  1.00  0.00    -0.134 A  
BRANCH  20  23
HETATM   23  C   UNL     1      -8.449   5.077  66.379  1.00  0.00    -0.111 A  
HETATM   24  C   UNL     1      -7.125   4.631  66.299  1.00  0.00    -0.075 A  
HETATM   25  C   UNL     1      -6.736   3.764  65.280  1.00  0.00    -0.045 A  
HETATM   26  C   UNL     1      -7.663   3.390  64.323  1.00  0.00    -0.077 A  
HETATM   27  C   UNL     1      -8.944   3.901  64.434  1.00  0.00    -0.128 A  
HETATM   28  N   UNL     1      -9.354   4.726  65.429  1.00  0.00    -0.158 NA 
ENDBRANCH  20  23
ENDBRANCH  14  16
ENDBRANCH   8  12
ENDBRANCH   2   5
TORSDOF 4
ENDMDL
MODEL      122
REMARK 921   NORMALIZED FREE ENERGY PREDICTED BY IDOCK:   -3.89 KCAL/MOL
REMARK 922        TOTAL FREE ENERGY PREDICTED BY IDOCK:   -5.42 KCAL/MOL
REMARK 923 INTER-LIGAND FREE ENERGY PREDICTED BY IDOCK:   -4.65 KCAL/MOL
REMARK 924 INTRA-LIGAND FREE ENERGY PREDICTED BY IDOCK:   -0.76 KCAL/MOL
REMARK 927      BINDING AFFINITY PREDICTED BY RF-SCORE:    0.00 PKD
ROOT
HETATM    1  C   UNL     1      -9.822  15.789  66.773  1.00  0.00    -0.245 C  
HETATM    2  S   UNL     1     -11.157  14.638  66.574  1.00  0.00    -0.333 S  
HETATM    3  O   UNL     1     -11.307  14.346  65.160  1.00  0.00    -0.329 OA 
HETATM    4  O   UNL     1     -12.283  15.103  67.362  1.00  0.00     0.040 OA 
ENDROOT
BRANCH   2   5
HETATM    5  C   UNL     1     -10.544  13.165  67.359  1.00  0.00    -0.242 A  
HETATM    6  C   UNL     1      -9.267  12.686  67.047  1.00  0.00    -0.212 A  
HETATM    7  C   UNL     1      -8.802  11.490  67.620  1.00  0.00    -0.152 A  
HETATM    8  C   UNL     1      -9.607  10.781  68.521  1.00  0.00    -0.183 A  
HETATM    9 CL   UNL     1      -7.247  10.948  67.100  1.00  0.00    -0.098 Cl 
HETATM   10  C   UNL     1     -10.875  11.315  68.853  1.00  0.00    -0.253 A  
HETATM   11  C   UNL     1     -11.343  12.501  68.286  1.00  0.00    -0.331 A  
BRANCH   8  12
HETATM   12  C   UNL     1      -9.304   9.436  69.104  1.00  0.00    -0.159 C  
HETATM   13  O   UNL     1      -8.316   9.382  69.836  1.00  0.00    -0.130 OA 
HETATM   14  N   UNL     1     -10.112   8.358  68.771  1.00  0.00    -0.192 N  
HETATM   15  H   UNL     1     -10.868   8.536  68.110  1.00  0.00     0.000 HD 
BRANCH  14  16
HETATM   16  C   UNL     1      -9.989   7.029  69.262  1.00  0.00    -0.162 A  
HETATM   17  C   UNL     1     -10.343   6.667  70.559  1.00  0.00    -0.231 A  
HETATM   18  C   UNL     1     -10.247   5.345  70.982  1.00  0.00    -0.296 A  
HETATM   19  C   UNL     1      -9.769   4.352  70.123  1.00  0.00    -0.218 A  
HETATM   20  C   UNL     1      -9.321   4.673  68.825  1.00  0.00    -0.197 A  
HETATM   21 CL   UNL     1      -9.850   2.738  70.754  1.00  0.00    -0.098 Cl 
HETATM   22  C   UNL     1      -9.488   6.027  68.408  1.00  0.00    -0.124 A  
BRANCH  20  23
HETATM   23  C   UNL     1      -8.678   3.696  67.904  1.00  0.00    -0.106 A  
HETATM   24  C   UNL     1      -9.379   2.992  66.918  1.00  0.00    -0.137 A  
HETATM   25  C   UNL     1      -8.712   2.093  66.088  1.00  0.00    -0.116 A  
HETATM   26  C   UNL     1      -7.362   1.869  66.284  1.00  0.00    -0.061 A  
HETATM   27  C   UNL     1      -6.736   2.564  67.304  1.00  0.00    -0.040 A  
HETATM   28  N   UNL     1      -7.355   3.463  68.109  1.00  0.00    -0.051 NA 
ENDBRANCH  20  23
ENDBRANCH  14  16
ENDBRANCH   8  12
ENDBRANCH   2   5
TORSDOF 4
ENDMDL
MODEL      123
REMARK 921   NORMALIZED FREE ENERGY PREDICTED BY IDOCK:   -3.85 KCAL/MOL
REMARK 922        TOTAL FREE ENERGY PREDICTED BY IDOCK:   -5.37 KCAL/MOL
REMARK 923 INTER-LIGAND FREE ENERGY PREDICTED BY IDOCK:   -4.69 KCAL/MOL
REMARK 924 INTRA-LIGAND FREE ENERGY PREDICTED BY IDOCK:   -0.68 KCAL/MOL
REMARK 927      BINDING AFFINITY PREDICTED BY RF-SCORE:    0.00 PKD
ROOT
HETATM    1  C   UNL     1     -12.220  15.098  69.336  1.00  0.00    -0.202 C  
HETATM    2  S   UNL     1     -11.467  14.776  67.762  1.00  0.00    -0.353 S  
HETATM    3  O   UNL     1     -10.370  15.708  67.576  1.00  0.00    -0.265 OA 
HETATM    4  O   UNL     1     -12.519  14.657  66.768  1.00  0.00    -0.156 OA 
ENDROOT
BRANCH   2   5
HETATM    5  C   UNL     1     -10.762  13.158  67.972  1.00  0.00    -0.233 A  
HETATM    6  C   UNL     1      -9.822  12.680  67.052  1.00  0.00    -0.225 A  
HETATM    7  C   UNL     1      -9.307  11.379  67.180  1.00  0.00    -0.172 A  
HETATM    8  C   UNL     1      -9.718  10.559  68.239  1.00  0.00    -0.163 A  
HETATM    9 CL   UNL     1      -8.218  10.863  65.942  1.00  0.00    -0.156 Cl 
HETATM   10  C   UNL     1     -10.635  11.087  69.180  1.00  0.00    -0.253 A  
HETATM   11  C   UNL     1     -11.152  12.378  69.057  1.00  0.00    -0.288 A  
BRANCH   8  12
HETATM   12  C   UNL     1      -9.362   9.118  68.429  1.00  0.00    -0.135 C  
HETATM   13  O   UNL     1      -8.497   8.889  69.274  1.00  0.00    -0.117 OA 
HETATM   14  N   UNL     1      -9.987   8.159  67.644  1.00  0.00    -0.172 N  
HETATM   15  H   UNL     1     -10.648   8.496  66.945  1.00  0.00     0.000 HD 
BRANCH  14  16
HETATM   16  C   UNL     1      -9.795   6.752  67.720  1.00  0.00    -0.126 A  
HETATM   17  C   UNL     1      -9.963   6.029  68.899  1.00  0.00    -0.192 A  
HETATM   18  C   UNL     1      -9.808   4.647  68.915  1.00  0.00    -0.211 A  
HETATM   19  C   UNL     1      -9.454   3.952  67.756  1.00  0.00    -0.179 A  
HETATM   20  C   UNL     1      -9.193   4.639  66.552  1.00  0.00    -0.132 A  
HETATM   21 CL   UNL     1      -9.444   2.225  67.912  1.00  0.00    -0.228 Cl 
HETATM   22  C   UNL     1      -9.418   6.048  66.560  1.00  0.00    -0.177 A  
BRANCH  20  23
HETATM   23  C   UNL     1      -8.684   3.985  65.316  1.00  0.00    -0.120 A  
HETATM   24  C   UNL     1      -7.340   3.644  65.123  1.00  0.00    -0.072 A  
HETATM   25  C   UNL     1      -6.933   3.031  63.940  1.00  0.00    -0.044 A  
HETATM   26  C   UNL     1      -7.864   2.808  62.942  1.00  0.00    -0.068 A  
HETATM   27  C   UNL     1      -9.168   3.207  63.177  1.00  0.00    -0.094 A  
HETATM   28  N   UNL     1      -9.595   3.783  64.328  1.00  0.00    -0.155 NA 
ENDBRANCH  20  23
ENDBRANCH  14  16
ENDBRANCH   8  12
ENDBRANCH   2   5
TORSDOF 4
ENDMDL
MODEL      124
REMARK 921   NORMALIZED FREE ENERGY PREDICTED BY IDOCK:   -3.80 KCAL/MOL
REMARK 922        TOTAL FREE ENERGY PREDICTED BY IDOCK:   -5.31 KCAL/MOL
REMARK 923 INTER-LIGAND FREE ENERGY PREDICTED BY IDOCK:   -4.49 KCAL/MOL
REMARK 924 INTRA-LIGAND FREE ENERGY PREDICTED BY IDOCK:   -0.82 KCAL/MOL
REMARK 927      BINDING AFFINITY PREDICTED BY RF-SCORE:    0.00 PKD
ROOT
HETATM    1  C   UNL     1      -7.860  15.099  68.885  1.00  0.00    -0.164 C  
HETATM    2  S   UNL     1      -9.071  14.698  67.653  1.00  0.00    -0.200 S  
HETATM    3  O   UNL     1      -8.712  15.368  66.417  1.00  0.00    -0.297 OA 
HETATM    4  O   UNL     1     -10.390  14.869  68.237  1.00  0.00    -0.225 OA 
ENDROOT
BRANCH   2   5
HETATM    5  C   UNL     1      -8.834  12.954  67.402  1.00  0.00    -0.199 A  
HETATM    6  C   UNL     1      -9.436  12.317  66.311  1.00  0.00    -0.234 A  
HETATM    7  C   UNL     1      -9.300  10.928  66.143  1.00  0.00    -0.186 A  
HETATM    8  C   UNL     1      -8.548  10.177  67.055  1.00  0.00    -0.129 A  
HETATM    9 CL   UNL     1     -10.153  10.234  64.810  1.00  0.00    -0.398 Cl 
HETATM   10  C   UNL     1      -7.914  10.857  68.123  1.00  0.00    -0.117 A  
HETATM   11  C   UNL     1      -8.046  12.236  68.297  1.00  0.00    -0.166 A  
BRANCH   8  12
HETATM   12  C   UNL     1      -8.426   8.686  67.081  1.00  0.00    -0.114 C  
HETATM   13  O   UNL     1      -7.353   8.232  66.685  1.00  0.00    -0.080 OA 
HETATM   14  N   UNL     1      -9.507   7.927  67.507  1.00  0.00    -0.142 N  
HETATM   15  H   UNL     1     -10.355   8.434  67.758  1.00  0.00     0.000 HD 
BRANCH  14  16
HETATM   16  C   UNL     1      -9.547   6.511  67.629  1.00  0.00    -0.122 A  
HETATM   17  C   UNL     1      -9.922   5.673  66.582  1.00  0.00    -0.211 A  
HETATM   18  C   UNL     1      -9.903   4.290  66.733  1.00  0.00    -0.230 A  
HETATM   19  C   UNL     1      -9.532   3.708  67.949  1.00  0.00    -0.169 A  
HETATM   20  C   UNL     1      -9.219   4.507  69.068  1.00  0.00    -0.192 A  
HETATM   21 CL   UNL     1      -9.421   1.977  67.927  1.00  0.00    -0.217 Cl 
HETATM   22  C   UNL     1      -9.194   5.919  68.857  1.00  0.00    -0.126 A  
BRANCH  20  23
HETATM   23  C   UNL     1      -8.945   3.963  70.426  1.00  0.00    -0.097 A  
HETATM   24  C   UNL     1      -7.667   3.600  70.865  1.00  0.00    -0.047 A  
HETATM   25  C   UNL     1      -7.481   3.098  72.152  1.00  0.00    -0.052 A  
HETATM   26  C   UNL     1      -8.583   2.918  72.969  1.00  0.00    -0.079 A  
HETATM   27  C   UNL     1      -9.824   3.255  72.460  1.00  0.00    -0.150 A  
HETATM   28  N   UNL     1     -10.029   3.768  71.221  1.00  0.00    -0.147 NA 
ENDBRANCH  20  23
ENDBRANCH  14  16
ENDBRANCH   8  12
ENDBRANCH   2   5
TORSDOF 4
ENDMDL
MODEL      125
REMARK 921   NORMALIZED FREE ENERGY PREDICTED BY IDOCK:   -3.79 KCAL/MOL
REMARK 922        TOTAL FREE ENERGY PREDICTED BY IDOCK:   -5.30 KCAL/MOL
REMARK 923 INTER-LIGAND FREE ENERGY PREDICTED BY IDOCK:   -5.51 KCAL/MOL
REMARK 924 INTRA-LIGAND FREE ENERGY PREDICTED BY IDOCK:    0.21 KCAL/MOL
REMARK 927      BINDING AFFINITY PREDICTED BY RF-SCORE:    0.00 PKD
ROOT
HETATM    1  C   UNL     1      -8.007   7.782  74.404  1.00  0.00    -0.220 C  
HETATM    2  S   UNL     1      -7.741   6.372  73.361  1.00  0.00    -0.092 S  
HETATM    3  O   UNL     1      -8.597   5.293  73.818  1.00  0.00    -0.114 OA 
HETATM    4  O   UNL     1      -6.310   6.176  73.214  1.00  0.00    -0.061 OA 
ENDROOT
BRANCH   2   5
HETATM    5  C   UNL     1      -8.358   6.911  71.783  1.00  0.00    -0.108 A  
HETATM    6  C   UNL     1      -7.591   6.716  70.629  1.00  0.00    -0.095 A  
HETATM    7  C   UNL     1      -8.049   7.194  69.389  1.00  0.00    -0.130 A  
HETATM    8  C   UNL     1      -9.282   7.852  69.298  1.00  0.00    -0.148 A  
HETATM    9 CL   UNL     1      -6.984   6.973  68.047  1.00  0.00    -0.080 Cl 
HETATM   10  C   UNL     1     -10.056   7.993  70.475  1.00  0.00    -0.195 A  
HETATM   11  C   UNL     1      -9.606   7.522  71.710  1.00  0.00    -0.178 A  
BRANCH   8  12
HETATM   12  C   UNL     1      -9.833   8.527  68.082  1.00  0.00    -0.165 C  
HETATM   13  O   UNL     1     -10.696   7.898  67.468  1.00  0.00    -0.247 OA 
HETATM   14  N   UNL     1      -9.335   9.768  67.714  1.00  0.00    -0.134 N  
HETATM   15  H   UNL     1      -8.583  10.150  68.286  1.00  0.00     0.000 HD 
BRANCH  14  16
HETATM   16  C   UNL     1      -9.771  10.560  66.616  1.00  0.00    -0.189 A  
HETATM   17  C   UNL     1     -10.152  10.012  65.394  1.00  0.00    -0.317 A  
HETATM   18  C   UNL     1     -10.615  10.824  64.362  1.00  0.00    -0.246 A  
HETATM   19  C   UNL     1     -10.683  12.210  64.518  1.00  0.00    -0.310 A  
HETATM   20  C   UNL     1     -10.235  12.828  65.705  1.00  0.00    -0.292 A  
HETATM   21 CL   UNL     1     -11.416  13.060  63.195  1.00  0.00    -0.157 Cl 
HETATM   22  C   UNL     1      -9.822  11.961  66.759  1.00  0.00    -0.214 A  
BRANCH  20  23
HETATM   23  C   UNL     1     -10.153  14.302  65.893  1.00  0.00    -0.326 A  
HETATM   24  C   UNL     1      -9.591  14.903  67.025  1.00  0.00    -0.245 A  
HETATM   25  C   UNL     1      -9.545  16.291  67.135  1.00  0.00    -0.238 A  
HETATM   26  C   UNL     1     -10.106  17.065  66.135  1.00  0.00    -0.332 A  
HETATM   27  C   UNL     1     -10.685  16.410  65.063  1.00  0.00    -0.259 A  
HETATM   28  N   UNL     1     -10.721  15.062  64.920  1.00  0.00    -0.415 NA 
ENDBRANCH  20  23
ENDBRANCH  14  16
ENDBRANCH   8  12
ENDBRANCH   2   5
TORSDOF 4
ENDMDL
MODEL      126
REMARK 921   NORMALIZED FREE ENERGY PREDICTED BY IDOCK:   -3.77 KCAL/MOL
REMARK 922        TOTAL FREE ENERGY PREDICTED BY IDOCK:   -5.28 KCAL/MOL
REMARK 923 INTER-LIGAND FREE ENERGY PREDICTED BY IDOCK:   -4.72 KCAL/MOL
REMARK 924 INTRA-LIGAND FREE ENERGY PREDICTED BY IDOCK:   -0.55 KCAL/MOL
REMARK 927      BINDING AFFINITY PREDICTED BY RF-SCORE:    0.00 PKD
ROOT
HETATM    1  C   UNL     1     -12.114  15.290  72.236  1.00  0.00    -0.401 C  
HETATM    2  S   UNL     1     -13.045  14.587  70.899  1.00  0.00    -0.299 S  
HETATM    3  O   UNL     1     -12.876  15.427  69.728  1.00  0.00    -0.110 OA 
HETATM    4  O   UNL     1     -14.369  14.253  71.391  1.00  0.00    -0.324 OA 
ENDROOT
BRANCH   2   5
HETATM    5  C   UNL     1     -12.205  13.053  70.581  1.00  0.00    -0.307 A  
HETATM    6  C   UNL     1     -11.192  12.997  69.617  1.00  0.00    -0.080 A  
HETATM    7  C   UNL     1     -10.567  11.774  69.320  1.00  0.00    -0.008 A  
HETATM    8  C   UNL     1     -10.940  10.608  70.001  1.00  0.00    -0.325 A  
HETATM    9 CL   UNL     1      -9.392  11.805  68.054  1.00  0.00    -0.178 Cl 
HETATM   10  C   UNL     1     -11.935  10.705  71.004  1.00  0.00    -0.442 A  
HETATM   11  C   UNL     1     -12.561  11.916  71.301  1.00  0.00    -0.383 A  
BRANCH   8  12
HETATM   12  C   UNL     1     -10.462   9.222  69.702  1.00  0.00    -0.224 C  
HETATM   13  O   UNL     1     -11.331   8.350  69.683  1.00  0.00     0.009 OA 
HETATM   14  N   UNL     1      -9.107   9.004  69.500  1.00  0.00    -0.147 N  
HETATM   15  H   UNL     1      -8.491   9.811  69.597  1.00  0.00     0.000 HD 
BRANCH  14  16
HETATM   16  C   UNL     1      -8.492   7.764  69.172  1.00  0.00    -0.138 A  
HETATM   17  C   UNL     1      -7.570   7.134  70.003  1.00  0.00    -0.091 A  
HETATM   18  C   UNL     1      -7.027   5.899  69.660  1.00  0.00    -0.067 A  
HETATM   19  C   UNL     1      -7.376   5.273  68.461  1.00  0.00    -0.071 A  
HETATM   20  C   UNL     1      -8.244   5.899  67.543  1.00  0.00    -0.105 A  
HETATM   21 CL   UNL     1      -6.727   3.678  68.254  1.00  0.00    -0.045 Cl 
HETATM   22  C   UNL     1      -8.824   7.137  67.954  1.00  0.00    -0.124 A  
BRANCH  20  23
HETATM   23  C   UNL     1      -8.556   5.357  66.192  1.00  0.00    -0.126 A  
HETATM   24  C   UNL     1      -7.969   5.838  65.016  1.00  0.00    -0.121 A  
HETATM   25  C   UNL     1      -8.306   5.282  63.784  1.00  0.00    -0.123 A  
HETATM   26  C   UNL     1      -9.263   4.284  63.734  1.00  0.00    -0.139 A  
HETATM   27  C   UNL     1      -9.838   3.883  64.927  1.00  0.00    -0.197 A  
HETATM   28  N   UNL     1      -9.509   4.390  66.142  1.00  0.00    -0.158 NA 
ENDBRANCH  20  23
ENDBRANCH  14  16
ENDBRANCH   8  12
ENDBRANCH   2   5
TORSDOF 4
ENDMDL
MODEL      127
REMARK 921   NORMALIZED FREE ENERGY PREDICTED BY IDOCK:   -3.71 KCAL/MOL
REMARK 922        TOTAL FREE ENERGY PREDICTED BY IDOCK:   -5.20 KCAL/MOL
REMARK 923 INTER-LIGAND FREE ENERGY PREDICTED BY IDOCK:   -4.92 KCAL/MOL
REMARK 924 INTRA-LIGAND FREE ENERGY PREDICTED BY IDOCK:   -0.28 KCAL/MOL
REMARK 927      BINDING AFFINITY PREDICTED BY RF-SCORE:    0.00 PKD
ROOT
HETATM    1  C   UNL     1      -6.164   4.019  69.122  1.00  0.00    -0.028 C  
HETATM    2  S   UNL     1      -7.882   3.909  68.694  1.00  0.00    -0.067 S  
HETATM    3  O   UNL     1      -8.491   2.867  69.499  1.00  0.00    -0.057 OA 
HETATM    4  O   UNL     1      -7.991   3.892  67.246  1.00  0.00    -0.090 OA 
ENDROOT
BRANCH   2   5
HETATM    5  C   UNL     1      -8.540   5.465  69.248  1.00  0.00    -0.102 A  
HETATM    6  C   UNL     1      -8.296   5.901  70.555  1.00  0.00    -0.123 A  
HETATM    7  C   UNL     1      -8.864   7.101  71.016  1.00  0.00    -0.145 A  
HETATM    8  C   UNL     1      -9.662   7.876  70.165  1.00  0.00    -0.179 A  
HETATM    9 CL   UNL     1      -8.567   7.500  72.670  1.00  0.00    -0.141 Cl 
HETATM   10  C   UNL     1      -9.852   7.432  68.834  1.00  0.00    -0.157 A  
HETATM   11  C   UNL     1      -9.293   6.240  68.371  1.00  0.00    -0.113 A  
BRANCH   8  12
HETATM   12  C   UNL     1     -10.436   9.097  70.551  1.00  0.00    -0.236 C  
HETATM   13  O   UNL     1     -11.003   9.046  71.642  1.00  0.00    -0.315 OA 
HETATM   14  N   UNL     1     -10.491  10.168  69.671  1.00  0.00    -0.236 N  
HETATM   15  H   UNL     1     -10.016  10.054  68.776  1.00  0.00     0.000 HD 
BRANCH  14  16
HETATM   16  C   UNL     1     -11.145  11.411  69.895  1.00  0.00    -0.059 A  
HETATM   17  C   UNL     1     -12.370  11.512  70.549  1.00  0.00    -0.432 A  
HETATM   18  C   UNL     1     -12.952  12.755  70.785  1.00  0.00     0.007 A  
HETATM   19  C   UNL     1     -12.333  13.929  70.349  1.00  0.00    -0.363 A  
HETATM   20  C   UNL     1     -11.131  13.883  69.612  1.00  0.00    -0.126 A  
HETATM   21 CL   UNL     1     -13.112  15.395  70.849  1.00  0.00    -0.526 Cl 
HETATM   22  C   UNL     1     -10.537  12.597  69.439  1.00  0.00     0.235 A  
BRANCH  20  23
HETATM   23  C   UNL     1     -10.485  15.077  69.002  1.00  0.00    -0.245 A  
HETATM   24  C   UNL     1     -11.077  15.837  67.986  1.00  0.00    -0.337 A  
HETATM   25  C   UNL     1     -10.416  16.946  67.461  1.00  0.00    -0.328 A  
HETATM   26  C   UNL     1      -9.149  17.255  67.923  1.00  0.00    -0.239 A  
HETATM   27  C   UNL     1      -8.602  16.439  68.897  1.00  0.00    -0.250 A  
HETATM   28  N   UNL     1      -9.233  15.370  69.442  1.00  0.00    -0.270 NA 
ENDBRANCH  20  23
ENDBRANCH  14  16
ENDBRANCH   8  12
ENDBRANCH   2   5
TORSDOF 4
ENDMDL
MODEL      128
REMARK 921   NORMALIZED FREE ENERGY PREDICTED BY IDOCK:   -3.68 KCAL/MOL
REMARK 922        TOTAL FREE ENERGY PREDICTED BY IDOCK:   -5.16 KCAL/MOL
REMARK 923 INTER-LIGAND FREE ENERGY PREDICTED BY IDOCK:   -4.94 KCAL/MOL
REMARK 924 INTRA-LIGAND FREE ENERGY PREDICTED BY IDOCK:   -0.22 KCAL/MOL
REMARK 927      BINDING AFFINITY PREDICTED BY RF-SCORE:    0.00 PKD
ROOT
HETATM    1  C   UNL     1      -7.616  19.691  65.661  1.00  0.00    -0.175 C  
HETATM    2  S   UNL     1      -8.968  19.327  66.750  1.00  0.00    -0.343 S  
HETATM    3  O   UNL     1     -10.156  19.096  65.949  1.00  0.00    -0.465 OA 
HETATM    4  O   UNL     1      -8.970  20.309  67.819  1.00  0.00    -0.311 OA 
ENDROOT
BRANCH   2   5
HETATM    5  C   UNL     1      -8.502  17.771  67.472  1.00  0.00    -0.227 A  
HETATM    6  C   UNL     1      -7.519  17.729  68.468  1.00  0.00    -0.272 A  
HETATM    7  C   UNL     1      -7.105  16.496  68.998  1.00  0.00    -0.213 A  
HETATM    8  C   UNL     1      -7.685  15.303  68.548  1.00  0.00    -0.128 A  
HETATM    9 CL   UNL     1      -5.827  16.555  70.160  1.00  0.00    -0.201 Cl 
HETATM   10  C   UNL     1      -8.710  15.382  67.574  1.00  0.00    -0.186 A  
HETATM   11  C   UNL     1      -9.124  16.603  67.041  1.00  0.00    -0.232 A  
BRANCH   8  12
HETATM   12  C   UNL     1      -7.257  13.918  68.920  1.00  0.00    -0.103 C  
HETATM   13  O   UNL     1      -6.595  13.824  69.953  1.00  0.00    -0.093 OA 
HETATM   14  N   UNL     1      -7.596  12.860  68.089  1.00  0.00    -0.123 N  
HETATM   15  H   UNL     1      -8.105  13.090  67.235  1.00  0.00     0.000 HD 
BRANCH  14  16
HETATM   16  C   UNL     1      -7.304  11.487  68.311  1.00  0.00    -0.091 A  
HETATM   17  C   UNL     1      -6.724  10.671  67.343  1.00  0.00    -0.075 A  
HETATM   18  C   UNL     1      -6.415   9.343  67.621  1.00  0.00    -0.062 A  
HETATM   19  C   UNL     1      -6.704   8.788  68.870  1.00  0.00    -0.053 A  
HETATM   20  C   UNL     1      -7.363   9.542  69.863  1.00  0.00    -0.103 A  
HETATM   21 CL   UNL     1      -6.125   7.169  69.102  1.00  0.00    -0.026 Cl 
HETATM   22  C   UNL     1      -7.612  10.914  69.561  1.00  0.00    -0.057 A  
BRANCH  20  23
HETATM   23  C   UNL     1      -7.821   8.982  71.163  1.00  0.00    -0.116 A  
HETATM   24  C   UNL     1      -9.143   8.592  71.410  1.00  0.00    -0.295 A  
HETATM   25  C   UNL     1      -9.503   8.073  72.652  1.00  0.00    -0.317 A  
HETATM   26  C   UNL     1      -8.549   7.995  73.651  1.00  0.00    -0.322 A  
HETATM   27  C   UNL     1      -7.272   8.438  73.358  1.00  0.00    -0.067 A  
HETATM   28  N   UNL     1      -6.890   8.923  72.150  1.00  0.00    -0.287 NA 
ENDBRANCH  20  23
ENDBRANCH  14  16
ENDBRANCH   8  12
ENDBRANCH   2   5
TORSDOF 4
ENDMDL
MODEL      129
REMARK 921   NORMALIZED FREE ENERGY PREDICTED BY IDOCK:   -3.59 KCAL/MOL
REMARK 922        TOTAL FREE ENERGY PREDICTED BY IDOCK:   -5.06 KCAL/MOL
REMARK 923 INTER-LIGAND FREE ENERGY PREDICTED BY IDOCK:   -4.41 KCAL/MOL
REMARK 924 INTRA-LIGAND FREE ENERGY PREDICTED BY IDOCK:   -0.65 KCAL/MOL
REMARK 927      BINDING AFFINITY PREDICTED BY RF-SCORE:    0.00 PKD
ROOT
HETATM    1  C   UNL     1     -11.925  14.572  69.946  1.00  0.00    -0.328 C  
HETATM    2  S   UNL     1     -10.677  15.305  68.920  1.00  0.00    -0.258 S  
HETATM    3  O   UNL     1      -9.600  15.778  69.770  1.00  0.00    -0.265 OA 
HETATM    4  O   UNL     1     -11.327  16.197  67.977  1.00  0.00    -0.326 OA 
ENDROOT
BRANCH   2   5
HETATM    5  C   UNL     1     -10.053  13.926  67.988  1.00  0.00    -0.244 A  
HETATM    6  C   UNL     1      -8.680  13.655  67.973  1.00  0.00    -0.176 A  
HETATM    7  C   UNL     1      -8.178  12.602  67.190  1.00  0.00    -0.159 A  
HETATM    8  C   UNL     1      -9.048  11.807  66.435  1.00  0.00    -0.215 A  
HETATM    9 CL   UNL     1      -6.460  12.412  67.180  1.00  0.00    -0.141 Cl 
HETATM   10  C   UNL     1     -10.436  12.076  66.507  1.00  0.00    -0.253 A  
HETATM   11  C   UNL     1     -10.942  13.121  67.281  1.00  0.00    -0.288 A  
BRANCH   8  12
HETATM   12  C   UNL     1      -8.650  10.745  65.459  1.00  0.00    -0.176 C  
HETATM   13  O   UNL     1      -9.173  10.819  64.347  1.00  0.00    -0.205 OA 
HETATM   14  N   UNL     1      -7.765   9.755  65.861  1.00  0.00    -0.103 N  
HETATM   15  H   UNL     1      -7.449   9.787  66.830  1.00  0.00     0.000 HD 
BRANCH  14  16
HETATM   16  C   UNL     1      -7.255   8.700  65.055  1.00  0.00    -0.084 A  
HETATM   17  C   UNL     1      -6.061   8.801  64.346  1.00  0.00    -0.066 A  
HETATM   18  C   UNL     1      -5.579   7.727  63.604  1.00  0.00    -0.049 A  
HETATM   19  C   UNL     1      -6.295   6.529  63.532  1.00  0.00    -0.034 A  
HETATM   20  C   UNL     1      -7.549   6.396  64.164  1.00  0.00    -0.099 A  
HETATM   21 CL   UNL     1      -5.489   5.245  62.690  1.00  0.00    -0.013 Cl 
HETATM   22  C   UNL     1      -7.983   7.497  64.961  1.00  0.00    -0.132 A  
BRANCH  20  23
HETATM   23  C   UNL     1      -8.428   5.203  64.022  1.00  0.00    -0.123 A  
HETATM   24  C   UNL     1      -8.745   4.351  65.087  1.00  0.00    -0.130 A  
HETATM   25  C   UNL     1      -9.577   3.251  64.884  1.00  0.00    -0.140 A  
HETATM   26  C   UNL     1     -10.042   2.985  63.609  1.00  0.00    -0.170 A  
HETATM   27  C   UNL     1      -9.656   3.840  62.591  1.00  0.00    -0.115 A  
HETATM   28  N   UNL     1      -8.869   4.931  62.767  1.00  0.00    -0.121 NA 
ENDBRANCH  20  23
ENDBRANCH  14  16
ENDBRANCH   8  12
ENDBRANCH   2   5
TORSDOF 4
ENDMDL
MODEL      130
REMARK 921   NORMALIZED FREE ENERGY PREDICTED BY IDOCK:   -3.59 KCAL/MOL
REMARK 922        TOTAL FREE ENERGY PREDICTED BY IDOCK:   -5.05 KCAL/MOL
REMARK 923 INTER-LIGAND FREE ENERGY PREDICTED BY IDOCK:   -4.44 KCAL/MOL
REMARK 924 INTRA-LIGAND FREE ENERGY PREDICTED BY IDOCK:   -0.61 KCAL/MOL
REMARK 927      BINDING AFFINITY PREDICTED BY RF-SCORE:    0.00 PKD
ROOT
HETATM    1  C   UNL     1     -11.700  15.065  69.995  1.00  0.00    -0.306 C  
HETATM    2  S   UNL     1     -10.498  15.279  68.707  1.00  0.00    -0.246 S  
HETATM    3  O   UNL     1      -9.302  15.862  69.286  1.00  0.00    -0.238 OA 
HETATM    4  O   UNL     1     -11.153  15.900  67.570  1.00  0.00    -0.312 OA 
ENDROOT
BRANCH   2   5
HETATM    5  C   UNL     1     -10.105  13.611  68.236  1.00  0.00    -0.240 A  
HETATM    6  C   UNL     1      -8.814  13.294  67.798  1.00  0.00    -0.197 A  
HETATM    7  C   UNL     1      -8.516  11.989  67.369  1.00  0.00    -0.170 A  
HETATM    8  C   UNL     1      -9.502  10.996  67.392  1.00  0.00    -0.173 A  
HETATM    9 CL   UNL     1      -6.916  11.731  66.770  1.00  0.00    -0.096 Cl 
HETATM   10  C   UNL     1     -10.786  11.336  67.884  1.00  0.00    -0.250 A  
HETATM   11  C   UNL     1     -11.089  12.630  68.311  1.00  0.00    -0.295 A  
BRANCH   8  12
HETATM   12  C   UNL     1      -9.371   9.609  66.846  1.00  0.00    -0.146 C  
HETATM   13  O   UNL     1     -10.273   9.245  66.092  1.00  0.00    -0.273 OA 
HETATM   14  N   UNL     1      -8.289   8.831  67.232  1.00  0.00    -0.104 N  
HETATM   15  H   UNL     1      -7.643   9.242  67.905  1.00  0.00     0.000 HD 
BRANCH  14  16
HETATM   16  C   UNL     1      -7.993   7.515  66.781  1.00  0.00    -0.115 A  
HETATM   17  C   UNL     1      -7.483   7.248  65.514  1.00  0.00    -0.085 A  
HETATM   18  C   UNL     1      -7.167   5.947  65.132  1.00  0.00    -0.066 A  
HETATM   19  C   UNL     1      -7.379   4.875  66.002  1.00  0.00    -0.078 A  
HETATM   20  C   UNL     1      -7.967   5.075  67.268  1.00  0.00    -0.099 A  
HETATM   21 CL   UNL     1      -6.798   3.344  65.429  1.00  0.00    -0.051 Cl 
HETATM   22  C   UNL     1      -8.224   6.426  67.646  1.00  0.00    -0.118 A  
BRANCH  20  23
HETATM   23  C   UNL     1      -8.345   3.970  68.191  1.00  0.00    -0.092 A  
HETATM   24  C   UNL     1      -9.196   2.921  67.827  1.00  0.00    -0.250 A  
HETATM   25  C   UNL     1      -9.507   1.917  68.743  1.00  0.00    -0.199 A  
HETATM   26  C   UNL     1      -9.002   1.999  70.029  1.00  0.00    -0.147 A  
HETATM   27  C   UNL     1      -8.202   3.085  70.338  1.00  0.00    -0.048 A  
HETATM   28  N   UNL     1      -7.865   4.061  69.459  1.00  0.00    -0.053 NA 
ENDBRANCH  20  23
ENDBRANCH  14  16
ENDBRANCH   8  12
ENDBRANCH   2   5
TORSDOF 4
ENDMDL
MODEL      131
REMARK 921   NORMALIZED FREE ENERGY PREDICTED BY IDOCK:   -3.56 KCAL/MOL
REMARK 922        TOTAL FREE ENERGY PREDICTED BY IDOCK:   -5.01 KCAL/MOL
REMARK 923 INTER-LIGAND FREE ENERGY PREDICTED BY IDOCK:   -4.81 KCAL/MOL
REMARK 924 INTRA-LIGAND FREE ENERGY PREDICTED BY IDOCK:   -0.20 KCAL/MOL
REMARK 927      BINDING AFFINITY PREDICTED BY RF-SCORE:    0.00 PKD
ROOT
HETATM    1  C   UNL     1      -7.047   2.661  70.569  1.00  0.00    -0.033 C  
HETATM    2  S   UNL     1      -8.546   2.555  69.626  1.00  0.00    -0.071 S  
HETATM    3  O   UNL     1      -9.577   1.973  70.464  1.00  0.00    -0.119 OA 
HETATM    4  O   UNL     1      -8.230   1.984  68.329  1.00  0.00    -0.056 OA 
ENDROOT
BRANCH   2   5
HETATM    5  C   UNL     1      -8.977   4.258  69.354  1.00  0.00    -0.101 A  
HETATM    6  C   UNL     1     -10.109   4.800  69.974  1.00  0.00    -0.308 A  
HETATM    7  C   UNL     1     -10.486   6.129  69.715  1.00  0.00    -0.239 A  
HETATM    8  C   UNL     1      -9.723   6.923  68.850  1.00  0.00    -0.142 A  
HETATM    9 CL   UNL     1     -11.946   6.667  70.467  1.00  0.00    -0.440 Cl 
HETATM   10  C   UNL     1      -8.558   6.361  68.275  1.00  0.00    -0.114 A  
HETATM   11  C   UNL     1      -8.178   5.042  68.526  1.00  0.00    -0.085 A  
BRANCH   8  12
HETATM   12  C   UNL     1     -10.073   8.300  68.378  1.00  0.00    -0.201 C  
HETATM   13  O   UNL     1     -10.908   8.900  69.055  1.00  0.00    -0.167 OA 
HETATM   14  N   UNL     1      -9.475   8.791  67.226  1.00  0.00    -0.153 N  
HETATM   15  H   UNL     1      -8.839   8.164  66.735  1.00  0.00     0.000 HD 
BRANCH  14  16
HETATM   16  C   UNL     1      -9.664  10.083  66.664  1.00  0.00    -0.194 A  
HETATM   17  C   UNL     1     -10.524  10.324  65.596  1.00  0.00    -0.152 A  
HETATM   18  C   UNL     1     -10.711  11.614  65.107  1.00  0.00    -0.351 A  
HETATM   19  C   UNL     1     -10.020  12.695  65.660  1.00  0.00    -0.242 A  
HETATM   20  C   UNL     1      -9.077  12.501  66.690  1.00  0.00    -0.203 A  
HETATM   21 CL   UNL     1     -10.474  14.248  65.036  1.00  0.00    -0.433 Cl 
HETATM   22  C   UNL     1      -8.955  11.175  67.202  1.00  0.00    -0.145 A  
BRANCH  20  23
HETATM   23  C   UNL     1      -8.209  13.580  67.235  1.00  0.00    -0.154 A  
HETATM   24  C   UNL     1      -8.695  14.833  67.628  1.00  0.00    -0.183 A  
HETATM   25  C   UNL     1      -7.825  15.798  68.132  1.00  0.00    -0.133 A  
HETATM   26  C   UNL     1      -6.471  15.519  68.192  1.00  0.00    -0.133 A  
HETATM   27  C   UNL     1      -6.049  14.279  67.747  1.00  0.00    -0.118 A  
HETATM   28  N   UNL     1      -6.877  13.314  67.276  1.00  0.00    -0.136 NA 
ENDBRANCH  20  23
ENDBRANCH  14  16
ENDBRANCH   8  12
ENDBRANCH   2   5
TORSDOF 4
ENDMDL
MODEL      132
REMARK 921   NORMALIZED FREE ENERGY PREDICTED BY IDOCK:   -3.50 KCAL/MOL
REMARK 922        TOTAL FREE ENERGY PREDICTED BY IDOCK:   -4.95 KCAL/MOL
REMARK 923 INTER-LIGAND FREE ENERGY PREDICTED BY IDOCK:   -4.73 KCAL/MOL
REMARK 924 INTRA-LIGAND FREE ENERGY PREDICTED BY IDOCK:   -0.22 KCAL/MOL
REMARK 927      BINDING AFFINITY PREDICTED BY RF-SCORE:    0.00 PKD
ROOT
HETATM    1  C   UNL     1      -7.395  19.783  68.782  1.00  0.00    -0.304 C  
HETATM    2  S   UNL     1      -8.956  19.451  68.007  1.00  0.00    -0.330 S  
HETATM    3  O   UNL     1      -8.989  20.131  66.726  1.00  0.00    -0.333 OA 
HETATM    4  O   UNL     1     -10.006  19.659  68.989  1.00  0.00    -0.447 OA 
ENDROOT
BRANCH   2   5
HETATM    5  C   UNL     1      -8.886  17.705  67.682  1.00  0.00    -0.236 A  
HETATM    6  C   UNL     1      -9.674  17.150  66.667  1.00  0.00    -0.285 A  
HETATM    7  C   UNL     1      -9.666  15.762  66.447  1.00  0.00    -0.282 A  
HETATM    8  C   UNL     1      -8.856  14.928  67.228  1.00  0.00    -0.216 A  
HETATM    9 CL   UNL     1     -10.740  15.178  65.226  1.00  0.00    -0.388 Cl 
HETATM   10  C   UNL     1      -8.035  15.524  68.215  1.00  0.00    -0.132 A  
HETATM   11  C   UNL     1      -8.039  16.901  68.441  1.00  0.00    -0.237 A  
BRANCH   8  12
HETATM   12  C   UNL     1      -8.843  13.432  67.198  1.00  0.00    -0.222 C  
HETATM   13  O   UNL     1      -9.241  12.875  68.221  1.00  0.00    -0.204 OA 
HETATM   14  N   UNL     1      -8.370  12.784  66.067  1.00  0.00     0.178 N  
HETATM   15  H   UNL     1      -8.021  13.372  65.310  1.00  0.00     0.000 HD 
BRANCH  14  16
HETATM   16  C   UNL     1      -8.323  11.378  65.858  1.00  0.00     0.040 A  
HETATM   17  C   UNL     1      -8.246  10.803  64.592  1.00  0.00     0.069 A  
HETATM   18  C   UNL     1      -8.159   9.423  64.439  1.00  0.00    -0.138 A  
HETATM   19  C   UNL     1      -8.172   8.578  65.552  1.00  0.00    -0.137 A  
HETATM   20  C   UNL     1      -8.328   9.097  66.854  1.00  0.00    -0.119 A  
HETATM   21 CL   UNL     1      -7.908   6.900  65.198  1.00  0.00    -0.113 Cl 
HETATM   22  C   UNL     1      -8.358  10.518  66.975  1.00  0.00    -0.128 A  
BRANCH  20  23
HETATM   23  C   UNL     1      -8.484   8.254  68.070  1.00  0.00    -0.132 A  
HETATM   24  C   UNL     1      -9.566   7.390  68.273  1.00  0.00    -0.153 A  
HETATM   25  C   UNL     1      -9.648   6.627  69.437  1.00  0.00    -0.148 A  
HETATM   26  C   UNL     1      -8.674   6.772  70.408  1.00  0.00    -0.151 A  
HETATM   27  C   UNL     1      -7.654   7.676  70.166  1.00  0.00    -0.086 A  
HETATM   28  N   UNL     1      -7.537   8.411  69.032  1.00  0.00    -0.090 NA 
ENDBRANCH  20  23
ENDBRANCH  14  16
ENDBRANCH   8  12
ENDBRANCH   2   5
TORSDOF 4
ENDMDL
MODEL      133
REMARK 921   NORMALIZED FREE ENERGY PREDICTED BY IDOCK:   -3.49 KCAL/MOL
REMARK 922        TOTAL FREE ENERGY PREDICTED BY IDOCK:   -4.93 KCAL/MOL
REMARK 923 INTER-LIGAND FREE ENERGY PREDICTED BY IDOCK:   -5.07 KCAL/MOL
REMARK 924 INTRA-LIGAND FREE ENERGY PREDICTED BY IDOCK:    0.14 KCAL/MOL
REMARK 927      BINDING AFFINITY PREDICTED BY RF-SCORE:    0.00 PKD
ROOT
HETATM    1  C   UNL     1     -11.129  16.703  67.089  1.00  0.00     0.095 C  
HETATM    2  S   UNL     1     -10.159  15.973  65.795  1.00  0.00    -0.361 S  
HETATM    3  O   UNL     1      -8.797  16.460  65.909  1.00  0.00    -0.432 OA 
HETATM    4  O   UNL     1     -10.893  16.098  64.548  1.00  0.00    -0.628 OA 
ENDROOT
BRANCH   2   5
HETATM    5  C   UNL     1     -10.146  14.247  66.221  1.00  0.00    -0.298 A  
HETATM    6  C   UNL     1      -9.273  13.777  67.208  1.00  0.00    -0.239 A  
HETATM    7  C   UNL     1      -9.217  12.405  67.506  1.00  0.00    -0.183 A  
HETATM    8  C   UNL     1     -10.047  11.502  66.829  1.00  0.00    -0.245 A  
HETATM    9 CL   UNL     1      -8.044  11.926  68.680  1.00  0.00    -0.124 Cl 
HETATM   10  C   UNL     1     -10.953  12.014  65.869  1.00  0.00    -0.342 A  
HETATM   11  C   UNL     1     -11.012  13.375  65.567  1.00  0.00    -0.294 A  
BRANCH   8  12
HETATM   12  C   UNL     1     -10.006  10.011  66.943  1.00  0.00    -0.209 C  
HETATM   13  O   UNL     1     -10.444   9.390  65.975  1.00  0.00    -0.132 OA 
HETATM   14  N   UNL     1      -9.518   9.435  68.107  1.00  0.00    -0.133 N  
HETATM   15  H   UNL     1      -9.235  10.072  68.852  1.00  0.00     0.000 HD 
BRANCH  14  16
HETATM   16  C   UNL     1      -9.374   8.044  68.364  1.00  0.00    -0.138 A  
HETATM   17  C   UNL     1      -9.650   7.472  69.603  1.00  0.00    -0.159 A  
HETATM   18  C   UNL     1      -9.537   6.098  69.796  1.00  0.00    -0.174 A  
HETATM   19  C   UNL     1      -9.120   5.262  68.757  1.00  0.00    -0.112 A  
HETATM   20  C   UNL     1      -8.751   5.794  67.504  1.00  0.00    -0.107 A  
HETATM   21 CL   UNL     1      -9.173   3.567  69.117  1.00  0.00    -0.209 Cl 
HETATM   22  C   UNL     1      -8.934   7.198  67.327  1.00  0.00    -0.123 A  
BRANCH  20  23
HETATM   23  C   UNL     1      -8.173   4.985  66.396  1.00  0.00    -0.108 A  
HETATM   24  C   UNL     1      -8.586   5.100  65.064  1.00  0.00    -0.151 A  
HETATM   25  C   UNL     1      -7.999   4.311  64.076  1.00  0.00    -0.090 A  
HETATM   26  C   UNL     1      -7.042   3.380  64.437  1.00  0.00    -0.057 A  
HETATM   27  C   UNL     1      -6.710   3.285  65.777  1.00  0.00    -0.041 A  
HETATM   28  N   UNL     1      -7.247   4.058  66.754  1.00  0.00    -0.070 NA 
ENDBRANCH  20  23
ENDBRANCH  14  16
ENDBRANCH   8  12
ENDBRANCH   2   5
TORSDOF 4
ENDMDL
MODEL      134
REMARK 921   NORMALIZED FREE ENERGY PREDICTED BY IDOCK:   -3.46 KCAL/MOL
REMARK 922        TOTAL FREE ENERGY PREDICTED BY IDOCK:   -4.89 KCAL/MOL
REMARK 923 INTER-LIGAND FREE ENERGY PREDICTED BY IDOCK:   -4.09 KCAL/MOL
REMARK 924 INTRA-LIGAND FREE ENERGY PREDICTED BY IDOCK:   -0.80 KCAL/MOL
REMARK 927      BINDING AFFINITY PREDICTED BY RF-SCORE:    0.00 PKD
ROOT
HETATM    1  C   UNL     1     -11.643  16.233  69.906  1.00  0.00    -0.132 C  
HETATM    2  S   UNL     1     -12.183  14.687  70.589  1.00  0.00    -0.351 S  
HETATM    3  O   UNL     1     -13.606  14.547  70.343  1.00  0.00     0.065 OA 
HETATM    4  O   UNL     1     -11.644  14.568  71.932  1.00  0.00    -0.145 OA 
ENDROOT
BRANCH   2   5
HETATM    5  C   UNL     1     -11.346  13.484  69.583  1.00  0.00    -0.152 A  
HETATM    6  C   UNL     1     -11.566  12.118  69.798  1.00  0.00    -0.334 A  
HETATM    7  C   UNL     1     -10.862  11.163  69.045  1.00  0.00    -0.231 A  
HETATM    8  C   UNL     1      -9.950  11.572  68.064  1.00  0.00    -0.197 A  
HETATM    9 CL   UNL     1     -11.149   9.509  69.451  1.00  0.00    -0.182 Cl 
HETATM   10  C   UNL     1      -9.784  12.959  67.838  1.00  0.00    -0.218 A  
HETATM   11  C   UNL     1     -10.478  13.913  68.583  1.00  0.00    -0.249 A  
BRANCH   8  12
HETATM   12  C   UNL     1      -9.037  10.680  67.283  1.00  0.00    -0.143 C  
HETATM   13  O   UNL     1      -7.836  10.806  67.520  1.00  0.00    -0.107 OA 
HETATM   14  N   UNL     1      -9.580   9.812  66.346  1.00  0.00    -0.185 N  
HETATM   15  H   UNL     1     -10.590   9.849  66.215  1.00  0.00     0.000 HD 
BRANCH  14  16
HETATM   16  C   UNL     1      -8.864   8.875  65.550  1.00  0.00    -0.197 A  
HETATM   17  C   UNL     1      -8.122   9.245  64.431  1.00  0.00    -0.142 A  
HETATM   18  C   UNL     1      -7.402   8.299  63.709  1.00  0.00    -0.100 A  
HETATM   19  C   UNL     1      -7.426   6.951  64.073  1.00  0.00    -0.098 A  
HETATM   20  C   UNL     1      -8.222   6.505  65.148  1.00  0.00    -0.126 A  
HETATM   21 CL   UNL     1      -6.361   5.928  63.161  1.00  0.00    -0.024 Cl 
HETATM   22  C   UNL     1      -8.901   7.511  65.899  1.00  0.00    -0.157 A  
BRANCH  20  23
HETATM   23  C   UNL     1      -8.402   5.073  65.510  1.00  0.00    -0.126 A  
HETATM   24  C   UNL     1      -9.288   4.217  64.845  1.00  0.00    -0.165 A  
HETATM   25  C   UNL     1      -9.405   2.884  65.236  1.00  0.00    -0.110 A  
HETATM   26  C   UNL     1      -8.672   2.433  66.319  1.00  0.00    -0.120 A  
HETATM   27  C   UNL     1      -7.847   3.340  66.961  1.00  0.00    -0.079 A  
HETATM   28  N   UNL     1      -7.696   4.634  66.585  1.00  0.00    -0.090 NA 
ENDBRANCH  20  23
ENDBRANCH  14  16
ENDBRANCH   8  12
ENDBRANCH   2   5
TORSDOF 4
ENDMDL
MODEL      135
REMARK 921   NORMALIZED FREE ENERGY PREDICTED BY IDOCK:   -3.45 KCAL/MOL
REMARK 922        TOTAL FREE ENERGY PREDICTED BY IDOCK:   -4.88 KCAL/MOL
REMARK 923 INTER-LIGAND FREE ENERGY PREDICTED BY IDOCK:   -4.53 KCAL/MOL
REMARK 924 INTRA-LIGAND FREE ENERGY PREDICTED BY IDOCK:   -0.35 KCAL/MOL
REMARK 927      BINDING AFFINITY PREDICTED BY RF-SCORE:    0.00 PKD
ROOT
HETATM    1  C   UNL     1      -8.272   1.720  66.414  1.00  0.00    -0.085 C  
HETATM    2  S   UNL     1      -7.561   2.400  67.891  1.00  0.00    -0.056 S  
HETATM    3  O   UNL     1      -6.126   2.190  67.850  1.00  0.00    -0.023 OA 
HETATM    4  O   UNL     1      -8.348   1.951  69.025  1.00  0.00    -0.048 OA 
ENDROOT
BRANCH   2   5
HETATM    5  C   UNL     1      -7.850   4.145  67.715  1.00  0.00    -0.086 A  
HETATM    6  C   UNL     1      -9.159   4.639  67.695  1.00  0.00    -0.133 A  
HETATM    7  C   UNL     1      -9.393   6.010  67.496  1.00  0.00    -0.113 A  
HETATM    8  C   UNL     1      -8.318   6.893  67.334  1.00  0.00    -0.122 A  
HETATM    9 CL   UNL     1     -11.049   6.496  67.406  1.00  0.00    -0.444 Cl 
HETATM   10  C   UNL     1      -7.004   6.371  67.405  1.00  0.00    -0.075 A  
HETATM   11  C   UNL     1      -6.765   5.010  67.601  1.00  0.00    -0.055 A  
BRANCH   8  12
HETATM   12  C   UNL     1      -8.414   8.345  66.985  1.00  0.00    -0.122 C  
HETATM   13  O   UNL     1      -8.998   8.603  65.932  1.00  0.00    -0.177 OA 
HETATM   14  N   UNL     1      -7.832   9.282  67.826  1.00  0.00    -0.092 N  
HETATM   15  H   UNL     1      -7.333   8.924  68.640  1.00  0.00     0.000 HD 
BRANCH  14  16
HETATM   16  C   UNL     1      -7.863  10.695  67.664  1.00  0.00    -0.105 A  
HETATM   17  C   UNL     1      -6.826  11.526  68.080  1.00  0.00    -0.064 A  
HETATM   18  C   UNL     1      -6.880  12.899  67.860  1.00  0.00    -0.120 A  
HETATM   19  C   UNL     1      -7.989  13.481  67.239  1.00  0.00    -0.112 A  
HETATM   20  C   UNL     1      -9.103  12.700  66.868  1.00  0.00    -0.218 A  
HETATM   21 CL   UNL     1      -7.836  15.177  66.910  1.00  0.00    -0.191 Cl 
HETATM   22  C   UNL     1      -8.987  11.290  67.058  1.00  0.00    -0.154 A  
BRANCH  20  23
HETATM   23  C   UNL     1     -10.369  13.265  66.327  1.00  0.00    -0.290 A  
HETATM   24  C   UNL     1     -11.492  13.533  67.118  1.00  0.00    -0.368 A  
HETATM   25  C   UNL     1     -12.646  14.064  66.544  1.00  0.00    -0.214 A  
HETATM   26  C   UNL     1     -12.683  14.276  65.178  1.00  0.00    -0.332 A  
HETATM   27  C   UNL     1     -11.555  13.949  64.445  1.00  0.00    -0.382 A  
HETATM   28  N   UNL     1     -10.412  13.455  64.982  1.00  0.00    -0.346 NA 
ENDBRANCH  20  23
ENDBRANCH  14  16
ENDBRANCH   8  12
ENDBRANCH   2   5
TORSDOF 4
ENDMDL
MODEL      136
REMARK 921   NORMALIZED FREE ENERGY PREDICTED BY IDOCK:   -3.38 KCAL/MOL
REMARK 922        TOTAL FREE ENERGY PREDICTED BY IDOCK:   -4.80 KCAL/MOL
REMARK 923 INTER-LIGAND FREE ENERGY PREDICTED BY IDOCK:   -4.69 KCAL/MOL
REMARK 924 INTRA-LIGAND FREE ENERGY PREDICTED BY IDOCK:   -0.11 KCAL/MOL
REMARK 927      BINDING AFFINITY PREDICTED BY RF-SCORE:    0.00 PKD
ROOT
HETATM    1  C   UNL     1     -10.853  16.903  67.179  1.00  0.00    -0.088 C  
HETATM    2  S   UNL     1      -9.545  15.930  66.478  1.00  0.00    -0.291 S  
HETATM    3  O   UNL     1      -8.279  16.429  66.983  1.00  0.00    -0.166 OA 
HETATM    4  O   UNL     1      -9.781  15.808  65.051  1.00  0.00    -0.274 OA 
ENDROOT
BRANCH   2   5
HETATM    5  C   UNL     1      -9.807  14.323  67.190  1.00  0.00    -0.252 A  
HETATM    6  C   UNL     1      -9.369  13.179  66.513  1.00  0.00    -0.222 A  
HETATM    7  C   UNL     1      -9.627  11.903  67.044  1.00  0.00    -0.189 A  
HETATM    8  C   UNL     1     -10.308  11.770  68.261  1.00  0.00    -0.217 A  
HETATM    9 CL   UNL     1      -9.117  10.560  66.084  1.00  0.00    -0.176 Cl 
HETATM   10  C   UNL     1     -10.697  12.947  68.945  1.00  0.00    -0.195 A  
HETATM   11  C   UNL     1     -10.445  14.216  68.423  1.00  0.00    -0.254 A  
BRANCH   8  12
HETATM   12  C   UNL     1     -10.768  10.487  68.878  1.00  0.00    -0.220 C  
HETATM   13  O   UNL     1     -10.240   9.464  68.439  1.00  0.00    -0.182 OA 
HETATM   14  N   UNL     1     -11.752  10.522  69.855  1.00  0.00    -0.280 N  
HETATM   15  H   UNL     1     -12.139  11.436  70.086  1.00  0.00     0.000 HD 
BRANCH  14  16
HETATM   16  C   UNL     1     -12.273   9.407  70.567  1.00  0.00     0.011 A  
HETATM   17  C   UNL     1     -13.625   9.270  70.872  1.00  0.00     0.022 A  
HETATM   18  C   UNL     1     -14.096   8.139  71.533  1.00  0.00    -0.464 A  
HETATM   19  C   UNL     1     -13.221   7.125  71.928  1.00  0.00    -0.221 A  
HETATM   20  C   UNL     1     -11.831   7.245  71.717  1.00  0.00    -0.330 A  
HETATM   21 CL   UNL     1     -13.985   5.723  72.606  1.00  0.00     0.821 Cl 
HETATM   22  C   UNL     1     -11.393   8.390  70.988  1.00  0.00    -0.303 A  
BRANCH  20  23
HETATM   23  C   UNL     1     -10.827   6.272  72.227  1.00  0.00    -0.240 A  
HETATM   24  C   UNL     1     -10.387   5.165  71.493  1.00  0.00    -0.278 A  
HETATM   25  C   UNL     1      -9.442   4.294  72.031  1.00  0.00    -0.192 A  
HETATM   26  C   UNL     1      -8.983   4.510  73.318  1.00  0.00    -0.116 A  
HETATM   27  C   UNL     1      -9.490   5.597  74.008  1.00  0.00    -0.139 A  
HETATM   28  N   UNL     1     -10.391   6.474  73.498  1.00  0.00    -0.254 NA 
ENDBRANCH  20  23
ENDBRANCH  14  16
ENDBRANCH   8  12
ENDBRANCH   2   5
TORSDOF 4
ENDMDL
MODEL      137
REMARK 921   NORMALIZED FREE ENERGY PREDICTED BY IDOCK:   -3.38 KCAL/MOL
REMARK 922        TOTAL FREE ENERGY PREDICTED BY IDOCK:   -4.79 KCAL/MOL
REMARK 923 INTER-LIGAND FREE ENERGY PREDICTED BY IDOCK:   -4.06 KCAL/MOL
REMARK 924 INTRA-LIGAND FREE ENERGY PREDICTED BY IDOCK:   -0.73 KCAL/MOL
REMARK 927      BINDING AFFINITY PREDICTED BY RF-SCORE:    0.00 PKD
ROOT
HETATM    1  C   UNL     1     -10.001   2.600  62.611  1.00  0.00    -0.093 C  
HETATM    2  S   UNL     1      -8.759   2.326  63.848  1.00  0.00    -0.088 S  
HETATM    3  O   UNL     1      -7.541   1.891  63.190  1.00  0.00    -0.051 OA 
HETATM    4  O   UNL     1      -9.347   1.544  64.920  1.00  0.00    -0.128 OA 
ENDROOT
BRANCH   2   5
HETATM    5  C   UNL     1      -8.463   3.956  64.494  1.00  0.00    -0.102 A  
HETATM    6  C   UNL     1      -7.287   4.637  64.160  1.00  0.00    -0.059 A  
HETATM    7  C   UNL     1      -7.021   5.900  64.716  1.00  0.00    -0.052 A  
HETATM    8  C   UNL     1      -7.939   6.492  65.593  1.00  0.00    -0.114 A  
HETATM    9 CL   UNL     1      -5.503   6.612  64.300  1.00  0.00    -0.026 Cl 
HETATM   10  C   UNL     1      -9.141   5.798  65.876  1.00  0.00    -0.148 A  
HETATM   11  C   UNL     1      -9.410   4.543  65.328  1.00  0.00    -0.160 A  
BRANCH   8  12
HETATM   12  C   UNL     1      -7.734   7.760  66.360  1.00  0.00    -0.093 C  
HETATM   13  O   UNL     1      -7.714   7.645  67.586  1.00  0.00    -0.116 OA 
HETATM   14  N   UNL     1      -7.612   8.956  65.668  1.00  0.00    -0.086 N  
HETATM   15  H   UNL     1      -7.699   8.911  64.653  1.00  0.00     0.000 HD 
BRANCH  14  16
HETATM   16  C   UNL     1      -7.376  10.239  66.235  1.00  0.00    -0.118 A  
HETATM   17  C   UNL     1      -6.108  10.678  66.609  1.00  0.00    -0.081 A  
HETATM   18  C   UNL     1      -5.919  11.958  67.120  1.00  0.00    -0.152 A  
HETATM   19  C   UNL     1      -7.001  12.826  67.294  1.00  0.00    -0.080 A  
HETATM   20  C   UNL     1      -8.317  12.408  67.008  1.00  0.00    -0.157 A  
HETATM   21 CL   UNL     1      -6.577  14.430  67.801  1.00  0.00    -0.179 Cl 
HETATM   22  C   UNL     1      -8.464  11.110  66.434  1.00  0.00    -0.167 A  
BRANCH  20  23
HETATM   23  C   UNL     1      -9.528  13.226  67.293  1.00  0.00    -0.233 A  
HETATM   24  C   UNL     1     -10.462  12.898  68.283  1.00  0.00    -0.250 A  
HETATM   25  C   UNL     1     -11.573  13.711  68.497  1.00  0.00    -0.371 A  
HETATM   26  C   UNL     1     -11.766  14.816  67.688  1.00  0.00    -0.364 A  
HETATM   27  C   UNL     1     -10.830  15.061  66.699  1.00  0.00    -0.318 A  
HETATM   28  N   UNL     1      -9.727  14.301  66.486  1.00  0.00    -0.281 NA 
ENDBRANCH  20  23
ENDBRANCH  14  16
ENDBRANCH   8  12
ENDBRANCH   2   5
TORSDOF 4
ENDMDL
MODEL      138
REMARK 921   NORMALIZED FREE ENERGY PREDICTED BY IDOCK:   -3.35 KCAL/MOL
REMARK 922        TOTAL FREE ENERGY PREDICTED BY IDOCK:   -4.75 KCAL/MOL
REMARK 923 INTER-LIGAND FREE ENERGY PREDICTED BY IDOCK:   -4.66 KCAL/MOL
REMARK 924 INTRA-LIGAND FREE ENERGY PREDICTED BY IDOCK:   -0.09 KCAL/MOL
REMARK 927      BINDING AFFINITY PREDICTED BY RF-SCORE:    0.00 PKD
ROOT
HETATM    1  C   UNL     1      -8.433  17.542  66.786  1.00  0.00    -0.250 C  
HETATM    2  S   UNL     1     -10.003  16.716  66.787  1.00  0.00    -0.291 S  
HETATM    3  O   UNL     1     -10.402  16.484  65.411  1.00  0.00    -0.558 OA 
HETATM    4  O   UNL     1     -10.883  17.409  67.711  1.00  0.00    -0.361 OA 
ENDROOT
BRANCH   2   5
HETATM    5  C   UNL     1      -9.631  15.135  67.508  1.00  0.00    -0.207 A  
HETATM    6  C   UNL     1      -8.301  14.773  67.751  1.00  0.00    -0.166 A  
HETATM    7  C   UNL     1      -7.999  13.501  68.265  1.00  0.00    -0.147 A  
HETATM    8  C   UNL     1      -9.026  12.594  68.554  1.00  0.00    -0.046 A  
HETATM    9 CL   UNL     1      -6.321  13.130  68.446  1.00  0.00    -0.076 Cl 
HETATM   10  C   UNL     1     -10.364  13.006  68.341  1.00  0.00    -0.257 A  
HETATM   11  C   UNL     1     -10.671  14.268  67.829  1.00  0.00    -0.253 A  
BRANCH   8  12
HETATM   12  C   UNL     1      -8.853  11.169  68.976  1.00  0.00    -0.014 C  
HETATM   13  O   UNL     1      -7.713  10.848  69.313  1.00  0.00    -0.135 OA 
HETATM   14  N   UNL     1      -9.945  10.315  68.936  1.00  0.00    -0.190 N  
HETATM   15  H   UNL     1     -10.821  10.703  68.586  1.00  0.00     0.000 HD 
BRANCH  14  16
HETATM   16  C   UNL     1      -9.964   8.950  69.336  1.00  0.00    -0.192 A  
HETATM   17  C   UNL     1     -11.000   8.395  70.082  1.00  0.00    -0.216 A  
HETATM   18  C   UNL     1     -10.996   7.044  70.413  1.00  0.00    -0.301 A  
HETATM   19  C   UNL     1      -9.940   6.215  70.026  1.00  0.00    -0.173 A  
HETATM   20  C   UNL     1      -8.825   6.738  69.338  1.00  0.00    -0.135 A  
HETATM   21 CL   UNL     1     -10.159   4.533  70.389  1.00  0.00    -0.277 Cl 
HETATM   22  C   UNL     1      -8.891   8.114  68.967  1.00  0.00    -0.144 A  
BRANCH  20  23
HETATM   23  C   UNL     1      -7.606   5.948  69.011  1.00  0.00    -0.090 A  
HETATM   24  C   UNL     1      -6.635   5.606  69.959  1.00  0.00    -0.043 A  
HETATM   25  C   UNL     1      -5.518   4.862  69.583  1.00  0.00    -0.008 A  
HETATM   26  C   UNL     1      -5.358   4.509  68.255  1.00  0.00    -0.015 A  
HETATM   27  C   UNL     1      -6.332   4.916  67.360  1.00  0.00    -0.040 A  
HETATM   28  N   UNL     1      -7.440   5.618  67.703  1.00  0.00    -0.077 NA 
ENDBRANCH  20  23
ENDBRANCH  14  16
ENDBRANCH   8  12
ENDBRANCH   2   5
TORSDOF 4
ENDMDL
MODEL      139
REMARK 921   NORMALIZED FREE ENERGY PREDICTED BY IDOCK:   -3.30 KCAL/MOL
REMARK 922        TOTAL FREE ENERGY PREDICTED BY IDOCK:   -4.70 KCAL/MOL
REMARK 923 INTER-LIGAND FREE ENERGY PREDICTED BY IDOCK:   -3.96 KCAL/MOL
REMARK 924 INTRA-LIGAND FREE ENERGY PREDICTED BY IDOCK:   -0.74 KCAL/MOL
REMARK 927      BINDING AFFINITY PREDICTED BY RF-SCORE:    0.00 PKD
ROOT
HETATM    1  C   UNL     1      -6.027  16.000  67.628  1.00  0.00    -0.152 C  
HETATM    2  S   UNL     1      -7.760  15.621  67.585  1.00  0.00    -0.172 S  
HETATM    3  O   UNL     1      -8.254  15.877  66.245  1.00  0.00    -0.274 OA 
HETATM    4  O   UNL     1      -8.390  16.232  68.741  1.00  0.00    -0.209 OA 
ENDROOT
BRANCH   2   5
HETATM    5  C   UNL     1      -7.797  13.862  67.840  1.00  0.00    -0.161 A  
HETATM    6  C   UNL     1      -7.007  13.283  68.840  1.00  0.00    -0.096 A  
HETATM    7  C   UNL     1      -6.988  11.888  69.005  1.00  0.00    -0.098 A  
HETATM    8  C   UNL     1      -7.773  11.070  68.182  1.00  0.00    -0.105 A  
HETATM    9 CL   UNL     1      -5.914  11.277  70.212  1.00  0.00    -0.144 Cl 
HETATM   10  C   UNL     1      -8.597  11.687  67.211  1.00  0.00    -0.154 A  
HETATM   11  C   UNL     1      -8.619  13.072  67.040  1.00  0.00    -0.165 A  
BRANCH   8  12
HETATM   12  C   UNL     1      -7.755   9.574  68.152  1.00  0.00    -0.083 C  
HETATM   13  O   UNL     1      -6.819   9.063  67.536  1.00  0.00    -0.075 OA 
HETATM   14  N   UNL     1      -8.778   8.873  68.775  1.00  0.00    -0.136 N  
HETATM   15  H   UNL     1      -9.519   9.426  69.205  1.00  0.00     0.000 HD 
BRANCH  14  16
HETATM   16  C   UNL     1      -8.894   7.459  68.874  1.00  0.00    -0.131 A  
HETATM   17  C   UNL     1      -8.744   6.771  70.075  1.00  0.00    -0.141 A  
HETATM   18  C   UNL     1      -8.909   5.390  70.131  1.00  0.00    -0.142 A  
HETATM   19  C   UNL     1      -9.205   4.658  68.978  1.00  0.00    -0.129 A  
HETATM   20  C   UNL     1      -9.290   5.290  67.721  1.00  0.00    -0.130 A  
HETATM   21 CL   UNL     1      -9.523   2.973  69.244  1.00  0.00    -0.213 Cl 
HETATM   22  C   UNL     1      -9.171   6.712  67.712  1.00  0.00    -0.111 A  
BRANCH  20  23
HETATM   23  C   UNL     1      -9.469   4.561  66.435  1.00  0.00    -0.172 A  
HETATM   24  C   UNL     1      -8.476   3.758  65.863  1.00  0.00    -0.110 A  
HETATM   25  C   UNL     1      -8.712   3.101  64.656  1.00  0.00    -0.101 A  
HETATM   26  C   UNL     1      -9.919   3.295  64.009  1.00  0.00    -0.178 A  
HETATM   27  C   UNL     1     -10.841   4.136  64.605  1.00  0.00    -0.101 A  
HETATM   28  N   UNL     1     -10.647   4.766  65.790  1.00  0.00    -0.274 NA 
ENDBRANCH  20  23
ENDBRANCH  14  16
ENDBRANCH   8  12
ENDBRANCH   2   5
TORSDOF 4
ENDMDL
MODEL      140
REMARK 921   NORMALIZED FREE ENERGY PREDICTED BY IDOCK:   -3.27 KCAL/MOL
REMARK 922        TOTAL FREE ENERGY PREDICTED BY IDOCK:   -4.66 KCAL/MOL
REMARK 923 INTER-LIGAND FREE ENERGY PREDICTED BY IDOCK:   -4.24 KCAL/MOL
REMARK 924 INTRA-LIGAND FREE ENERGY PREDICTED BY IDOCK:   -0.42 KCAL/MOL
REMARK 927      BINDING AFFINITY PREDICTED BY RF-SCORE:    0.00 PKD
ROOT
HETATM    1  C   UNL     1     -12.026  15.633  64.211  1.00  0.00    -0.115 C  
HETATM    2  S   UNL     1     -10.571  15.892  65.192  1.00  0.00    -0.330 S  
HETATM    3  O   UNL     1     -10.591  17.254  65.694  1.00  0.00    -0.516 OA 
HETATM    4  O   UNL     1      -9.427  15.387  64.455  1.00  0.00     0.711 OA 
ENDROOT
BRANCH   2   5
HETATM    5  C   UNL     1     -10.818  14.809  66.580  1.00  0.00    -0.319 A  
HETATM    6  C   UNL     1      -9.738  14.470  67.403  1.00  0.00    -0.222 A  
HETATM    7  C   UNL     1      -9.917  13.567  68.464  1.00  0.00    -0.202 A  
HETATM    8  C   UNL     1     -11.179  13.015  68.716  1.00  0.00    -0.325 A  
HETATM    9 CL   UNL     1      -8.499  13.155  69.362  1.00  0.00     0.858 Cl 
HETATM   10  C   UNL     1     -12.262  13.413  67.895  1.00  0.00    -0.149 A  
HETATM   11  C   UNL     1     -12.091  14.308  66.838  1.00  0.00    -0.440 A  
BRANCH   8  12
HETATM   12  C   UNL     1     -11.492  11.948  69.718  1.00  0.00    -0.229 C  
HETATM   13  O   UNL     1     -11.921  12.343  70.802  1.00  0.00    -0.260 OA 
HETATM   14  N   UNL     1     -11.258  10.621  69.386  1.00  0.00    -0.250 N  
HETATM   15  H   UNL     1     -10.850  10.441  68.469  1.00  0.00     0.000 HD 
BRANCH  14  16
HETATM   16  C   UNL     1     -11.533   9.487  70.200  1.00  0.00    -0.162 A  
HETATM   17  C   UNL     1     -12.649   9.405  71.028  1.00  0.00    -0.291 A  
HETATM   18  C   UNL     1     -12.900   8.257  71.774  1.00  0.00    -0.362 A  
HETATM   19  C   UNL     1     -12.024   7.169  71.729  1.00  0.00    -0.313 A  
HETATM   20  C   UNL     1     -10.837   7.226  70.971  1.00  0.00    -0.258 A  
HETATM   21 CL   UNL     1     -12.557   5.766  72.600  1.00  0.00     0.115 Cl 
HETATM   22  C   UNL     1     -10.643   8.396  70.176  1.00  0.00    -0.235 A  
BRANCH  20  23
HETATM   23  C   UNL     1      -9.794   6.164  70.980  1.00  0.00    -0.182 A  
HETATM   24  C   UNL     1     -10.016   4.865  70.509  1.00  0.00    -0.311 A  
HETATM   25  C   UNL     1      -8.993   3.919  70.545  1.00  0.00    -0.160 A  
HETATM   26  C   UNL     1      -7.773   4.267  71.097  1.00  0.00    -0.067 A  
HETATM   27  C   UNL     1      -7.632   5.555  71.585  1.00  0.00    -0.098 A  
HETATM   28  N   UNL     1      -8.602   6.501  71.539  1.00  0.00    -0.129 NA 
ENDBRANCH  20  23
ENDBRANCH  14  16
ENDBRANCH   8  12
ENDBRANCH   2   5
TORSDOF 4
ENDMDL
MODEL      141
REMARK 921   NORMALIZED FREE ENERGY PREDICTED BY IDOCK:   -3.14 KCAL/MOL
REMARK 922        TOTAL FREE ENERGY PREDICTED BY IDOCK:   -4.50 KCAL/MOL
REMARK 923 INTER-LIGAND FREE ENERGY PREDICTED BY IDOCK:   -4.77 KCAL/MOL
REMARK 924 INTRA-LIGAND FREE ENERGY PREDICTED BY IDOCK:    0.27 KCAL/MOL
REMARK 927      BINDING AFFINITY PREDICTED BY RF-SCORE:    0.00 PKD
ROOT
HETATM    1  C   UNL     1     -11.147  17.272  67.389  1.00  0.00     0.086 C  
HETATM    2  S   UNL     1     -10.110  16.784  66.035  1.00  0.00    -0.309 S  
HETATM    3  O   UNL     1      -8.863  17.521  66.120  1.00  0.00    -0.448 OA 
HETATM    4  O   UNL     1     -10.905  16.803  64.821  1.00  0.00    -0.745 OA 
ENDROOT
BRANCH   2   5
HETATM    5  C   UNL     1      -9.748  15.080  66.394  1.00  0.00    -0.283 A  
HETATM    6  C   UNL     1      -8.877  14.756  67.440  1.00  0.00    -0.203 A  
HETATM    7  C   UNL     1      -8.542  13.414  67.689  1.00  0.00    -0.193 A  
HETATM    8  C   UNL     1      -9.090  12.393  66.902  1.00  0.00    -0.211 A  
HETATM    9 CL   UNL     1      -7.394  13.136  68.949  1.00  0.00    -0.065 Cl 
HETATM   10  C   UNL     1     -10.004  12.749  65.881  1.00  0.00    -0.273 A  
HETATM   11  C   UNL     1     -10.339  14.080  65.628  1.00  0.00    -0.342 A  
BRANCH   8  12
HETATM   12  C   UNL     1      -8.726  10.943  66.962  1.00  0.00    -0.141 C  
HETATM   13  O   UNL     1      -8.415  10.516  68.074  1.00  0.00    -0.117 OA 
HETATM   14  N   UNL     1      -8.733  10.196  65.792  1.00  0.00    -0.146 N  
HETATM   15  H   UNL     1      -8.962  10.692  64.931  1.00  0.00     0.000 HD 
BRANCH  14  16
HETATM   16  C   UNL     1      -8.452   8.807  65.677  1.00  0.00    -0.160 A  
HETATM   17  C   UNL     1      -8.226   8.181  64.454  1.00  0.00    -0.105 A  
HETATM   18  C   UNL     1      -7.911   6.827  64.394  1.00  0.00    -0.113 A  
HETATM   19  C   UNL     1      -7.839   6.056  65.558  1.00  0.00    -0.105 A  
HETATM   20  C   UNL     1      -8.137   6.618  66.817  1.00  0.00    -0.113 A  
HETATM   21 CL   UNL     1      -7.294   4.426  65.323  1.00  0.00    -0.071 Cl 
HETATM   22  C   UNL     1      -8.400   8.020  66.844  1.00  0.00    -0.116 A  
BRANCH  20  23
HETATM   23  C   UNL     1      -8.212   5.832  68.079  1.00  0.00    -0.104 A  
HETATM   24  C   UNL     1      -7.234   4.911  68.470  1.00  0.00    -0.062 A  
HETATM   25  C   UNL     1      -7.367   4.211  69.668  1.00  0.00    -0.050 A  
HETATM   26  C   UNL     1      -8.500   4.401  70.438  1.00  0.00    -0.098 A  
HETATM   27  C   UNL     1      -9.451   5.293  69.973  1.00  0.00    -0.160 A  
HETATM   28  N   UNL     1      -9.334   6.006  68.825  1.00  0.00    -0.122 NA 
ENDBRANCH  20  23
ENDBRANCH  14  16
ENDBRANCH   8  12
ENDBRANCH   2   5
TORSDOF 4
ENDMDL
MODEL      142
REMARK 921   NORMALIZED FREE ENERGY PREDICTED BY IDOCK:   -3.12 KCAL/MOL
REMARK 922        TOTAL FREE ENERGY PREDICTED BY IDOCK:   -4.47 KCAL/MOL
REMARK 923 INTER-LIGAND FREE ENERGY PREDICTED BY IDOCK:   -3.77 KCAL/MOL
REMARK 924 INTRA-LIGAND FREE ENERGY PREDICTED BY IDOCK:   -0.70 KCAL/MOL
REMARK 927      BINDING AFFINITY PREDICTED BY RF-SCORE:    0.00 PKD
ROOT
HETATM    1  C   UNL     1      -6.869  15.364  67.798  1.00  0.00    -0.167 C  
HETATM    2  S   UNL     1      -8.625  15.115  67.853  1.00  0.00    -0.158 S  
HETATM    3  O   UNL     1      -9.196  15.585  66.605  1.00  0.00    -0.229 OA 
HETATM    4  O   UNL     1      -9.116  15.606  69.128  1.00  0.00    -0.220 OA 
ENDROOT
BRANCH   2   5
HETATM    5  C   UNL     1      -8.784  13.345  67.879  1.00  0.00    -0.187 A  
HETATM    6  C   UNL     1      -7.660  12.539  67.665  1.00  0.00    -0.145 A  
HETATM    7  C   UNL     1      -7.793  11.140  67.625  1.00  0.00    -0.115 A  
HETATM    8  C   UNL     1      -9.046  10.545  67.818  1.00  0.00    -0.140 A  
HETATM    9 CL   UNL     1      -6.357  10.248  67.270  1.00  0.00    -0.065 Cl 
HETATM   10  C   UNL     1     -10.155  11.385  68.079  1.00  0.00    -0.193 A  
HETATM   11  C   UNL     1     -10.031  12.774  68.117  1.00  0.00    -0.229 A  
BRANCH   8  12
HETATM   12  C   UNL     1      -9.362   9.090  67.672  1.00  0.00    -0.136 C  
HETATM   13  O   UNL     1     -10.305   8.820  66.929  1.00  0.00    -0.271 OA 
HETATM   14  N   UNL     1      -8.615   8.162  68.384  1.00  0.00    -0.130 N  
HETATM   15  H   UNL     1      -7.895   8.529  69.005  1.00  0.00     0.000 HD 
BRANCH  14  16
HETATM   16  C   UNL     1      -8.757   6.748  68.333  1.00  0.00    -0.123 A  
HETATM   17  C   UNL     1      -9.490   6.027  69.272  1.00  0.00    -0.152 A  
HETATM   18  C   UNL     1      -9.638   4.648  69.157  1.00  0.00    -0.245 A  
HETATM   19  C   UNL     1      -9.033   3.949  68.109  1.00  0.00    -0.121 A  
HETATM   20  C   UNL     1      -8.213   4.614  67.173  1.00  0.00    -0.105 A  
HETATM   21 CL   UNL     1      -9.435   2.264  68.027  1.00  0.00    -0.248 Cl 
HETATM   22  C   UNL     1      -8.132   6.034  67.291  1.00  0.00    -0.106 A  
BRANCH  20  23
HETATM   23  C   UNL     1      -7.432   3.920  66.114  1.00  0.00    -0.087 A  
HETATM   24  C   UNL     1      -7.714   4.039  64.748  1.00  0.00    -0.081 A  
HETATM   25  C   UNL     1      -6.939   3.361  63.808  1.00  0.00    -0.048 A  
HETATM   26  C   UNL     1      -5.921   2.534  64.246  1.00  0.00    -0.014 A  
HETATM   27  C   UNL     1      -5.721   2.425  65.611  1.00  0.00    -0.017 A  
HETATM   28  N   UNL     1      -6.444   3.093  66.544  1.00  0.00    -0.035 NA 
ENDBRANCH  20  23
ENDBRANCH  14  16
ENDBRANCH   8  12
ENDBRANCH   2   5
TORSDOF 4
ENDMDL
MODEL      143
REMARK 921   NORMALIZED FREE ENERGY PREDICTED BY IDOCK:   -3.10 KCAL/MOL
REMARK 922        TOTAL FREE ENERGY PREDICTED BY IDOCK:   -4.45 KCAL/MOL
REMARK 923 INTER-LIGAND FREE ENERGY PREDICTED BY IDOCK:   -4.00 KCAL/MOL
REMARK 924 INTRA-LIGAND FREE ENERGY PREDICTED BY IDOCK:   -0.44 KCAL/MOL
REMARK 927      BINDING AFFINITY PREDICTED BY RF-SCORE:    0.00 PKD
ROOT
HETATM    1  C   UNL     1      -7.512   3.364  67.760  1.00  0.00    -0.058 C  
HETATM    2  S   UNL     1      -9.131   4.066  67.577  1.00  0.00    -0.159 S  
HETATM    3  O   UNL     1      -9.978   3.553  68.638  1.00  0.00     0.085 OA 
HETATM    4  O   UNL     1      -9.526   3.946  66.185  1.00  0.00    -0.165 OA 
ENDROOT
BRANCH   2   5
HETATM    5  C   UNL     1      -8.864   5.794  67.896  1.00  0.00    -0.108 A  
HETATM    6  C   UNL     1      -7.654   6.394  67.529  1.00  0.00    -0.100 A  
HETATM    7  C   UNL     1      -7.416   7.745  67.833  1.00  0.00    -0.104 A  
HETATM    8  C   UNL     1      -8.394   8.504  68.488  1.00  0.00    -0.123 A  
HETATM    9 CL   UNL     1      -5.857   8.359  67.409  1.00  0.00    -0.042 Cl 
HETATM   10  C   UNL     1      -9.625   7.881  68.805  1.00  0.00    -0.152 A  
HETATM   11  C   UNL     1      -9.868   6.540  68.508  1.00  0.00    -0.140 A  
BRANCH   8  12
HETATM   12  C   UNL     1      -8.233   9.904  68.992  1.00  0.00    -0.124 C  
HETATM   13  O   UNL     1      -8.915  10.199  69.973  1.00  0.00    -0.151 OA 
HETATM   14  N   UNL     1      -7.374  10.767  68.326  1.00  0.00    -0.083 N  
HETATM   15  H   UNL     1      -6.911  10.403  67.494  1.00  0.00     0.000 HD 
BRANCH  14  16
HETATM   16  C   UNL     1      -7.078  12.109  68.691  1.00  0.00    -0.103 A  
HETATM   17  C   UNL     1      -5.970  12.455  69.461  1.00  0.00    -0.110 A  
HETATM   18  C   UNL     1      -5.696  13.787  69.756  1.00  0.00    -0.108 A  
HETATM   19  C   UNL     1      -6.539  14.807  69.310  1.00  0.00    -0.128 A  
HETATM   20  C   UNL     1      -7.718  14.511  68.594  1.00  0.00    -0.137 A  
HETATM   21 CL   UNL     1      -5.978  16.416  69.638  1.00  0.00    -0.181 Cl 
HETATM   22  C   UNL     1      -7.936  13.141  68.262  1.00  0.00    -0.148 A  
BRANCH  20  23
HETATM   23  C   UNL     1      -8.729  15.530  68.203  1.00  0.00    -0.164 A  
HETATM   24  C   UNL     1      -9.025  15.848  66.872  1.00  0.00    -0.257 A  
HETATM   25  C   UNL     1      -9.986  16.813  66.576  1.00  0.00    -0.308 A  
HETATM   26  C   UNL     1     -10.607  17.486  67.614  1.00  0.00    -0.355 A  
HETATM   27  C   UNL     1     -10.238  17.156  68.906  1.00  0.00    -0.332 A  
HETATM   28  N   UNL     1      -9.325  16.204  69.221  1.00  0.00    -0.249 NA 
ENDBRANCH  20  23
ENDBRANCH  14  16
ENDBRANCH   8  12
ENDBRANCH   2   5
TORSDOF 4
ENDMDL
MODEL      144
REMARK 921   NORMALIZED FREE ENERGY PREDICTED BY IDOCK:   -3.03 KCAL/MOL
REMARK 922        TOTAL FREE ENERGY PREDICTED BY IDOCK:   -4.37 KCAL/MOL
REMARK 923 INTER-LIGAND FREE ENERGY PREDICTED BY IDOCK:   -3.67 KCAL/MOL
REMARK 924 INTRA-LIGAND FREE ENERGY PREDICTED BY IDOCK:   -0.69 KCAL/MOL
REMARK 927      BINDING AFFINITY PREDICTED BY RF-SCORE:    0.00 PKD
ROOT
HETATM    1  C   UNL     1      -5.839  15.670  67.816  1.00  0.00    -0.143 C  
HETATM    2  S   UNL     1      -7.566  15.297  67.974  1.00  0.00    -0.135 S  
HETATM    3  O   UNL     1      -8.208  15.536  66.694  1.00  0.00    -0.253 OA 
HETATM    4  O   UNL     1      -8.061  15.928  69.184  1.00  0.00    -0.214 OA 
ENDROOT
BRANCH   2   5
HETATM    5  C   UNL     1      -7.579  13.542  68.257  1.00  0.00    -0.135 A  
HETATM    6  C   UNL     1      -6.786  12.992  69.270  1.00  0.00    -0.062 A  
HETATM    7  C   UNL     1      -6.747  11.600  69.458  1.00  0.00    -0.089 A  
HETATM    8  C   UNL     1      -7.517  10.757  68.646  1.00  0.00    -0.102 A  
HETATM    9 CL   UNL     1      -5.670  11.024  70.680  1.00  0.00    -0.130 Cl 
HETATM   10  C   UNL     1      -8.345  11.347  67.661  1.00  0.00    -0.129 A  
HETATM   11  C   UNL     1      -8.386  12.728  67.467  1.00  0.00    -0.179 A  
BRANCH   8  12
HETATM   12  C   UNL     1      -7.477   9.261  68.640  1.00  0.00    -0.080 C  
HETATM   13  O   UNL     1      -6.443   8.756  68.204  1.00  0.00    -0.058 OA 
HETATM   14  N   UNL     1      -8.585   8.555  69.085  1.00  0.00    -0.132 N  
HETATM   15  H   UNL     1      -9.396   9.103  69.371  1.00  0.00     0.000 HD 
BRANCH  14  16
HETATM   16  C   UNL     1      -8.700   7.141  69.182  1.00  0.00    -0.133 A  
HETATM   17  C   UNL     1      -8.614   6.298  68.076  1.00  0.00    -0.116 A  
HETATM   18  C   UNL     1      -8.689   4.917  68.225  1.00  0.00    -0.109 A  
HETATM   19  C   UNL     1      -8.877   4.342  69.484  1.00  0.00    -0.091 A  
HETATM   20  C   UNL     1      -9.051   5.147  70.629  1.00  0.00    -0.178 A  
HETATM   21 CL   UNL     1      -8.801   2.609  69.516  1.00  0.00    -0.136 Cl 
HETATM   22  C   UNL     1      -8.912   6.555  70.446  1.00  0.00    -0.152 A  
BRANCH  20  23
HETATM   23  C   UNL     1      -9.387   4.612  71.977  1.00  0.00    -0.138 A  
HETATM   24  C   UNL     1     -10.645   4.095  72.306  1.00  0.00    -0.072 A  
HETATM   25  C   UNL     1     -10.891   3.608  73.589  1.00  0.00    -0.326 A  
HETATM   26  C   UNL     1      -9.893   3.690  74.543  1.00  0.00    -0.178 A  
HETATM   27  C   UNL     1      -8.687   4.253  74.166  1.00  0.00    -0.096 A  
HETATM   28  N   UNL     1      -8.413   4.710  72.919  1.00  0.00    -0.110 NA 
ENDBRANCH  20  23
ENDBRANCH  14  16
ENDBRANCH   8  12
ENDBRANCH   2   5
TORSDOF 4
ENDMDL
MODEL      145
REMARK 921   NORMALIZED FREE ENERGY PREDICTED BY IDOCK:   -2.68 KCAL/MOL
REMARK 922        TOTAL FREE ENERGY PREDICTED BY IDOCK:   -3.93 KCAL/MOL
REMARK 923 INTER-LIGAND FREE ENERGY PREDICTED BY IDOCK:   -3.12 KCAL/MOL
REMARK 924 INTRA-LIGAND FREE ENERGY PREDICTED BY IDOCK:   -0.81 KCAL/MOL
REMARK 927      BINDING AFFINITY PREDICTED BY RF-SCORE:    0.00 PKD
ROOT
HETATM    1  C   UNL     1      -7.575  20.424  71.887  1.00  0.00     1.863 C  
HETATM    2  S   UNL     1      -6.003  19.994  71.186  1.00  0.00    -0.211 S  
HETATM    3  O   UNL     1      -5.125  19.558  72.256  1.00  0.00    -0.579 OA 
HETATM    4  O   UNL     1      -5.602  21.054  70.279  1.00  0.00    -0.557 OA 
ENDROOT
BRANCH   2   5
HETATM    5  C   UNL     1      -6.378  18.569  70.191  1.00  0.00     0.079 A  
HETATM    6  C   UNL     1      -7.236  18.690  69.092  1.00  0.00    -0.223 A  
HETATM    7  C   UNL     1      -7.582  17.555  68.339  1.00  0.00    -0.254 A  
HETATM    8  C   UNL     1      -7.056  16.300  68.672  1.00  0.00    -0.155 A  
HETATM    9 CL   UNL     1      -8.713  17.806  67.058  1.00  0.00    -0.244 Cl 
HETATM   10  C   UNL     1      -6.154  16.218  69.760  1.00  0.00    -0.198 A  
HETATM   11  C   UNL     1      -5.808  17.341  70.513  1.00  0.00     0.090 A  
BRANCH   8  12
HETATM   12  C   UNL     1      -7.434  14.993  68.050  1.00  0.00    -0.123 C  
HETATM   13  O   UNL     1      -6.623  14.529  67.248  1.00  0.00    -0.288 OA 
HETATM   14  N   UNL     1      -8.650  14.414  68.382  1.00  0.00    -0.170 N  
HETATM   15  H   UNL     1      -9.248  14.934  69.023  1.00  0.00     0.000 HD 
BRANCH  14  16
HETATM   16  C   UNL     1      -9.144  13.164  67.916  1.00  0.00    -0.207 A  
HETATM   17  C   UNL     1      -9.862  13.031  66.731  1.00  0.00    -0.243 A  
HETATM   18  C   UNL     1     -10.288  11.780  66.292  1.00  0.00    -0.259 A  
HETATM   19  C   UNL     1     -10.027  10.632  67.043  1.00  0.00    -0.202 A  
HETATM   20  C   UNL     1      -9.374  10.715  68.290  1.00  0.00    -0.156 A  
HETATM   21 CL   UNL     1     -10.495   9.142  66.287  1.00  0.00    -0.176 Cl 
HETATM   22  C   UNL     1      -8.903  12.005  68.679  1.00  0.00    -0.024 A  
BRANCH  20  23
HETATM   23  C   UNL     1      -9.180   9.557  69.205  1.00  0.00    -0.163 A  
HETATM   24  C   UNL     1     -10.223   8.966  69.928  1.00  0.00    -0.209 A  
HETATM   25  C   UNL     1      -9.970   7.881  70.766  1.00  0.00    -0.192 A  
HETATM   26  C   UNL     1      -8.671   7.430  70.911  1.00  0.00    -0.144 A  
HETATM   27  C   UNL     1      -7.679   8.085  70.202  1.00  0.00    -0.087 A  
HETATM   28  N   UNL     1      -7.901   9.126  69.361  1.00  0.00    -0.092 NA 
ENDBRANCH  20  23
ENDBRANCH  14  16
ENDBRANCH   8  12
ENDBRANCH   2   5
TORSDOF 4
ENDMDL
MODEL      146
REMARK 921   NORMALIZED FREE ENERGY PREDICTED BY IDOCK:   -2.60 KCAL/MOL
REMARK 922        TOTAL FREE ENERGY PREDICTED BY IDOCK:   -3.83 KCAL/MOL
REMARK 923 INTER-LIGAND FREE ENERGY PREDICTED BY IDOCK:   -3.82 KCAL/MOL
REMARK 924 INTRA-LIGAND FREE ENERGY PREDICTED BY IDOCK:   -0.01 KCAL/MOL
REMARK 927      BINDING AFFINITY PREDICTED BY RF-SCORE:    0.00 PKD
ROOT
HETATM    1  C   UNL     1     -11.121  19.502  64.904  1.00  0.00     1.481 C  
HETATM    2  S   UNL     1     -10.433  19.489  66.540  1.00  0.00    -0.507 S  
HETATM    3  O   UNL     1     -11.400  20.070  67.452  1.00  0.00     0.064 OA 
HETATM    4  O   UNL     1      -9.076  20.000  66.468  1.00  0.00    -0.354 OA 
ENDROOT
BRANCH   2   5
HETATM    5  C   UNL     1     -10.318  17.755  66.918  1.00  0.00    -0.344 A  
HETATM    6  C   UNL     1      -9.950  17.343  68.204  1.00  0.00    -0.308 A  
HETATM    7  C   UNL     1      -9.800  15.976  68.490  1.00  0.00    -0.216 A  
HETATM    8  C   UNL     1     -10.035  15.017  67.497  1.00  0.00    -0.226 A  
HETATM    9 CL   UNL     1      -9.262  15.585  70.085  1.00  0.00     0.192 Cl 
HETATM   10  C   UNL     1     -10.450  15.463  66.219  1.00  0.00    -0.310 A  
HETATM   11  C   UNL     1     -10.599  16.819  65.927  1.00  0.00    -0.255 A  
BRANCH   8  12
HETATM   12  C   UNL     1      -9.788  13.546  67.615  1.00  0.00    -0.228 C  
HETATM   13  O   UNL     1      -9.100  13.196  68.574  1.00  0.00    -0.155 OA 
HETATM   14  N   UNL     1     -10.309  12.694  66.651  1.00  0.00    -0.235 N  
HETATM   15  H   UNL     1     -10.818  13.127  65.881  1.00  0.00     0.000 HD 
BRANCH  14  16
HETATM   16  C   UNL     1     -10.202  11.276  66.633  1.00  0.00    -0.229 A  
HETATM   17  C   UNL     1     -10.788  10.462  67.600  1.00  0.00    -0.361 A  
HETATM   18  C   UNL     1     -10.694   9.076  67.516  1.00  0.00    -0.239 A  
HETATM   19  C   UNL     1      -9.988   8.468  66.475  1.00  0.00    -0.280 A  
HETATM   20  C   UNL     1      -9.308   9.243  65.513  1.00  0.00    -0.303 A  
HETATM   21 CL   UNL     1     -10.090   6.737  66.436  1.00  0.00    -0.120 Cl 
HETATM   22  C   UNL     1      -9.474  10.657  65.598  1.00  0.00    -0.257 A  
BRANCH  20  23
HETATM   23  C   UNL     1      -8.429   8.670  64.456  1.00  0.00    -0.110 A  
HETATM   24  C   UNL     1      -7.748   7.455  64.598  1.00  0.00    -0.118 A  
HETATM   25  C   UNL     1      -6.943   6.977  63.567  1.00  0.00    -0.061 A  
HETATM   26  C   UNL     1      -6.786   7.740  62.424  1.00  0.00    -0.081 A  
HETATM   27  C   UNL     1      -7.451   8.952  62.364  1.00  0.00    -0.103 A  
HETATM   28  N   UNL     1      -8.261   9.429  63.342  1.00  0.00    -0.156 NA 
ENDBRANCH  20  23
ENDBRANCH  14  16
ENDBRANCH   8  12
ENDBRANCH   2   5
TORSDOF 4
ENDMDL
MODEL      147
REMARK 921   NORMALIZED FREE ENERGY PREDICTED BY IDOCK:   -2.56 KCAL/MOL
REMARK 922        TOTAL FREE ENERGY PREDICTED BY IDOCK:   -3.79 KCAL/MOL
REMARK 923 INTER-LIGAND FREE ENERGY PREDICTED BY IDOCK:   -3.81 KCAL/MOL
REMARK 924 INTRA-LIGAND FREE ENERGY PREDICTED BY IDOCK:    0.03 KCAL/MOL
REMARK 927      BINDING AFFINITY PREDICTED BY RF-SCORE:    0.00 PKD
ROOT
HETATM    1  C   UNL     1      -9.980  16.031  68.336  1.00  0.00    -0.220 C  
HETATM    2  S   UNL     1      -9.255  15.064  67.037  1.00  0.00    -0.244 S  
HETATM    3  O   UNL     1      -7.925  15.578  66.768  1.00  0.00    -0.233 OA 
HETATM    4  O   UNL     1     -10.230  14.927  65.971  1.00  0.00    -0.270 OA 
ENDROOT
BRANCH   2   5
HETATM    5  C   UNL     1      -9.067  13.460  67.780  1.00  0.00    -0.202 A  
HETATM    6  C   UNL     1     -10.086  12.509  67.657  1.00  0.00    -0.217 A  
HETATM    7  C   UNL     1      -9.967  11.262  68.293  1.00  0.00    -0.195 A  
HETATM    8  C   UNL     1      -8.821  10.957  69.039  1.00  0.00    -0.105 A  
HETATM    9 CL   UNL     1     -11.319  10.197  68.143  1.00  0.00    -0.251 Cl 
HETATM   10  C   UNL     1      -7.788  11.922  69.107  1.00  0.00     0.206 A  
HETATM   11  C   UNL     1      -7.900  13.163  68.479  1.00  0.00    -0.105 A  
BRANCH   8  12
HETATM   12  C   UNL     1      -8.613   9.733  69.875  1.00  0.00    -0.218 C  
HETATM   13  O   UNL     1      -9.578   9.380  70.553  1.00  0.00    -0.239 OA 
HETATM   14  N   UNL     1      -7.375   9.106  69.858  1.00  0.00    -0.058 N  
HETATM   15  H   UNL     1      -6.648   9.538  69.288  1.00  0.00     0.000 HD 
BRANCH  14  16
HETATM   16  C   UNL     1      -7.022   7.920  70.558  1.00  0.00    -0.045 A  
HETATM   17  C   UNL     1      -5.702   7.516  70.742  1.00  0.00    -0.030 A  
HETATM   18  C   UNL     1      -5.401   6.371  71.473  1.00  0.00    -0.026 A  
HETATM   19  C   UNL     1      -6.418   5.583  72.018  1.00  0.00    -0.052 A  
HETATM   20  C   UNL     1      -7.775   5.898  71.797  1.00  0.00    -0.101 A  
HETATM   21 CL   UNL     1      -5.873   4.276  73.019  1.00  0.00    -0.011 Cl 
HETATM   22  C   UNL     1      -8.043   7.109  71.092  1.00  0.00    -0.104 A  
BRANCH  20  23
HETATM   23  C   UNL     1      -8.909   5.036  72.231  1.00  0.00    -0.128 A  
HETATM   24  C   UNL     1      -8.968   3.660  71.981  1.00  0.00    -0.145 A  
HETATM   25  C   UNL     1     -10.060   2.913  72.419  1.00  0.00    -0.231 A  
HETATM   26  C   UNL     1     -11.105   3.556  73.057  1.00  0.00    -0.096 A  
HETATM   27  C   UNL     1     -11.005   4.925  73.235  1.00  0.00    -0.320 A  
HETATM   28  N   UNL     1      -9.943   5.672  72.842  1.00  0.00    -0.173 NA 
ENDBRANCH  20  23
ENDBRANCH  14  16
ENDBRANCH   8  12
ENDBRANCH   2   5
TORSDOF 4
ENDMDL
MODEL      148
REMARK 921   NORMALIZED FREE ENERGY PREDICTED BY IDOCK:   -2.49 KCAL/MOL
REMARK 922        TOTAL FREE ENERGY PREDICTED BY IDOCK:   -3.70 KCAL/MOL
REMARK 923 INTER-LIGAND FREE ENERGY PREDICTED BY IDOCK:   -3.33 KCAL/MOL
REMARK 924 INTRA-LIGAND FREE ENERGY PREDICTED BY IDOCK:   -0.37 KCAL/MOL
REMARK 927      BINDING AFFINITY PREDICTED BY RF-SCORE:    0.00 PKD
ROOT
HETATM    1  C   UNL     1      -7.603  16.699  68.593  1.00  0.00    -0.214 C  
HETATM    2  S   UNL     1      -8.859  16.081  67.504  1.00  0.00    -0.192 S  
HETATM    3  O   UNL     1      -8.503  16.434  66.142  1.00  0.00    -0.324 OA 
HETATM    4  O   UNL     1     -10.155  16.439  68.051  1.00  0.00    -0.238 OA 
ENDROOT
BRANCH   2   5
HETATM    5  C   UNL     1      -8.698  14.317  67.656  1.00  0.00    -0.191 A  
HETATM    6  C   UNL     1      -7.800  13.775  68.582  1.00  0.00    -0.108 A  
HETATM    7  C   UNL     1      -7.626  12.383  68.664  1.00  0.00    -0.082 A  
HETATM    8  C   UNL     1      -8.363  11.530  67.834  1.00  0.00    -0.136 A  
HETATM    9 CL   UNL     1      -6.431  11.828  69.782  1.00  0.00    -0.123 Cl 
HETATM   10  C   UNL     1      -9.298  12.106  66.940  1.00  0.00    -0.203 A  
HETATM   11  C   UNL     1      -9.474  13.487  66.852  1.00  0.00    -0.258 A  
BRANCH   8  12
HETATM   12  C   UNL     1      -8.190  10.048  67.715  1.00  0.00    -0.113 C  
HETATM   13  O   UNL     1      -9.230   9.391  67.678  1.00  0.00    -0.128 OA 
HETATM   14  N   UNL     1      -6.908   9.518  67.684  1.00  0.00    -0.074 N  
HETATM   15  H   UNL     1      -6.135  10.177  67.776  1.00  0.00     0.000 HD 
BRANCH  14  16
HETATM   16  C   UNL     1      -6.566   8.145  67.538  1.00  0.00    -0.058 A  
HETATM   17  C   UNL     1      -5.613   7.697  66.627  1.00  0.00    -0.028 A  
HETATM   18  C   UNL     1      -5.279   6.348  66.550  1.00  0.00    -0.013 A  
HETATM   19  C   UNL     1      -5.912   5.407  67.367  1.00  0.00    -0.026 A  
HETATM   20  C   UNL     1      -6.941   5.791  68.251  1.00  0.00    -0.069 A  
HETATM   21 CL   UNL     1      -5.279   3.796  67.250  1.00  0.00    -0.011 Cl 
HETATM   22  C   UNL     1      -7.215   7.188  68.343  1.00  0.00    -0.091 A  
BRANCH  20  23
HETATM   23  C   UNL     1      -7.748   4.831  69.052  1.00  0.00    -0.071 A  
HETATM   24  C   UNL     1      -8.828   4.110  68.528  1.00  0.00    -0.139 A  
HETATM   25  C   UNL     1      -9.540   3.225  69.335  1.00  0.00    -0.119 A  
HETATM   26  C   UNL     1      -9.198   3.106  70.670  1.00  0.00    -0.208 A  
HETATM   27  C   UNL     1      -8.149   3.880  71.137  1.00  0.00    -0.064 A  
HETATM   28  N   UNL     1      -7.424   4.729  70.368  1.00  0.00    -0.050 NA 
ENDBRANCH  20  23
ENDBRANCH  14  16
ENDBRANCH   8  12
ENDBRANCH   2   5
TORSDOF 4
ENDMDL
MODEL      149
REMARK 921   NORMALIZED FREE ENERGY PREDICTED BY IDOCK:   -2.49 KCAL/MOL
REMARK 922        TOTAL FREE ENERGY PREDICTED BY IDOCK:   -3.70 KCAL/MOL
REMARK 923 INTER-LIGAND FREE ENERGY PREDICTED BY IDOCK:   -3.31 KCAL/MOL
REMARK 924 INTRA-LIGAND FREE ENERGY PREDICTED BY IDOCK:   -0.38 KCAL/MOL
REMARK 927      BINDING AFFINITY PREDICTED BY RF-SCORE:    0.00 PKD
ROOT
HETATM    1  C   UNL     1     -10.974  15.311  71.448  1.00  0.00    -0.119 C  
HETATM    2  S   UNL     1     -12.062  14.896  70.110  1.00  0.00    -0.347 S  
HETATM    3  O   UNL     1     -12.108  16.017  69.189  1.00  0.00    -0.293 OA 
HETATM    4  O   UNL     1     -13.282  14.341  70.669  1.00  0.00    -0.300 OA 
ENDROOT
BRANCH   2   5
HETATM    5  C   UNL     1     -11.212  13.568  69.291  1.00  0.00    -0.231 A  
HETATM    6  C   UNL     1     -11.807  12.304  69.206  1.00  0.00    -0.363 A  
HETATM    7  C   UNL     1     -11.113  11.236  68.612  1.00  0.00    -0.232 A  
HETATM    8  C   UNL     1      -9.830  11.434  68.086  1.00  0.00    -0.195 A  
HETATM    9 CL   UNL     1     -11.908   9.702  68.636  1.00  0.00     0.622 Cl 
HETATM   10  C   UNL     1      -9.273  12.734  68.146  1.00  0.00    -0.212 A  
HETATM   11  C   UNL     1      -9.956  13.799  68.736  1.00  0.00    -0.117 A  
BRANCH   8  12
HETATM   12  C   UNL     1      -8.924  10.371  67.549  1.00  0.00    -0.135 C  
HETATM   13  O   UNL     1      -8.356  10.639  66.491  1.00  0.00    -0.133 OA 
HETATM   14  N   UNL     1      -8.804   9.173  68.239  1.00  0.00    -0.129 N  
HETATM   15  H   UNL     1      -9.374   9.066  69.077  1.00  0.00     0.000 HD 
BRANCH  14  16
HETATM   16  C   UNL     1      -7.964   8.080  67.891  1.00  0.00    -0.128 A  
HETATM   17  C   UNL     1      -6.697   7.897  68.439  1.00  0.00    -0.066 A  
HETATM   18  C   UNL     1      -5.928   6.787  68.101  1.00  0.00    -0.031 A  
HETATM   19  C   UNL     1      -6.397   5.843  67.184  1.00  0.00    -0.038 A  
HETATM   20  C   UNL     1      -7.638   6.018  66.537  1.00  0.00    -0.094 A  
HETATM   21 CL   UNL     1      -5.383   4.451  66.984  1.00  0.00    -0.012 Cl 
HETATM   22  C   UNL     1      -8.422   7.136  66.951  1.00  0.00    -0.123 A  
BRANCH  20  23
HETATM   23  C   UNL     1      -8.143   5.128  65.456  1.00  0.00    -0.117 A  
HETATM   24  C   UNL     1      -7.308   4.505  64.521  1.00  0.00    -0.070 A  
HETATM   25  C   UNL     1      -7.849   3.682  63.534  1.00  0.00    -0.075 A  
HETATM   26  C   UNL     1      -9.221   3.530  63.462  1.00  0.00    -0.101 A  
HETATM   27  C   UNL     1      -9.994   4.208  64.388  1.00  0.00    -0.145 A  
HETATM   28  N   UNL     1      -9.492   4.994  65.373  1.00  0.00    -0.128 NA 
ENDBRANCH  20  23
ENDBRANCH  14  16
ENDBRANCH   8  12
ENDBRANCH   2   5
TORSDOF 4
ENDMDL
MODEL      150
REMARK 921   NORMALIZED FREE ENERGY PREDICTED BY IDOCK:   -2.26 KCAL/MOL
REMARK 922        TOTAL FREE ENERGY PREDICTED BY IDOCK:   -3.41 KCAL/MOL
REMARK 923 INTER-LIGAND FREE ENERGY PREDICTED BY IDOCK:   -3.48 KCAL/MOL
REMARK 924 INTRA-LIGAND FREE ENERGY PREDICTED BY IDOCK:    0.06 KCAL/MOL
REMARK 927      BINDING AFFINITY PREDICTED BY RF-SCORE:    0.00 PKD
ROOT
HETATM    1  C   UNL     1     -11.613  14.788  69.491  1.00  0.00    -0.304 C  
HETATM    2  S   UNL     1     -10.006  15.009  68.771  1.00  0.00    -0.234 S  
HETATM    3  O   UNL     1      -9.030  15.096  69.840  1.00  0.00    -0.077 OA 
HETATM    4  O   UNL     1     -10.098  16.047  67.760  1.00  0.00    -0.236 OA 
ENDROOT
BRANCH   2   5
HETATM    5  C   UNL     1      -9.728  13.474  67.918  1.00  0.00    -0.225 A  
HETATM    6  C   UNL     1      -8.463  12.878  67.947  1.00  0.00    -0.181 A  
HETATM    7  C   UNL     1      -8.223  11.696  67.226  1.00  0.00    -0.159 A  
HETATM    8  C   UNL     1      -9.253  11.099  66.489  1.00  0.00    -0.194 A  
HETATM    9 CL   UNL     1      -6.604  11.094  67.264  1.00  0.00    -0.075 Cl 
HETATM   10  C   UNL     1     -10.535  11.700  66.517  1.00  0.00    -0.276 A  
HETATM   11  C   UNL     1     -10.779  12.875  67.229  1.00  0.00    -0.260 A  
BRANCH   8  12
HETATM   12  C   UNL     1      -9.115   9.924  65.572  1.00  0.00    -0.189 C  
HETATM   13  O   UNL     1      -9.998   9.803  64.723  1.00  0.00    -0.210 OA 
HETATM   14  N   UNL     1      -8.050   9.052  65.748  1.00  0.00    -0.106 N  
HETATM   15  H   UNL     1      -7.421   9.244  66.527  1.00  0.00     0.000 HD 
BRANCH  14  16
HETATM   16  C   UNL     1      -7.750   7.915  64.948  1.00  0.00    -0.112 A  
HETATM   17  C   UNL     1      -7.877   7.913  63.561  1.00  0.00    -0.138 A  
HETATM   18  C   UNL     1      -7.530   6.791  62.815  1.00  0.00    -0.082 A  
HETATM   19  C   UNL     1      -7.069   5.629  63.441  1.00  0.00    -0.046 A  
HETATM   20  C   UNL     1      -6.996   5.546  64.847  1.00  0.00    -0.053 A  
HETATM   21 CL   UNL     1      -6.543   4.377  62.363  1.00  0.00    -0.026 Cl 
HETATM   22  C   UNL     1      -7.306   6.734  65.574  1.00  0.00    -0.079 A  
BRANCH  20  23
HETATM   23  C   UNL     1      -6.644   4.304  65.588  1.00  0.00    -0.047 A  
HETATM   24  C   UNL     1      -5.522   3.522  65.288  1.00  0.00    -0.010 A  
HETATM   25  C   UNL     1      -5.251   2.370  66.024  1.00  0.00    -0.005 A  
HETATM   26  C   UNL     1      -6.130   1.984  67.020  1.00  0.00    -0.020 A  
HETATM   27  C   UNL     1      -7.244   2.777  67.237  1.00  0.00    -0.053 A  
HETATM   28  N   UNL     1      -7.518   3.915  66.553  1.00  0.00    -0.082 NA 
ENDBRANCH  20  23
ENDBRANCH  14  16
ENDBRANCH   8  12
ENDBRANCH   2   5
TORSDOF 4
ENDMDL
MODEL      151
REMARK 921   NORMALIZED FREE ENERGY PREDICTED BY IDOCK:   -2.03 KCAL/MOL
REMARK 922        TOTAL FREE ENERGY PREDICTED BY IDOCK:   -3.13 KCAL/MOL
REMARK 923 INTER-LIGAND FREE ENERGY PREDICTED BY IDOCK:   -3.28 KCAL/MOL
REMARK 924 INTRA-LIGAND FREE ENERGY PREDICTED BY IDOCK:    0.15 KCAL/MOL
REMARK 927      BINDING AFFINITY PREDICTED BY RF-SCORE:    0.00 PKD
ROOT
HETATM    1  C   UNL     1      -6.099  20.367  71.442  1.00  0.00    -0.144 C  
HETATM    2  S   UNL     1      -6.566  20.219  69.737  1.00  0.00    -0.071 S  
HETATM    3  O   UNL     1      -5.580  20.909  68.927  1.00  0.00    -0.330 OA 
HETATM    4  O   UNL     1      -7.979  20.535  69.621  1.00  0.00     0.745 OA 
ENDROOT
BRANCH   2   5
HETATM    5  C   UNL     1      -6.394  18.478  69.418  1.00  0.00    -0.258 A  
HETATM    6  C   UNL     1      -7.146  17.876  68.403  1.00  0.00    -0.245 A  
HETATM    7  C   UNL     1      -7.058  16.490  68.188  1.00  0.00    -0.145 A  
HETATM    8  C   UNL     1      -6.204  15.707  68.975  1.00  0.00    -0.113 A  
HETATM    9 CL   UNL     1      -8.092  15.841  66.965  1.00  0.00    -0.247 Cl 
HETATM   10  C   UNL     1      -5.422  16.352  69.963  1.00  0.00    -0.185 A  
HETATM   11  C   UNL     1      -5.507  17.727  70.183  1.00  0.00    -0.242 A  
BRANCH   8  12
HETATM   12  C   UNL     1      -6.105  14.214  68.951  1.00  0.00    -0.085 C  
HETATM   13  O   UNL     1      -5.133  13.734  69.535  1.00  0.00    -0.083 OA 
HETATM   14  N   UNL     1      -7.068  13.484  68.268  1.00  0.00    -0.097 N  
HETATM   15  H   UNL     1      -7.791  14.015  67.784  1.00  0.00     0.000 HD 
BRANCH  14  16
HETATM   16  C   UNL     1      -7.145  12.067  68.178  1.00  0.00    -0.086 A  
HETATM   17  C   UNL     1      -6.220  11.304  67.469  1.00  0.00    -0.064 A  
HETATM   18  C   UNL     1      -6.310   9.915  67.446  1.00  0.00    -0.067 A  
HETATM   19  C   UNL     1      -7.346   9.254  68.112  1.00  0.00    -0.079 A  
HETATM   20  C   UNL     1      -8.355   9.978  68.780  1.00  0.00    -0.121 A  
HETATM   21 CL   UNL     1      -7.230   7.523  68.106  1.00  0.00    -0.088 Cl 
HETATM   22  C   UNL     1      -8.198  11.395  68.830  1.00  0.00    -0.107 A  
BRANCH  20  23
HETATM   23  C   UNL     1      -9.557   9.351  69.395  1.00  0.00    -0.173 A  
HETATM   24  C   UNL     1     -10.240   9.905  70.484  1.00  0.00    -0.257 A  
HETATM   25  C   UNL     1     -11.361   9.265  71.010  1.00  0.00    -0.390 A  
HETATM   26  C   UNL     1     -11.757   8.053  70.475  1.00  0.00    -0.080 A  
HETATM   27  C   UNL     1     -11.013   7.537  69.429  1.00  0.00    -0.083 A  
HETATM   28  N   UNL     1      -9.935   8.151  68.882  1.00  0.00    -0.187 NA 
ENDBRANCH  20  23
ENDBRANCH  14  16
ENDBRANCH   8  12
ENDBRANCH   2   5
TORSDOF 4
ENDMDL
MODEL      152
REMARK 921   NORMALIZED FREE ENERGY PREDICTED BY IDOCK:   -2.03 KCAL/MOL
REMARK 922        TOTAL FREE ENERGY PREDICTED BY IDOCK:   -3.13 KCAL/MOL
REMARK 923 INTER-LIGAND FREE ENERGY PREDICTED BY IDOCK:   -2.78 KCAL/MOL
REMARK 924 INTRA-LIGAND FREE ENERGY PREDICTED BY IDOCK:   -0.35 KCAL/MOL
REMARK 927      BINDING AFFINITY PREDICTED BY RF-SCORE:    0.00 PKD
ROOT
HETATM    1  C   UNL     1      -5.131  16.019  68.373  1.00  0.00    -0.098 C  
HETATM    2  S   UNL     1      -6.486  15.665  69.462  1.00  0.00    -0.182 S  
HETATM    3  O   UNL     1      -7.637  16.435  69.029  1.00  0.00    -0.213 OA 
HETATM    4  O   UNL     1      -6.006  15.747  70.830  1.00  0.00     0.020 OA 
ENDROOT
BRANCH   2   5
HETATM    5  C   UNL     1      -6.835  13.953  69.134  1.00  0.00    -0.108 A  
HETATM    6  C   UNL     1      -6.102  12.953  69.783  1.00  0.00    -0.125 A  
HETATM    7  C   UNL     1      -6.334  11.600  69.482  1.00  0.00    -0.122 A  
HETATM    8  C   UNL     1      -7.313  11.244  68.545  1.00  0.00    -0.106 A  
HETATM    9 CL   UNL     1      -5.315  10.456  70.279  1.00  0.00    -0.046 Cl 
HETATM   10  C   UNL     1      -8.070  12.276  67.940  1.00  0.00    -0.155 A  
HETATM   11  C   UNL     1      -7.843  13.621  68.233  1.00  0.00    -0.141 A  
BRANCH   8  12
HETATM   12  C   UNL     1      -7.578   9.865  68.028  1.00  0.00    -0.085 C  
HETATM   13  O   UNL     1      -6.926   9.531  67.039  1.00  0.00    -0.083 OA 
HETATM   14  N   UNL     1      -8.535   9.081  68.657  1.00  0.00    -0.127 N  
HETATM   15  H   UNL     1      -9.038   9.505  69.436  1.00  0.00     0.000 HD 
BRANCH  14  16
HETATM   16  C   UNL     1      -8.882   7.743  68.321  1.00  0.00    -0.129 A  
HETATM   17  C   UNL     1     -10.107   7.400  67.756  1.00  0.00    -0.232 A  
HETATM   18  C   UNL     1     -10.386   6.083  67.403  1.00  0.00    -0.268 A  
HETATM   19  C   UNL     1      -9.452   5.069  67.630  1.00  0.00    -0.132 A  
HETATM   20  C   UNL     1      -8.226   5.344  68.271  1.00  0.00    -0.095 A  
HETATM   21 CL   UNL     1      -9.895   3.514  67.001  1.00  0.00    -0.040 Cl 
HETATM   22  C   UNL     1      -7.953   6.713  68.567  1.00  0.00    -0.118 A  
BRANCH  20  23
HETATM   23  C   UNL     1      -7.243   4.298  68.665  1.00  0.00    -0.056 A  
HETATM   24  C   UNL     1      -6.450   4.383  69.816  1.00  0.00    -0.032 A  
HETATM   25  C   UNL     1      -5.550   3.365  70.126  1.00  0.00    -0.016 A  
HETATM   26  C   UNL     1      -5.415   2.297  69.257  1.00  0.00    -0.013 A  
HETATM   27  C   UNL     1      -6.196   2.294  68.114  1.00  0.00    -0.025 A  
HETATM   28  N   UNL     1      -7.097   3.259  67.802  1.00  0.00    -0.050 NA 
ENDBRANCH  20  23
ENDBRANCH  14  16
ENDBRANCH   8  12
ENDBRANCH   2   5
TORSDOF 4
ENDMDL
MODEL      153
REMARK 921   NORMALIZED FREE ENERGY PREDICTED BY IDOCK:   -1.99 KCAL/MOL
REMARK 922        TOTAL FREE ENERGY PREDICTED BY IDOCK:   -3.08 KCAL/MOL
REMARK 923 INTER-LIGAND FREE ENERGY PREDICTED BY IDOCK:   -3.12 KCAL/MOL
REMARK 924 INTRA-LIGAND FREE ENERGY PREDICTED BY IDOCK:    0.04 KCAL/MOL
REMARK 927      BINDING AFFINITY PREDICTED BY RF-SCORE:    0.00 PKD
ROOT
HETATM    1  C   UNL     1      -9.965  16.027  68.272  1.00  0.00    -0.220 C  
HETATM    2  S   UNL     1      -9.352  15.410  66.725  1.00  0.00    -0.265 S  
HETATM    3  O   UNL     1      -8.130  16.120  66.397  1.00  0.00    -0.293 OA 
HETATM    4  O   UNL     1     -10.457  15.356  65.785  1.00  0.00    -0.309 OA 
ENDROOT
BRANCH   2   5
HETATM    5  C   UNL     1      -8.908  13.731  67.105  1.00  0.00    -0.231 A  
HETATM    6  C   UNL     1      -9.049  12.734  66.133  1.00  0.00     0.047 A  
HETATM    7  C   UNL     1      -8.756  11.396  66.448  1.00  0.00    -0.185 A  
HETATM    8  C   UNL     1      -8.303  11.056  67.729  1.00  0.00    -0.118 A  
HETATM    9 CL   UNL     1      -9.046  10.238  65.199  1.00  0.00    -0.211 Cl 
HETATM   10  C   UNL     1      -8.126  12.093  68.676  1.00  0.00    -0.048 A  
HETATM   11  C   UNL     1      -8.418  13.423  68.371  1.00  0.00    -0.135 A  
BRANCH   8  12
HETATM   12  C   UNL     1      -8.081   9.669  68.246  1.00  0.00    -0.105 C  
HETATM   13  O   UNL     1      -8.937   8.840  67.937  1.00  0.00    -0.139 OA 
HETATM   14  N   UNL     1      -6.973   9.415  69.042  1.00  0.00    -0.058 N  
HETATM   15  H   UNL     1      -6.373  10.209  69.262  1.00  0.00     0.000 HD 
BRANCH  14  16
HETATM   16  C   UNL     1      -6.594   8.155  69.581  1.00  0.00    -0.037 A  
HETATM   17  C   UNL     1      -5.685   8.024  70.628  1.00  0.00    -0.029 A  
HETATM   18  C   UNL     1      -5.378   6.772  71.153  1.00  0.00    -0.027 A  
HETATM   19  C   UNL     1      -5.954   5.614  70.625  1.00  0.00    -0.025 A  
HETATM   20  C   UNL     1      -6.819   5.678  69.513  1.00  0.00    -0.061 A  
HETATM   21 CL   UNL     1      -5.579   4.154  71.484  1.00  0.00    -0.008 Cl 
HETATM   22  C   UNL     1      -7.155   6.981  69.040  1.00  0.00    -0.084 A  
BRANCH  20  23
HETATM   23  C   UNL     1      -7.364   4.481  68.815  1.00  0.00    -0.056 A  
HETATM   24  C   UNL     1      -8.730   4.276  68.594  1.00  0.00    -0.122 A  
HETATM   25  C   UNL     1      -9.171   3.132  67.930  1.00  0.00    -0.243 A  
HETATM   26  C   UNL     1      -8.246   2.181  67.539  1.00  0.00    -0.074 A  
HETATM   27  C   UNL     1      -6.914   2.423  67.827  1.00  0.00    -0.047 A  
HETATM   28  N   UNL     1      -6.456   3.539  68.448  1.00  0.00    -0.036 NA 
ENDBRANCH  20  23
ENDBRANCH  14  16
ENDBRANCH   8  12
ENDBRANCH   2   5
TORSDOF 4
ENDMDL
MODEL      154
REMARK 921   NORMALIZED FREE ENERGY PREDICTED BY IDOCK:   -1.77 KCAL/MOL
REMARK 922        TOTAL FREE ENERGY PREDICTED BY IDOCK:   -2.81 KCAL/MOL
REMARK 923 INTER-LIGAND FREE ENERGY PREDICTED BY IDOCK:   -2.46 KCAL/MOL
REMARK 924 INTRA-LIGAND FREE ENERGY PREDICTED BY IDOCK:   -0.35 KCAL/MOL
REMARK 927      BINDING AFFINITY PREDICTED BY RF-SCORE:    0.00 PKD
ROOT
HETATM    1  C   UNL     1      -6.387  19.781  67.342  1.00  0.00    -0.190 C  
HETATM    2  S   UNL     1      -8.094  19.331  67.517  1.00  0.00    -0.282 S  
HETATM    3  O   UNL     1      -8.776  19.614  66.267  1.00  0.00    -0.354 OA 
HETATM    4  O   UNL     1      -8.583  19.875  68.771  1.00  0.00    -0.198 OA 
ENDROOT
BRANCH   2   5
HETATM    5  C   UNL     1      -8.033  17.564  67.703  1.00  0.00    -0.202 A  
HETATM    6  C   UNL     1      -7.302  16.997  68.753  1.00  0.00    -0.236 A  
HETATM    7  C   UNL     1      -7.202  15.600  68.868  1.00  0.00    -0.146 A  
HETATM    8  C   UNL     1      -7.846  14.768  67.944  1.00  0.00    -0.145 A  
HETATM    9 CL   UNL     1      -6.207  15.010  70.152  1.00  0.00    -0.157 Cl 
HETATM   10  C   UNL     1      -8.616  15.371  66.920  1.00  0.00    -0.291 A  
HETATM   11  C   UNL     1      -8.718  16.758  66.799  1.00  0.00    -0.260 A  
BRANCH   8  12
HETATM   12  C   UNL     1      -7.721  13.279  67.862  1.00  0.00    -0.152 C  
HETATM   13  O   UNL     1      -7.696  12.808  66.725  1.00  0.00     0.049 OA 
HETATM   14  N   UNL     1      -7.673  12.539  69.034  1.00  0.00    -0.330 N  
HETATM   15  H   UNL     1      -7.757  13.057  69.909  1.00  0.00     0.000 HD 
BRANCH  14  16
HETATM   16  C   UNL     1      -7.519  11.129  69.136  1.00  0.00    -0.109 A  
HETATM   17  C   UNL     1      -6.464  10.532  69.821  1.00  0.00    -0.102 A  
HETATM   18  C   UNL     1      -6.378   9.148  69.932  1.00  0.00    -0.042 A  
HETATM   19  C   UNL     1      -7.334   8.322  69.335  1.00  0.00    -0.074 A  
HETATM   20  C   UNL     1      -8.380   8.866  68.562  1.00  0.00    -0.125 A  
HETATM   21 CL   UNL     1      -7.163   6.632  69.690  1.00  0.00    -0.076 Cl 
HETATM   22  C   UNL     1      -8.468  10.290  68.519  1.00  0.00    -0.121 A  
BRANCH  20  23
HETATM   23  C   UNL     1      -9.354   8.048  67.790  1.00  0.00    -0.137 A  
HETATM   24  C   UNL     1      -9.439   8.069  66.393  1.00  0.00    -0.268 A  
HETATM   25  C   UNL     1     -10.375   7.274  65.733  1.00  0.00     1.578 A  
HETATM   26  C   UNL     1     -11.250   6.505  66.479  1.00  0.00     0.333 A  
HETATM   27  C   UNL     1     -11.144   6.562  67.857  1.00  0.00    -0.255 A  
HETATM   28  N   UNL     1     -10.226   7.307  68.523  1.00  0.00    -0.176 NA 
ENDBRANCH  20  23
ENDBRANCH  14  16
ENDBRANCH   8  12
ENDBRANCH   2   5
TORSDOF 4
ENDMDL
MODEL      155
REMARK 921   NORMALIZED FREE ENERGY PREDICTED BY IDOCK:   -0.40 KCAL/MOL
REMARK 922        TOTAL FREE ENERGY PREDICTED BY IDOCK:   -1.12 KCAL/MOL
REMARK 923 INTER-LIGAND FREE ENERGY PREDICTED BY IDOCK:   -1.35 KCAL/MOL
REMARK 924 INTRA-LIGAND FREE ENERGY PREDICTED BY IDOCK:    0.24 KCAL/MOL
REMARK 927      BINDING AFFINITY PREDICTED BY RF-SCORE:    0.00 PKD
ROOT
HETATM    1  C   UNL     1     -14.401  12.029  72.565  1.00  0.00     1.158 C  
HETATM    2  S   UNL     1     -13.035  12.690  71.645  1.00  0.00    -0.216 S  
HETATM    3  O   UNL     1     -12.171  13.413  72.559  1.00  0.00     0.456 OA 
HETATM    4  O   UNL     1     -13.555  13.328  70.450  1.00  0.00     0.700 OA 
ENDROOT
BRANCH   2   5
HETATM    5  C   UNL     1     -12.157  11.236  71.120  1.00  0.00    -0.147 A  
HETATM    6  C   UNL     1     -11.933  10.190  72.022  1.00  0.00     0.245 A  
HETATM    7  C   UNL     1     -11.189   9.065  71.628  1.00  0.00    -0.361 A  
HETATM    8  C   UNL     1     -10.682   8.976  70.326  1.00  0.00    -0.262 A  
HETATM    9 CL   UNL     1     -10.902   7.875  72.847  1.00  0.00    -0.450 Cl 
HETATM   10  C   UNL     1     -10.965  10.028  69.422  1.00  0.00    -0.280 A  
HETATM   11  C   UNL     1     -11.702  11.149  69.807  1.00  0.00    -0.419 A  
BRANCH   8  12
HETATM   12  C   UNL     1      -9.767   7.912  69.806  1.00  0.00    -0.176 C  
HETATM   13  O   UNL     1      -9.457   7.035  70.613  1.00  0.00    -0.165 OA 
HETATM   14  N   UNL     1      -9.313   7.991  68.497  1.00  0.00    -0.142 N  
HETATM   15  H   UNL     1      -9.609   8.802  67.956  1.00  0.00     0.000 HD 
BRANCH  14  16
HETATM   16  C   UNL     1      -8.475   7.051  67.838  1.00  0.00    -0.124 A  
HETATM   17  C   UNL     1      -7.095   7.012  68.018  1.00  0.00    -0.086 A  
HETATM   18  C   UNL     1      -6.320   6.045  67.384  1.00  0.00    -0.038 A  
HETATM   19  C   UNL     1      -6.905   5.105  66.532  1.00  0.00    -0.062 A  
HETATM   20  C   UNL     1      -8.286   5.144  66.250  1.00  0.00    -0.109 A  
HETATM   21 CL   UNL     1      -5.825   3.883  65.941  1.00  0.00    -0.022 Cl 
HETATM   22  C   UNL     1      -9.055   6.113  66.961  1.00  0.00    -0.119 A  
BRANCH  20  23
HETATM   23  C   UNL     1      -8.955   4.264  65.254  1.00  0.00    -0.137 A  
HETATM   24  C   UNL     1     -10.218   4.534  64.714  1.00  0.00    -0.000 A  
HETATM   25  C   UNL     1     -10.785   3.666  63.783  1.00  0.00    -0.271 A  
HETATM   26  C   UNL     1     -10.106   2.511  63.438  1.00  0.00    -0.138 A  
HETATM   27  C   UNL     1      -8.882   2.280  64.040  1.00  0.00    -0.093 A  
HETATM   28  N   UNL     1      -8.297   3.120  64.929  1.00  0.00    -0.093 NA 
ENDBRANCH  20  23
ENDBRANCH  14  16
ENDBRANCH   8  12
ENDBRANCH   2   5
TORSDOF 4
ENDMDL
MODEL      156
REMARK 921   NORMALIZED FREE ENERGY PREDICTED BY IDOCK:   -0.13 KCAL/MOL
REMARK 922        TOTAL FREE ENERGY PREDICTED BY IDOCK:   -0.78 KCAL/MOL
REMARK 923 INTER-LIGAND FREE ENERGY PREDICTED BY IDOCK:   -0.98 KCAL/MOL
REMARK 924 INTRA-LIGAND FREE ENERGY PREDICTED BY IDOCK:    0.20 KCAL/MOL
REMARK 927      BINDING AFFINITY PREDICTED BY RF-SCORE:    0.00 PKD
ROOT
HETATM    1  C   UNL     1     -14.404  12.033  72.548  1.00  0.00     1.158 C  
HETATM    2  S   UNL     1     -13.088  12.851  71.684  1.00  0.00    -0.259 S  
HETATM    3  O   UNL     1     -12.265  13.550  72.653  1.00  0.00     0.415 OA 
HETATM    4  O   UNL     1     -13.654  13.550  70.545  1.00  0.00     0.377 OA 
ENDROOT
BRANCH   2   5
HETATM    5  C   UNL     1     -12.124  11.502  71.041  1.00  0.00    -0.153 A  
HETATM    6  C   UNL     1     -11.041  11.759  70.193  1.00  0.00     0.316 A  
HETATM    7  C   UNL     1     -10.314  10.694  69.634  1.00  0.00    -0.145 A  
HETATM    8  C   UNL     1     -10.657   9.371  69.937  1.00  0.00    -0.258 A  
HETATM    9 CL   UNL     1      -9.052  11.125  68.536  1.00  0.00    -0.171 Cl 
HETATM   10  C   UNL     1     -11.728   9.144  70.835  1.00  0.00    -0.341 A  
HETATM   11  C   UNL     1     -12.455  10.197  71.391  1.00  0.00    -0.524 A  
BRANCH   8  12
HETATM   12  C   UNL     1     -10.065   8.143  69.320  1.00  0.00    -0.202 C  
HETATM   13  O   UNL     1      -9.378   8.329  68.315  1.00  0.00    -0.135 OA 
HETATM   14  N   UNL     1     -10.341   6.904  69.881  1.00  0.00    -0.199 N  
HETATM   15  H   UNL     1     -10.970   6.893  70.684  1.00  0.00     0.000 HD 
BRANCH  14  16
HETATM   16  C   UNL     1      -9.833   5.649  69.446  1.00  0.00    -0.175 A  
HETATM   17  C   UNL     1     -10.339   4.972  68.340  1.00  0.00    -0.091 A  
HETATM   18  C   UNL     1      -9.781   3.767  67.925  1.00  0.00    -0.125 A  
HETATM   19  C   UNL     1      -8.714   3.194  68.623  1.00  0.00    -0.103 A  
HETATM   20  C   UNL     1      -8.212   3.794  69.796  1.00  0.00    -0.069 A  
HETATM   21 CL   UNL     1      -8.042   1.772  67.892  1.00  0.00    -0.061 Cl 
HETATM   22  C   UNL     1      -8.772   5.056  70.158  1.00  0.00    -0.130 A  
BRANCH  20  23
HETATM   23  C   UNL     1      -7.171   3.178  70.663  1.00  0.00    -0.033 A  
HETATM   24  C   UNL     1      -6.941   3.573  71.986  1.00  0.00    -0.034 A  
HETATM   25  C   UNL     1      -5.950   2.950  72.743  1.00  0.00    -0.008 A  
HETATM   26  C   UNL     1      -5.166   1.974  72.155  1.00  0.00     0.000 A  
HETATM   27  C   UNL     1      -5.416   1.660  70.831  1.00  0.00    -0.004 A  
HETATM   28  N   UNL     1      -6.390   2.232  70.080  1.00  0.00    -0.024 NA 
ENDBRANCH  20  23
ENDBRANCH  14  16
ENDBRANCH   8  12
ENDBRANCH   2   5
TORSDOF 4
ENDMDL
MODEL      157
REMARK 921   NORMALIZED FREE ENERGY PREDICTED BY IDOCK:    0.12 KCAL/MOL
REMARK 922        TOTAL FREE ENERGY PREDICTED BY IDOCK:   -0.48 KCAL/MOL
REMARK 923 INTER-LIGAND FREE ENERGY PREDICTED BY IDOCK:   -0.69 KCAL/MOL
REMARK 924 INTRA-LIGAND FREE ENERGY PREDICTED BY IDOCK:    0.21 KCAL/MOL
REMARK 927      BINDING AFFINITY PREDICTED BY RF-SCORE:    0.00 PKD
ROOT
HETATM    1  C   UNL     1      -5.125  15.514  70.731  1.00  0.00    -0.154 C  
HETATM    2  S   UNL     1      -6.364  14.344  71.224  1.00  0.00     0.482 S  
HETATM    3  O   UNL     1      -7.656  15.003  71.202  1.00  0.00     1.404 OA 
HETATM    4  O   UNL     1      -5.898  13.661  72.418  1.00  0.00    -0.420 OA 
ENDROOT
BRANCH   2   5
HETATM    5  C   UNL     1      -6.350  13.154  69.904  1.00  0.00    -0.038 A  
HETATM    6  C   UNL     1      -6.093  11.806  70.179  1.00  0.00    -0.147 A  
HETATM    7  C   UNL     1      -6.022  10.873  69.131  1.00  0.00    -0.042 A  
HETATM    8  C   UNL     1      -6.224  11.282  67.807  1.00  0.00    -0.052 A  
HETATM    9 CL   UNL     1      -5.617   9.254  69.578  1.00  0.00    -0.034 Cl 
HETATM   10  C   UNL     1      -6.527  12.644  67.564  1.00  0.00    -0.158 A  
HETATM   11  C   UNL     1      -6.598  13.576  68.601  1.00  0.00    -0.098 A  
BRANCH   8  12
HETATM   12  C   UNL     1      -6.049  10.436  66.586  1.00  0.00    -0.068 C  
HETATM   13  O   UNL     1      -5.524  10.992  65.622  1.00  0.00    -0.139 OA 
HETATM   14  N   UNL     1      -6.501   9.124  66.603  1.00  0.00    -0.066 N  
HETATM   15  H   UNL     1      -6.965   8.808  67.454  1.00  0.00     0.000 HD 
BRANCH  14  16
HETATM   16  C   UNL     1      -6.380   8.177  65.549  1.00  0.00    -0.048 A  
HETATM   17  C   UNL     1      -5.352   8.219  64.610  1.00  0.00    -0.036 A  
HETATM   18  C   UNL     1      -5.249   7.244  63.622  1.00  0.00    -0.033 A  
HETATM   19  C   UNL     1      -6.189   6.214  63.532  1.00  0.00    -0.022 A  
HETATM   20  C   UNL     1      -7.296   6.166  64.405  1.00  0.00    -0.069 A  
HETATM   21 CL   UNL     1      -5.836   5.004  62.340  1.00  0.00    -0.014 Cl 
HETATM   22  C   UNL     1      -7.336   7.148  65.439  1.00  0.00    -0.080 A  
BRANCH  20  23
HETATM   23  C   UNL     1      -8.405   5.180  64.286  1.00  0.00    -0.137 A  
HETATM   24  C   UNL     1      -9.095   4.663  65.388  1.00  0.00    -0.149 A  
HETATM   25  C   UNL     1     -10.126   3.743  65.203  1.00  0.00    -0.090 A  
HETATM   26  C   UNL     1     -10.423   3.313  63.923  1.00  0.00    -0.218 A  
HETATM   27  C   UNL     1      -9.675   3.829  62.880  1.00  0.00    -0.135 A  
HETATM   28  N   UNL     1      -8.684   4.744  63.030  1.00  0.00    -0.126 NA 
ENDBRANCH  20  23
ENDBRANCH  14  16
ENDBRANCH   8  12
ENDBRANCH   2   5
TORSDOF 4
ENDMDL
MODEL      158
REMARK 921   NORMALIZED FREE ENERGY PREDICTED BY IDOCK:    1.02 KCAL/MOL
REMARK 922        TOTAL FREE ENERGY PREDICTED BY IDOCK:    0.63 KCAL/MOL
REMARK 923 INTER-LIGAND FREE ENERGY PREDICTED BY IDOCK:    0.87 KCAL/MOL
REMARK 924 INTRA-LIGAND FREE ENERGY PREDICTED BY IDOCK:   -0.24 KCAL/MOL
REMARK 927      BINDING AFFINITY PREDICTED BY RF-SCORE:    0.00 PKD
ROOT
HETATM    1  C   UNL     1      -6.202  19.769  71.961  1.00  0.00     0.175 C  
HETATM    2  S   UNL     1      -6.574  19.619  70.233  1.00  0.00     0.012 S  
HETATM    3  O   UNL     1      -5.484  20.203  69.475  1.00  0.00    -0.224 OA 
HETATM    4  O   UNL     1      -7.944  20.053  70.022  1.00  0.00     0.381 OA 
ENDROOT
BRANCH   2   5
HETATM    5  C   UNL     1      -6.535  17.863  69.959  1.00  0.00     0.186 A  
HETATM    6  C   UNL     1      -7.237  17.308  68.883  1.00  0.00    -0.243 A  
HETATM    7  C   UNL     1      -7.258  15.915  68.698  1.00  0.00    -0.139 A  
HETATM    8  C   UNL     1      -6.561  15.076  69.577  1.00  0.00    -0.155 A  
HETATM    9 CL   UNL     1      -8.224  15.334  67.389  1.00  0.00    -0.188 Cl 
HETATM   10  C   UNL     1      -5.822  15.671  70.628  1.00  0.00     0.026 A  
HETATM   11  C   UNL     1      -5.800  17.053  70.819  1.00  0.00     0.341 A  
BRANCH   8  12
HETATM   12  C   UNL     1      -6.600  13.580  69.585  1.00  0.00    -0.025 C  
HETATM   13  O   UNL     1      -7.518  13.074  70.230  1.00  0.00     1.400 OA 
HETATM   14  N   UNL     1      -5.612  12.876  68.911  1.00  0.00    -0.070 N  
HETATM   15  H   UNL     1      -4.881  13.425  68.461  1.00  0.00     0.000 HD 
BRANCH  14  16
HETATM   16  C   UNL     1      -5.522  11.462  68.787  1.00  0.00    -0.042 A  
HETATM   17  C   UNL     1      -5.220  10.627  69.860  1.00  0.00    -0.039 A  
HETATM   18  C   UNL     1      -5.186   9.245  69.700  1.00  0.00    -0.034 A  
HETATM   19  C   UNL     1      -5.427   8.663  68.453  1.00  0.00    -0.038 A  
HETATM   20  C   UNL     1      -5.659   9.461  67.314  1.00  0.00    -0.041 A  
HETATM   21 CL   UNL     1      -5.491   6.929  68.456  1.00  0.00    -0.016 Cl 
HETATM   22  C   UNL     1      -5.743  10.870  67.528  1.00  0.00    -0.044 A  
BRANCH  20  23
HETATM   23  C   UNL     1      -5.792   8.920  65.934  1.00  0.00    -0.051 A  
HETATM   24  C   UNL     1      -5.917   7.555  65.652  1.00  0.00    -0.038 A  
HETATM   25  C   UNL     1      -6.039   7.117  64.335  1.00  0.00    -0.037 A  
HETATM   26  C   UNL     1      -5.985   8.043  63.309  1.00  0.00    -0.067 A  
HETATM   27  C   UNL     1      -5.816   9.373  63.652  1.00  0.00    -0.089 A  
HETATM   28  N   UNL     1      -5.720   9.828  64.926  1.00  0.00    -0.072 NA 
ENDBRANCH  20  23
ENDBRANCH  14  16
ENDBRANCH   8  12
ENDBRANCH   2   5
TORSDOF 4
ENDMDL
MODEL      159
REMARK 921   NORMALIZED FREE ENERGY PREDICTED BY IDOCK:    1.36 KCAL/MOL
REMARK 922        TOTAL FREE ENERGY PREDICTED BY IDOCK:    1.05 KCAL/MOL
REMARK 923 INTER-LIGAND FREE ENERGY PREDICTED BY IDOCK:    1.00 KCAL/MOL
REMARK 924 INTRA-LIGAND FREE ENERGY PREDICTED BY IDOCK:    0.05 KCAL/MOL
REMARK 927      BINDING AFFINITY PREDICTED BY RF-SCORE:    0.00 PKD
ROOT
HETATM    1  C   UNL     1      -7.234   7.663  73.511  1.00  0.00    -0.097 C  
HETATM    2  S   UNL     1      -7.444   7.216  71.807  1.00  0.00    -0.087 S  
HETATM    3  O   UNL     1      -8.863   7.068  71.541  1.00  0.00    -0.128 OA 
HETATM    4  O   UNL     1      -6.513   6.147  71.497  1.00  0.00    -0.047 OA 
ENDROOT
BRANCH   2   5
HETATM    5  C   UNL     1      -6.887   8.662  70.936  1.00  0.00    -0.061 A  
HETATM    6  C   UNL     1      -6.627   9.845  71.637  1.00  0.00     0.542 A  
HETATM    7  C   UNL     1      -6.244  11.006  70.945  1.00  0.00     0.277 A  
HETATM    8  C   UNL     1      -6.102  10.982  69.552  1.00  0.00    -0.072 A  
HETATM    9 CL   UNL     1      -6.032  12.429  71.901  1.00  0.00     1.252 Cl 
HETATM   10  C   UNL     1      -6.326   9.759  68.875  1.00  0.00    -0.041 A  
HETATM   11  C   UNL     1      -6.709   8.602  69.556  1.00  0.00    -0.040 A  
BRANCH   8  12
HETATM   12  C   UNL     1      -5.832  12.162  68.673  1.00  0.00    -0.053 C  
HETATM   13  O   UNL     1      -5.129  11.944  67.686  1.00  0.00    -0.055 OA 
HETATM   14  N   UNL     1      -6.350  13.400  69.026  1.00  0.00    -0.091 N  
HETATM   15  H   UNL     1      -6.873  13.448  69.900  1.00  0.00     0.000 HD 
BRANCH  14  16
HETATM   16  C   UNL     1      -6.222  14.610  68.289  1.00  0.00    -0.122 A  
HETATM   17  C   UNL     1      -5.243  14.802  67.318  1.00  0.00     0.575 A  
HETATM   18  C   UNL     1      -5.184  15.987  66.590  1.00  0.00     0.854 A  
HETATM   19  C   UNL     1      -6.091  17.022  66.833  1.00  0.00    -0.200 A  
HETATM   20  C   UNL     1      -7.054  16.915  67.858  1.00  0.00    -0.162 A  
HETATM   21 CL   UNL     1      -5.974  18.367  65.744  1.00  0.00    -0.231 Cl 
HETATM   22  C   UNL     1      -7.120  15.665  68.544  1.00  0.00    -0.116 A  
BRANCH  20  23
HETATM   23  C   UNL     1      -7.962  18.023  68.263  1.00  0.00    -0.290 A  
HETATM   24  C   UNL     1      -9.358  17.922  68.234  1.00  0.00    -0.287 A  
HETATM   25  C   UNL     1     -10.149  18.999  68.629  1.00  0.00    -0.449 A  
HETATM   26  C   UNL     1      -9.538  20.182  69.002  1.00  0.00     0.001 A  
HETATM   27  C   UNL     1      -8.155  20.232  68.967  1.00  0.00     0.448 A  
HETATM   28  N   UNL     1      -7.362  19.191  68.611  1.00  0.00    -0.316 NA 
ENDBRANCH  20  23
ENDBRANCH  14  16
ENDBRANCH   8  12
ENDBRANCH   2   5
TORSDOF 4
ENDMDL
MODEL      160
REMARK 921   NORMALIZED FREE ENERGY PREDICTED BY IDOCK:    1.61 KCAL/MOL
REMARK 922        TOTAL FREE ENERGY PREDICTED BY IDOCK:    1.37 KCAL/MOL
REMARK 923 INTER-LIGAND FREE ENERGY PREDICTED BY IDOCK:    1.04 KCAL/MOL
REMARK 924 INTRA-LIGAND FREE ENERGY PREDICTED BY IDOCK:    0.33 KCAL/MOL
REMARK 927      BINDING AFFINITY PREDICTED BY RF-SCORE:    0.00 PKD
ROOT
HETATM    1  C   UNL     1      -7.573   6.106  74.491  1.00  0.00    -0.092 C  
HETATM    2  S   UNL     1      -7.746   5.587  72.803  1.00  0.00    -0.099 S  
HETATM    3  O   UNL     1      -9.159   5.456  72.503  1.00  0.00    -0.136 OA 
HETATM    4  O   UNL     1      -6.829   4.486  72.568  1.00  0.00    -0.051 OA 
ENDROOT
BRANCH   2   5
HETATM    5  C   UNL     1      -7.133   6.980  71.885  1.00  0.00    -0.069 A  
HETATM    6  C   UNL     1      -6.888   8.194  72.536  1.00  0.00    -0.096 A  
HETATM    7  C   UNL     1      -6.460   9.315  71.803  1.00  0.00     0.082 A  
HETATM    8  C   UNL     1      -6.259   9.218  70.421  1.00  0.00    -0.052 A  
HETATM    9 CL   UNL     1      -6.270  10.782  72.695  1.00  0.00     2.042 Cl 
HETATM   10  C   UNL     1      -6.471   7.965  69.797  1.00  0.00    -0.034 A  
HETATM   11  C   UNL     1      -6.897   6.849  70.519  1.00  0.00    -0.058 A  
BRANCH   8  12
HETATM   12  C   UNL     1      -5.937  10.349  69.495  1.00  0.00    -0.044 C  
HETATM   13  O   UNL     1      -5.154  10.086  68.583  1.00  0.00    -0.033 OA 
HETATM   14  N   UNL     1      -6.500  11.596  69.731  1.00  0.00    -0.222 N  
HETATM   15  H   UNL     1      -7.092  11.685  70.556  1.00  0.00     0.000 HD 
BRANCH  14  16
HETATM   16  C   UNL     1      -6.331  12.761  68.933  1.00  0.00    -0.086 A  
HETATM   17  C   UNL     1      -5.253  12.936  68.071  1.00  0.00    -0.094 A  
HETATM   18  C   UNL     1      -5.152  14.075  67.276  1.00  0.00     0.586 A  
HETATM   19  C   UNL     1      -6.119  15.082  67.344  1.00  0.00     0.148 A  
HETATM   20  C   UNL     1      -7.190  14.996  68.257  1.00  0.00    -0.113 A  
HETATM   21 CL   UNL     1      -5.924  16.360  66.188  1.00  0.00     1.037 Cl 
HETATM   22  C   UNL     1      -7.291  13.790  69.013  1.00  0.00    -0.036 A  
BRANCH  20  23
HETATM   23  C   UNL     1      -8.180  16.085  68.480  1.00  0.00    -0.181 A  
HETATM   24  C   UNL     1      -7.967  17.410  68.083  1.00  0.00    -0.233 A  
HETATM   25  C   UNL     1      -8.938  18.381  68.322  1.00  0.00    -0.330 A  
HETATM   26  C   UNL     1     -10.091  18.027  68.999  1.00  0.00    -0.301 A  
HETATM   27  C   UNL     1     -10.222  16.711  69.403  1.00  0.00    -0.251 A  
HETATM   28  N   UNL     1      -9.304  15.742  69.161  1.00  0.00    -0.241 NA 
ENDBRANCH  20  23
ENDBRANCH  14  16
ENDBRANCH   8  12
ENDBRANCH   2   5
TORSDOF 4
ENDMDL
MODEL      161
REMARK 921   NORMALIZED FREE ENERGY PREDICTED BY IDOCK:    2.07 KCAL/MOL
REMARK 922        TOTAL FREE ENERGY PREDICTED BY IDOCK:    1.93 KCAL/MOL
REMARK 923 INTER-LIGAND FREE ENERGY PREDICTED BY IDOCK:    1.98 KCAL/MOL
REMARK 924 INTRA-LIGAND FREE ENERGY PREDICTED BY IDOCK:   -0.05 KCAL/MOL
REMARK 927      BINDING AFFINITY PREDICTED BY RF-SCORE:    0.00 PKD
ROOT
HETATM    1  C   UNL     1      -9.411  20.511  68.485  1.00  0.00     0.339 C  
HETATM    2  S   UNL     1      -9.454  19.629  70.024  1.00  0.00     0.957 S  
HETATM    3  O   UNL     1     -10.815  19.644  70.526  1.00  0.00     1.492 OA 
HETATM    4  O   UNL     1      -8.352  20.093  70.847  1.00  0.00     1.208 OA 
ENDROOT
BRANCH   2   5
HETATM    5  C   UNL     1      -9.081  17.958  69.546  1.00  0.00     0.642 A  
HETATM    6  C   UNL     1      -7.768  17.482  69.638  1.00  0.00     0.684 A  
HETATM    7  C   UNL     1      -7.458  16.181  69.204  1.00  0.00    -0.221 A  
HETATM    8  C   UNL     1      -8.463  15.349  68.695  1.00  0.00    -0.170 A  
HETATM    9 CL   UNL     1      -5.793  15.727  69.285  1.00  0.00    -0.113 Cl 
HETATM   10  C   UNL     1      -9.789  15.843  68.658  1.00  0.00    -0.212 A  
HETATM   11  C   UNL     1     -10.103  17.134  69.085  1.00  0.00    -0.254 A  
BRANCH   8  12
HETATM   12  C   UNL     1      -8.262  14.001  68.077  1.00  0.00    -0.155 C  
HETATM   13  O   UNL     1      -8.200  13.981  66.848  1.00  0.00    -0.110 OA 
HETATM   14  N   UNL     1      -8.190  12.885  68.900  1.00  0.00    -0.337 N  
HETATM   15  H   UNL     1      -8.309  13.042  69.900  1.00  0.00     0.000 HD 
BRANCH  14  16
HETATM   16  C   UNL     1      -7.966  11.544  68.483  1.00  0.00    -0.143 A  
HETATM   17  C   UNL     1      -7.564  10.539  69.358  1.00  0.00    -0.145 A  
HETATM   18  C   UNL     1      -7.399   9.230  68.913  1.00  0.00    -0.074 A  
HETATM   19  C   UNL     1      -7.609   8.898  67.572  1.00  0.00    -0.093 A  
HETATM   20  C   UNL     1      -7.939   9.889  66.625  1.00  0.00    -0.113 A  
HETATM   21 CL   UNL     1      -7.505   7.205  67.213  1.00  0.00    -0.097 Cl 
HETATM   22  C   UNL     1      -8.155  11.207  67.128  1.00  0.00    -0.138 A  
BRANCH  20  23
HETATM   23  C   UNL     1      -8.047   9.636  65.162  1.00  0.00    -0.124 A  
HETATM   24  C   UNL     1      -9.160  10.006  64.398  1.00  0.00    -0.289 A  
HETATM   25  C   UNL     1      -9.193   9.739  63.030  1.00  0.00    -0.226 A  
HETATM   26  C   UNL     1      -8.136   9.062  62.450  1.00  0.00    -0.151 A  
HETATM   27  C   UNL     1      -7.086   8.685  63.268  1.00  0.00    -0.090 A  
HETATM   28  N   UNL     1      -7.017   8.955  64.596  1.00  0.00    -0.083 NA 
ENDBRANCH  20  23
ENDBRANCH  14  16
ENDBRANCH   8  12
ENDBRANCH   2   5
TORSDOF 4
ENDMDL
MODEL      162
REMARK 921   NORMALIZED FREE ENERGY PREDICTED BY IDOCK:    3.12 KCAL/MOL
REMARK 922        TOTAL FREE ENERGY PREDICTED BY IDOCK:    3.22 KCAL/MOL
REMARK 923 INTER-LIGAND FREE ENERGY PREDICTED BY IDOCK:    3.38 KCAL/MOL
REMARK 924 INTRA-LIGAND FREE ENERGY PREDICTED BY IDOCK:   -0.16 KCAL/MOL
REMARK 927      BINDING AFFINITY PREDICTED BY RF-SCORE:    0.00 PKD
ROOT
HETATM    1  C   UNL     1     -10.458  15.165  64.741  1.00  0.00    -0.209 C  
HETATM    2  S   UNL     1     -11.947  14.338  64.247  1.00  0.00    -0.372 S  
HETATM    3  O   UNL     1     -11.920  14.161  62.807  1.00  0.00     0.470 OA 
HETATM    4  O   UNL     1     -13.070  14.991  64.896  1.00  0.00    -0.061 OA 
ENDROOT
BRANCH   2   5
HETATM    5  C   UNL     1     -11.782  12.728  64.984  1.00  0.00    -0.354 A  
HETATM    6  C   UNL     1     -12.228  12.510  66.293  1.00  0.00    -0.159 A  
HETATM    7  C   UNL     1     -12.045  11.256  66.900  1.00  0.00     1.201 A  
HETATM    8  C   UNL     1     -11.433  10.213  66.194  1.00  0.00     1.510 A  
HETATM    9 CL   UNL     1     -12.557  11.124  68.545  1.00  0.00     0.646 Cl 
HETATM   10  C   UNL     1     -11.035  10.451  64.856  1.00  0.00     0.698 A  
HETATM   11  C   UNL     1     -11.212  11.694  64.248  1.00  0.00    -0.392 A  
BRANCH   8  12
HETATM   12  C   UNL     1     -11.054   8.876  66.749  1.00  0.00     0.737 C  
HETATM   13  O   UNL     1     -10.655   8.051  65.927  1.00  0.00     1.027 OA 
HETATM   14  N   UNL     1     -11.198   8.644  68.110  1.00  0.00    -0.205 N  
HETATM   15  H   UNL     1     -11.591   9.402  68.667  1.00  0.00     0.000 HD 
BRANCH  14  16
HETATM   16  C   UNL     1     -10.852   7.452  68.803  1.00  0.00    -0.043 A  
HETATM   17  C   UNL     1     -11.302   6.193  68.413  1.00  0.00    -0.014 A  
HETATM   18  C   UNL     1     -10.901   5.049  69.096  1.00  0.00     0.534 A  
HETATM   19  C   UNL     1     -10.057   5.137  70.205  1.00  0.00    -0.268 A  
HETATM   20  C   UNL     1      -9.633   6.390  70.694  1.00  0.00    -0.186 A  
HETATM   21 CL   UNL     1      -9.536   3.614  70.851  1.00  0.00    -0.242 Cl 
HETATM   22  C   UNL     1     -10.018   7.535  69.935  1.00  0.00    -0.189 A  
BRANCH  20  23
HETATM   23  C   UNL     1      -8.845   6.570  71.944  1.00  0.00    -0.134 A  
HETATM   24  C   UNL     1      -9.431   6.739  73.204  1.00  0.00    -0.166 A  
HETATM   25  C   UNL     1      -8.632   6.900  74.335  1.00  0.00    -0.199 A  
HETATM   26  C   UNL     1      -7.257   6.941  74.188  1.00  0.00    -0.095 A  
HETATM   27  C   UNL     1      -6.742   6.813  72.911  1.00  0.00    -0.067 A  
HETATM   28  N   UNL     1      -7.496   6.629  71.798  1.00  0.00    -0.090 NA 
ENDBRANCH  20  23
ENDBRANCH  14  16
ENDBRANCH   8  12
ENDBRANCH   2   5
TORSDOF 4
ENDMDL
MODEL      163
REMARK 921   NORMALIZED FREE ENERGY PREDICTED BY IDOCK:    4.91 KCAL/MOL
REMARK 922        TOTAL FREE ENERGY PREDICTED BY IDOCK:    5.44 KCAL/MOL
REMARK 923 INTER-LIGAND FREE ENERGY PREDICTED BY IDOCK:    5.63 KCAL/MOL
REMARK 924 INTRA-LIGAND FREE ENERGY PREDICTED BY IDOCK:   -0.20 KCAL/MOL
REMARK 927      BINDING AFFINITY PREDICTED BY RF-SCORE:    0.00 PKD
ROOT
HETATM    1  C   UNL     1      -8.925  16.531  69.903  1.00  0.00     0.939 C  
HETATM    2  S   UNL     1      -9.055  14.981  70.755  1.00  0.00     2.486 S  
HETATM    3  O   UNL     1     -10.446  14.762  71.105  1.00  0.00     0.394 OA 
HETATM    4  O   UNL     1      -8.015  14.928  71.768  1.00  0.00     3.111 OA 
ENDROOT
BRANCH   2   5
HETATM    5  C   UNL     1      -8.626  13.792  69.505  1.00  0.00     0.997 A  
HETATM    6  C   UNL     1      -9.616  13.279  68.660  1.00  0.00    -0.053 A  
HETATM    7  C   UNL     1      -9.292  12.295  67.710  1.00  0.00    -0.194 A  
HETATM    8  C   UNL     1      -7.974  11.835  67.593  1.00  0.00    -0.143 A  
HETATM    9 CL   UNL     1     -10.606  11.672  66.778  1.00  0.00    -0.269 Cl 
HETATM   10  C   UNL     1      -6.986  12.407  68.430  1.00  0.00    -0.091 A  
HETATM   11  C   UNL     1      -7.302  13.383  69.377  1.00  0.00     0.288 A  
BRANCH   8  12
HETATM   12  C   UNL     1      -7.508  10.706  66.728  1.00  0.00    -0.120 C  
HETATM   13  O   UNL     1      -6.319  10.406  66.838  1.00  0.00    -0.066 OA 
HETATM   14  N   UNL     1      -8.407  10.104  65.860  1.00  0.00    -0.131 N  
HETATM   15  H   UNL     1      -9.351  10.490  65.835  1.00  0.00     0.000 HD 
BRANCH  14  16
HETATM   16  C   UNL     1      -8.142   9.002  65.001  1.00  0.00    -0.137 A  
HETATM   17  C   UNL     1      -7.704   9.155  63.689  1.00  0.00    -0.118 A  
HETATM   18  C   UNL     1      -7.414   8.046  62.899  1.00  0.00    -0.113 A  
HETATM   19  C   UNL     1      -7.580   6.751  63.397  1.00  0.00    -0.090 A  
HETATM   20  C   UNL     1      -8.096   6.533  64.692  1.00  0.00    -0.092 A  
HETATM   21 CL   UNL     1      -7.038   5.487  62.340  1.00  0.00    -0.039 Cl 
HETATM   22  C   UNL     1      -8.327   7.693  65.490  1.00  0.00    -0.139 A  
BRANCH  20  23
HETATM   23  C   UNL     1      -8.424   5.189  65.239  1.00  0.00    -0.144 A  
HETATM   24  C   UNL     1      -9.132   4.218  64.522  1.00  0.00    -0.150 A  
HETATM   25  C   UNL     1      -9.404   2.978  65.096  1.00  0.00    -0.133 A  
HETATM   26  C   UNL     1      -9.008   2.738  66.399  1.00  0.00    -0.153 A  
HETATM   27  C   UNL     1      -8.350   3.754  67.070  1.00  0.00    -0.099 A  
HETATM   28  N   UNL     1      -8.052   4.960  66.526  1.00  0.00    -0.107 NA 
ENDBRANCH  20  23
ENDBRANCH  14  16
ENDBRANCH   8  12
ENDBRANCH   2   5
TORSDOF 4
ENDMDL
MODEL      164
REMARK 921   NORMALIZED FREE ENERGY PREDICTED BY IDOCK:    5.10 KCAL/MOL
REMARK 922        TOTAL FREE ENERGY PREDICTED BY IDOCK:    5.67 KCAL/MOL
REMARK 923 INTER-LIGAND FREE ENERGY PREDICTED BY IDOCK:    4.90 KCAL/MOL
REMARK 924 INTRA-LIGAND FREE ENERGY PREDICTED BY IDOCK:    0.77 KCAL/MOL
REMARK 927      BINDING AFFINITY PREDICTED BY RF-SCORE:    0.00 PKD
ROOT
HETATM    1  C   UNL     1      -8.954  19.658  71.680  1.00  0.00     3.641 C  
HETATM    2  S   UNL     1      -8.836  20.071  69.958  1.00  0.00     1.445 S  
HETATM    3  O   UNL     1      -7.596  20.792  69.741  1.00  0.00     0.993 OA 
HETATM    4  O   UNL     1     -10.107  20.631  69.535  1.00  0.00     0.266 OA 
ENDROOT
BRANCH   2   5
HETATM    5  C   UNL     1      -8.676  18.486  69.170  1.00  0.00     0.085 A  
HETATM    6  C   UNL     1      -9.427  17.398  69.629  1.00  0.00     0.599 A  
HETATM    7  C   UNL     1      -9.260  16.130  69.047  1.00  0.00    -0.252 A  
HETATM    8  C   UNL     1      -8.355  15.951  67.993  1.00  0.00    -0.161 A  
HETATM    9 CL   UNL     1     -10.175  14.842  69.747  1.00  0.00    -0.121 Cl 
HETATM   10  C   UNL     1      -7.644  17.080  67.520  1.00  0.00    -0.184 A  
HETATM   11  C   UNL     1      -7.804  18.342  68.095  1.00  0.00    -0.299 A  
BRANCH   8  12
HETATM   12  C   UNL     1      -7.975  14.645  67.369  1.00  0.00    -0.201 C  
HETATM   13  O   UNL     1      -7.067  14.694  66.539  1.00  0.00     0.717 OA 
HETATM   14  N   UNL     1      -8.667  13.497  67.729  1.00  0.00    -0.176 N  
HETATM   15  H   UNL     1      -9.433  13.611  68.393  1.00  0.00     0.000 HD 
BRANCH  14  16
HETATM   16  C   UNL     1      -8.412  12.178  67.264  1.00  0.00    -0.178 A  
HETATM   17  C   UNL     1      -7.557  11.905  66.200  1.00  0.00     0.508 A  
HETATM   18  C   UNL     1      -7.303  10.594  65.808  1.00  0.00    -0.110 A  
HETATM   19  C   UNL     1      -7.920   9.521  66.456  1.00  0.00    -0.112 A  
HETATM   20  C   UNL     1      -8.856   9.740  67.489  1.00  0.00    -0.129 A  
HETATM   21 CL   UNL     1      -7.386   7.952  65.944  1.00  0.00    -0.075 Cl 
HETATM   22  C   UNL     1      -9.047  11.093  67.900  1.00  0.00    -0.150 A  
BRANCH  20  23
HETATM   23  C   UNL     1      -9.649   8.658  68.133  1.00  0.00    -0.147 A  
HETATM   24  C   UNL     1     -10.395   8.845  69.303  1.00  0.00    -0.221 A  
HETATM   25  C   UNL     1     -11.117   7.787  69.852  1.00  0.00    -0.142 A  
HETATM   26  C   UNL     1     -11.047   6.541  69.255  1.00  0.00    -0.393 A  
HETATM   27  C   UNL     1     -10.257   6.412  68.127  1.00  0.00    -0.167 A  
HETATM   28  N   UNL     1      -9.565   7.430  67.557  1.00  0.00    -0.136 NA 
ENDBRANCH  20  23
ENDBRANCH  14  16
ENDBRANCH   8  12
ENDBRANCH   2   5
TORSDOF 4
ENDMDL
MODEL      165
REMARK 921   NORMALIZED FREE ENERGY PREDICTED BY IDOCK:    6.04 KCAL/MOL
REMARK 922        TOTAL FREE ENERGY PREDICTED BY IDOCK:    6.82 KCAL/MOL
REMARK 923 INTER-LIGAND FREE ENERGY PREDICTED BY IDOCK:    6.96 KCAL/MOL
REMARK 924 INTRA-LIGAND FREE ENERGY PREDICTED BY IDOCK:   -0.14 KCAL/MOL
REMARK 927      BINDING AFFINITY PREDICTED BY RF-SCORE:    0.00 PKD
ROOT
HETATM    1  C   UNL     1      -7.344  16.055  70.427  1.00  0.00     1.257 C  
HETATM    2  S   UNL     1      -8.811  15.195  69.920  1.00  0.00     0.404 S  
HETATM    3  O   UNL     1      -9.140  15.603  68.567  1.00  0.00    -0.184 OA 
HETATM    4  O   UNL     1      -9.790  15.295  70.987  1.00  0.00     0.662 OA 
ENDROOT
BRANCH   2   5
HETATM    5  C   UNL     1      -8.285  13.498  69.852  1.00  0.00     1.940 A  
HETATM    6  C   UNL     1      -7.181  13.078  70.601  1.00  0.00     2.758 A  
HETATM    7  C   UNL     1      -6.726  11.752  70.504  1.00  0.00     1.047 A  
HETATM    8  C   UNL     1      -7.385  10.839  69.671  1.00  0.00    -0.107 A  
HETATM    9 CL   UNL     1      -5.304  11.365  71.407  1.00  0.00    -0.019 Cl 
HETATM   10  C   UNL     1      -8.527  11.282  68.962  1.00  0.00     0.002 A  
HETATM   11  C   UNL     1      -8.983  12.598  69.052  1.00  0.00     0.500 A  
BRANCH   8  12
HETATM   12  C   UNL     1      -6.940   9.444  69.366  1.00  0.00    -0.049 C  
HETATM   13  O   UNL     1      -5.917   9.346  68.689  1.00  0.00    -0.043 OA 
HETATM   14  N   UNL     1      -7.701   8.377  69.824  1.00  0.00    -0.091 N  
HETATM   15  H   UNL     1      -8.556   8.605  70.330  1.00  0.00     0.000 HD 
BRANCH  14  16
HETATM   16  C   UNL     1      -7.403   6.996  69.657  1.00  0.00    -0.086 A  
HETATM   17  C   UNL     1      -6.621   6.278  70.557  1.00  0.00    -0.048 A  
HETATM   18  C   UNL     1      -6.393   4.917  70.376  1.00  0.00    -0.026 A  
HETATM   19  C   UNL     1      -6.922   4.244  69.272  1.00  0.00    -0.050 A  
HETATM   20  C   UNL     1      -7.655   4.936  68.285  1.00  0.00    -0.078 A  
HETATM   21 CL   UNL     1      -6.669   2.528  69.271  1.00  0.00    -0.033 Cl 
HETATM   22  C   UNL     1      -7.916   6.316  68.534  1.00  0.00    -0.105 A  
BRANCH  20  23
HETATM   23  C   UNL     1      -8.134   4.316  67.019  1.00  0.00    -0.101 A  
HETATM   24  C   UNL     1      -8.834   5.022  66.034  1.00  0.00    -0.130 A  
HETATM   25  C   UNL     1      -9.252   4.378  64.871  1.00  0.00    -0.157 A  
HETATM   26  C   UNL     1      -9.009   3.024  64.726  1.00  0.00    -0.129 A  
HETATM   27  C   UNL     1      -8.351   2.375  65.755  1.00  0.00    -0.093 A  
HETATM   28  N   UNL     1      -7.912   2.982  66.885  1.00  0.00    -0.079 NA 
ENDBRANCH  20  23
ENDBRANCH  14  16
ENDBRANCH   8  12
ENDBRANCH   2   5
TORSDOF 4
ENDMDL
MODEL      166
REMARK 921   NORMALIZED FREE ENERGY PREDICTED BY IDOCK:    6.61 KCAL/MOL
REMARK 922        TOTAL FREE ENERGY PREDICTED BY IDOCK:    7.53 KCAL/MOL
REMARK 923 INTER-LIGAND FREE ENERGY PREDICTED BY IDOCK:    7.70 KCAL/MOL
REMARK 924 INTRA-LIGAND FREE ENERGY PREDICTED BY IDOCK:   -0.17 KCAL/MOL
REMARK 927      BINDING AFFINITY PREDICTED BY RF-SCORE:    0.00 PKD
ROOT
HETATM    1  C   UNL     1     -11.661   5.492  69.868  1.00  0.00     1.347 C  
HETATM    2  S   UNL     1     -11.419   6.240  71.458  1.00  0.00    -0.272 S  
HETATM    3  O   UNL     1     -10.100   5.877  71.943  1.00  0.00    -0.179 OA 
HETATM    4  O   UNL     1     -12.601   5.995  72.264  1.00  0.00    -0.150 OA 
ENDROOT
BRANCH   2   5
HETATM    5  C   UNL     1     -11.391   7.979  71.089  1.00  0.00    -0.266 A  
HETATM    6  C   UNL     1     -11.662   8.422  69.790  1.00  0.00     0.539 A  
HETATM    7  C   UNL     1     -11.582   9.791  69.481  1.00  0.00     0.070 A  
HETATM    8  C   UNL     1     -11.249  10.720  70.474  1.00  0.00    -0.188 A  
HETATM    9 CL   UNL     1     -11.855  10.217  67.829  1.00  0.00     0.788 Cl 
HETATM   10  C   UNL     1     -11.025  10.246  71.789  1.00  0.00     1.464 A  
HETATM   11  C   UNL     1     -11.101   8.888  72.103  1.00  0.00    -0.355 A  
BRANCH   8  12
HETATM   12  C   UNL     1     -10.997  12.181  70.266  1.00  0.00     1.086 C  
HETATM   13  O   UNL     1     -10.082  12.460  69.491  1.00  0.00     0.508 OA 
HETATM   14  N   UNL     1     -11.766  13.104  70.961  1.00  0.00    -0.147 N  
HETATM   15  H   UNL     1     -12.457  12.731  71.611  1.00  0.00     0.000 HD 
BRANCH  14  16
HETATM   16  C   UNL     1     -11.685  14.520  70.853  1.00  0.00    -0.250 A  
HETATM   17  C   UNL     1     -12.357  15.382  71.715  1.00  0.00    -0.453 A  
HETATM   18  C   UNL     1     -12.212  16.762  71.599  1.00  0.00     1.041 A  
HETATM   19  C   UNL     1     -11.410  17.315  70.597  1.00  0.00     1.477 A  
HETATM   20  C   UNL     1     -10.770  16.494  69.646  1.00  0.00    -0.323 A  
HETATM   21 CL   UNL     1     -11.221  19.037  70.681  1.00  0.00     3.778 Cl 
HETATM   22  C   UNL     1     -10.895  15.085  69.832  1.00  0.00    -0.266 A  
BRANCH  20  23
HETATM   23  C   UNL     1     -10.011  17.015  68.477  1.00  0.00    -0.293 A  
HETATM   24  C   UNL     1     -10.566  17.150  67.199  1.00  0.00    -0.244 A  
HETATM   25  C   UNL     1      -9.797  17.647  66.148  1.00  0.00    -0.253 A  
HETATM   26  C   UNL     1      -8.468  17.957  66.373  1.00  0.00    -0.263 A  
HETATM   27  C   UNL     1      -7.968  17.760  67.648  1.00  0.00    -0.214 A  
HETATM   28  N   UNL     1      -8.701  17.302  68.694  1.00  0.00    -0.278 NA 
ENDBRANCH  20  23
ENDBRANCH  14  16
ENDBRANCH   8  12
ENDBRANCH   2   5
TORSDOF 4
ENDMDL
MODEL      167
REMARK 921   NORMALIZED FREE ENERGY PREDICTED BY IDOCK:    7.29 KCAL/MOL
REMARK 922        TOTAL FREE ENERGY PREDICTED BY IDOCK:    8.37 KCAL/MOL
REMARK 923 INTER-LIGAND FREE ENERGY PREDICTED BY IDOCK:    8.75 KCAL/MOL
REMARK 924 INTRA-LIGAND FREE ENERGY PREDICTED BY IDOCK:   -0.39 KCAL/MOL
REMARK 927      BINDING AFFINITY PREDICTED BY RF-SCORE:    0.00 PKD
ROOT
HETATM    1  C   UNL     1      -8.929   6.453  69.791  1.00  0.00    -0.141 C  
HETATM    2  S   UNL     1      -8.500   7.274  68.278  1.00  0.00    -0.124 S  
HETATM    3  O   UNL     1      -9.683   7.346  67.441  1.00  0.00    -0.139 OA 
HETATM    4  O   UNL     1      -7.268   6.692  67.776  1.00  0.00    -0.085 OA 
ENDROOT
BRANCH   2   5
HETATM    5  C   UNL     1      -8.119   8.928  68.806  1.00  0.00    -0.114 A  
HETATM    6  C   UNL     1      -9.023   9.966  68.560  1.00  0.00    -0.122 A  
HETATM    7  C   UNL     1      -8.699  11.285  68.923  1.00  0.00    -0.046 A  
HETATM    8  C   UNL     1      -7.478  11.564  69.548  1.00  0.00     0.199 A  
HETATM    9 CL   UNL     1      -9.852  12.499  68.496  1.00  0.00    -0.191 Cl 
HETATM   10  C   UNL     1      -6.604  10.486  69.826  1.00  0.00    -0.112 A  
HETATM   11  C   UNL     1      -6.918   9.175  69.467  1.00  0.00    -0.051 A  
BRANCH   8  12
HETATM   12  C   UNL     1      -6.942  12.924  69.869  1.00  0.00     0.529 C  
HETATM   13  O   UNL     1      -5.747  12.972  70.160  1.00  0.00    -0.119 OA 
HETATM   14  N   UNL     1      -7.804  14.012  69.848  1.00  0.00     0.121 N  
HETATM   15  H   UNL     1      -8.783  13.819  69.639  1.00  0.00     0.000 HD 
BRANCH  14  16
HETATM   16  C   UNL     1      -7.454  15.369  70.088  1.00  0.00     0.275 A  
HETATM   17  C   UNL     1      -7.410  15.923  71.365  1.00  0.00     3.957 A  
HETATM   18  C   UNL     1      -7.019  17.245  71.556  1.00  0.00     5.395 A  
HETATM   19  C   UNL     1      -6.686  18.057  70.468  1.00  0.00     1.396 A  
HETATM   20  C   UNL     1      -6.789  17.574  69.147  1.00  0.00    -0.232 A  
HETATM   21 CL   UNL     1      -6.082  19.628  70.887  1.00  0.00    -0.193 Cl 
HETATM   22  C   UNL     1      -7.137  16.199  68.994  1.00  0.00    -0.187 A  
BRANCH  20  23
HETATM   23  C   UNL     1      -6.580  18.416  67.937  1.00  0.00    -0.208 A  
HETATM   24  C   UNL     1      -5.337  18.571  67.314  1.00  0.00    -0.139 A  
HETATM   25  C   UNL     1      -5.213  19.375  66.181  1.00  0.00    -0.159 A  
HETATM   26  C   UNL     1      -6.324  20.054  65.713  1.00  0.00    -0.237 A  
HETATM   27  C   UNL     1      -7.514  19.893  66.401  1.00  0.00    -0.284 A  
HETATM   28  N   UNL     1      -7.666  19.098  67.489  1.00  0.00    -0.236 NA 
ENDBRANCH  20  23
ENDBRANCH  14  16
ENDBRANCH   8  12
ENDBRANCH   2   5
TORSDOF 4
ENDMDL
MODEL      168
REMARK 921   NORMALIZED FREE ENERGY PREDICTED BY IDOCK:   10.69 KCAL/MOL
REMARK 922        TOTAL FREE ENERGY PREDICTED BY IDOCK:   12.56 KCAL/MOL
REMARK 923 INTER-LIGAND FREE ENERGY PREDICTED BY IDOCK:   12.75 KCAL/MOL
REMARK 924 INTRA-LIGAND FREE ENERGY PREDICTED BY IDOCK:   -0.19 KCAL/MOL
REMARK 927      BINDING AFFINITY PREDICTED BY RF-SCORE:    0.00 PKD
ROOT
HETATM    1  C   UNL     1      -8.849  14.470  63.349  1.00  0.00    13.373 C  
HETATM    2  S   UNL     1      -9.930  14.269  64.741  1.00  0.00     0.305 S  
HETATM    3  O   UNL     1     -11.186  13.714  64.273  1.00  0.00    -0.379 OA 
HETATM    4  O   UNL     1      -9.902  15.494  65.521  1.00  0.00    -0.337 OA 
ENDROOT
BRANCH   2   5
HETATM    5  C   UNL     1      -9.120  13.016  65.708  1.00  0.00     0.410 A  
HETATM    6  C   UNL     1      -8.200  12.153  65.103  1.00  0.00     1.815 A  
HETATM    7  C   UNL     1      -7.602  11.123  65.850  1.00  0.00     0.085 A  
HETATM    8  C   UNL     1      -7.910  10.966  67.207  1.00  0.00    -0.116 A  
HETATM    9 CL   UNL     1      -6.546  10.066  64.982  1.00  0.00    -0.118 Cl 
HETATM   10  C   UNL     1      -8.810  11.884  67.801  1.00  0.00    -0.166 A  
HETATM   11  C   UNL     1      -9.408  12.907  67.065  1.00  0.00    -0.235 A  
BRANCH   8  12
HETATM   12  C   UNL     1      -7.460   9.845  68.089  1.00  0.00    -0.080 C  
HETATM   13  O   UNL     1      -6.861   8.929  67.525  1.00  0.00    -0.069 OA 
HETATM   14  N   UNL     1      -7.760   9.889  69.443  1.00  0.00    -0.105 N  
HETATM   15  H   UNL     1      -8.308  10.684  69.768  1.00  0.00     0.000 HD 
BRANCH  14  16
HETATM   16  C   UNL     1      -7.376   8.932  70.423  1.00  0.00    -0.070 A  
HETATM   17  C   UNL     1      -6.056   8.753  70.829  1.00  0.00    -0.037 A  
HETATM   18  C   UNL     1      -5.734   7.835  71.823  1.00  0.00    -0.035 A  
HETATM   19  C   UNL     1      -6.724   7.051  72.421  1.00  0.00    -0.057 A  
HETATM   20  C   UNL     1      -8.066   7.131  71.996  1.00  0.00    -0.100 A  
HETATM   21 CL   UNL     1      -6.178   6.065  73.740  1.00  0.00    -0.063 Cl 
HETATM   22  C   UNL     1      -8.367   8.123  71.015  1.00  0.00    -0.129 A  
BRANCH  20  23
HETATM   23  C   UNL     1      -9.149   6.237  72.490  1.00  0.00    -0.141 A  
HETATM   24  C   UNL     1      -9.477   6.104  73.844  1.00  0.00    -0.154 A  
HETATM   25  C   UNL     1     -10.505   5.249  74.238  1.00  0.00    -0.304 A  
HETATM   26  C   UNL     1     -11.161   4.499  73.279  1.00  0.00    -0.388 A  
HETATM   27  C   UNL     1     -10.760   4.644  71.962  1.00  0.00    -0.002 A  
HETATM   28  N   UNL     1      -9.780   5.487  71.550  1.00  0.00    -0.153 NA 
ENDBRANCH  20  23
ENDBRANCH  14  16
ENDBRANCH   8  12
ENDBRANCH   2   5
TORSDOF 4
ENDMDL
MODEL      169
REMARK 921   NORMALIZED FREE ENERGY PREDICTED BY IDOCK:   16.05 KCAL/MOL
REMARK 922        TOTAL FREE ENERGY PREDICTED BY IDOCK:   19.18 KCAL/MOL
REMARK 923 INTER-LIGAND FREE ENERGY PREDICTED BY IDOCK:   18.75 KCAL/MOL
REMARK 924 INTRA-LIGAND FREE ENERGY PREDICTED BY IDOCK:    0.43 KCAL/MOL
REMARK 927      BINDING AFFINITY PREDICTED BY RF-SCORE:    0.00 PKD
ROOT
HETATM    1  C   UNL     1      -7.368  16.086  70.493  1.00  0.00     1.579 C  
HETATM    2  S   UNL     1      -9.015  15.691  69.966  1.00  0.00     0.655 S  
HETATM    3  O   UNL     1      -9.192  16.169  68.607  1.00  0.00    -0.201 OA 
HETATM    4  O   UNL     1      -9.937  16.080  71.018  1.00  0.00     1.066 OA 
ENDROOT
BRANCH   2   5
HETATM    5  C   UNL     1      -9.009  13.914  69.910  1.00  0.00     1.809 A  
HETATM    6  C   UNL     1      -8.105  13.193  70.698  1.00  0.00     5.423 A  
HETATM    7  C   UNL     1      -8.056  11.791  70.612  1.00  0.00     5.237 A  
HETATM    8  C   UNL     1      -8.923  11.107  69.750  1.00  0.00     0.942 A  
HETATM    9 CL   UNL     1      -6.846  11.010  71.566  1.00  0.00     2.513 Cl 
HETATM   10  C   UNL     1      -9.857  11.860  69.001  1.00  0.00     0.118 A  
HETATM   11  C   UNL     1      -9.910  13.253  69.080  1.00  0.00     0.229 A  
BRANCH   8  12
HETATM   12  C   UNL     1      -8.896   9.640  69.456  1.00  0.00    -0.190 C  
HETATM   13  O   UNL     1      -8.104   9.285  68.583  1.00  0.00    -0.102 OA 
HETATM   14  N   UNL     1      -9.760   8.797  70.141  1.00  0.00    -0.168 N  
HETATM   15  H   UNL     1     -10.401   9.235  70.802  1.00  0.00     0.000 HD 
BRANCH  14  16
HETATM   16  C   UNL     1      -9.838   7.383  70.011  1.00  0.00    -0.179 A  
HETATM   17  C   UNL     1     -10.881   6.632  70.546  1.00  0.00    -0.310 A  
HETATM   18  C   UNL     1     -10.939   5.255  70.356  1.00  0.00     0.043 A  
HETATM   19  C   UNL     1      -9.937   4.588  69.646  1.00  0.00    -0.181 A  
HETATM   20  C   UNL     1      -8.816   5.285  69.149  1.00  0.00    -0.113 A  
HETATM   21 CL   UNL     1     -10.233   2.901  69.374  1.00  0.00     0.964 Cl 
HETATM   22  C   UNL     1      -8.821   6.702  69.314  1.00  0.00    -0.133 A  
BRANCH  20  23
HETATM   23  C   UNL     1      -7.649   4.626  68.502  1.00  0.00    -0.069 A  
HETATM   24  C   UNL     1      -6.509   5.321  68.082  1.00  0.00    -0.048 A  
HETATM   25  C   UNL     1      -5.451   4.639  67.484  1.00  0.00    -0.013 A  
HETATM   26  C   UNL     1      -5.563   3.278  67.266  1.00  0.00    -0.021 A  
HETATM   27  C   UNL     1      -6.734   2.657  67.664  1.00  0.00    -0.040 A  
HETATM   28  N   UNL     1      -7.768   3.292  68.271  1.00  0.00    -0.059 NA 
ENDBRANCH  20  23
ENDBRANCH  14  16
ENDBRANCH   8  12
ENDBRANCH   2   5
TORSDOF 4
ENDMDL
MODEL      170
REMARK 921   NORMALIZED FREE ENERGY PREDICTED BY IDOCK:   17.96 KCAL/MOL
REMARK 922        TOTAL FREE ENERGY PREDICTED BY IDOCK:   21.54 KCAL/MOL
REMARK 923 INTER-LIGAND FREE ENERGY PREDICTED BY IDOCK:   21.94 KCAL/MOL
REMARK 924 INTRA-LIGAND FREE ENERGY PREDICTED BY IDOCK:   -0.40 KCAL/MOL
REMARK 927      BINDING AFFINITY PREDICTED BY RF-SCORE:    0.00 PKD
ROOT
HETATM    1  C   UNL     1     -13.614  18.081  66.417  1.00  0.00    13.950 C  
HETATM    2  S   UNL     1     -12.159  19.073  66.633  1.00  0.00     4.087 S  
HETATM    3  O   UNL     1     -12.382  19.984  67.740  1.00  0.00     2.349 OA 
HETATM    4  O   UNL     1     -11.748  19.568  65.332  1.00  0.00     0.848 OA 
ENDROOT
BRANCH   2   5
HETATM    5  C   UNL     1     -10.936  17.892  67.152  1.00  0.00     0.006 A  
HETATM    6  C   UNL     1      -9.869  17.572  66.304  1.00  0.00    -0.295 A  
HETATM    7  C   UNL     1      -8.933  16.596  66.685  1.00  0.00    -0.255 A  
HETATM    8  C   UNL     1      -9.052  15.951  67.923  1.00  0.00    -0.190 A  
HETATM    9 CL   UNL     1      -7.708  16.220  65.527  1.00  0.00     1.705 Cl 
HETATM   10  C   UNL     1     -10.114  16.330  68.779  1.00  0.00    -0.243 A  
HETATM   11  C   UNL     1     -11.048  17.297  68.405  1.00  0.00    -0.038 A  
BRANCH   8  12
HETATM   12  C   UNL     1      -8.216  14.807  68.404  1.00  0.00    -0.154 C  
HETATM   13  O   UNL     1      -7.174  15.113  68.983  1.00  0.00    -0.126 OA 
HETATM   14  N   UNL     1      -8.638  13.509  68.152  1.00  0.00    -0.168 N  
HETATM   15  H   UNL     1      -9.497  13.401  67.614  1.00  0.00     0.000 HD 
BRANCH  14  16
HETATM   16  C   UNL     1      -7.988  12.315  68.569  1.00  0.00    -0.107 A  
HETATM   17  C   UNL     1      -7.464  12.148  69.848  1.00  0.00     1.192 A  
HETATM   18  C   UNL     1      -6.875  10.944  70.226  1.00  0.00     0.107 A  
HETATM   19  C   UNL     1      -6.773   9.883  69.322  1.00  0.00    -0.055 A  
HETATM   20  C   UNL     1      -7.213  10.022  67.990  1.00  0.00    -0.082 A  
HETATM   21 CL   UNL     1      -6.148   8.411  69.992  1.00  0.00    -0.031 Cl 
HETATM   22  C   UNL     1      -7.862  11.249  67.656  1.00  0.00    -0.116 A  
BRANCH  20  23
HETATM   23  C   UNL     1      -7.017   8.987  66.938  1.00  0.00    -0.078 A  
HETATM   24  C   UNL     1      -5.807   8.313  66.740  1.00  0.00    -0.048 A  
HETATM   25  C   UNL     1      -5.693   7.352  65.737  1.00  0.00    -0.036 A  
HETATM   26  C   UNL     1      -6.775   7.111  64.910  1.00  0.00    -0.047 A  
HETATM   27  C   UNL     1      -7.929   7.843  65.129  1.00  0.00    -0.132 A  
HETATM   28  N   UNL     1      -8.074   8.764  66.114  1.00  0.00    -0.105 NA 
ENDBRANCH  20  23
ENDBRANCH  14  16
ENDBRANCH   8  12
ENDBRANCH   2   5
TORSDOF 4
ENDMDL
MODEL      171
REMARK 921   NORMALIZED FREE ENERGY PREDICTED BY IDOCK:   19.38 KCAL/MOL
REMARK 922        TOTAL FREE ENERGY PREDICTED BY IDOCK:   23.29 KCAL/MOL
REMARK 923 INTER-LIGAND FREE ENERGY PREDICTED BY IDOCK:   23.74 KCAL/MOL
REMARK 924 INTRA-LIGAND FREE ENERGY PREDICTED BY IDOCK:   -0.46 KCAL/MOL
REMARK 927      BINDING AFFINITY PREDICTED BY RF-SCORE:    0.00 PKD
ROOT
HETATM    1  C   UNL     1     -12.307   5.442  72.988  1.00  0.00     0.507 C  
HETATM    2  S   UNL     1     -10.722   5.520  72.195  1.00  0.00    -0.229 S  
HETATM    3  O   UNL     1     -10.805   4.814  70.930  1.00  0.00     0.081 OA 
HETATM    4  O   UNL     1      -9.704   5.179  73.173  1.00  0.00    -0.146 OA 
ENDROOT
BRANCH   2   5
HETATM    5  C   UNL     1     -10.534   7.249  71.829  1.00  0.00    -0.197 A  
HETATM    6  C   UNL     1     -10.832   7.729  70.548  1.00  0.00    -0.245 A  
HETATM    7  C   UNL     1     -10.628   9.084  70.238  1.00  0.00    -0.217 A  
HETATM    8  C   UNL     1     -10.143   9.966  71.213  1.00  0.00     0.502 A  
HETATM    9 CL   UNL     1     -10.948   9.550  68.605  1.00  0.00    -0.166 Cl 
HETATM   10  C   UNL     1      -9.896   9.460  72.512  1.00  0.00     1.722 A  
HETATM   11  C   UNL     1     -10.094   8.115  72.826  1.00  0.00    -0.367 A  
BRANCH   8  12
HETATM   12  C   UNL     1      -9.754  11.394  70.994  1.00  0.00     6.348 C  
HETATM   13  O   UNL     1     -10.646  12.224  71.172  1.00  0.00     4.263 OA 
HETATM   14  N   UNL     1      -8.459  11.687  70.588  1.00  0.00     4.309 N  
HETATM   15  H   UNL     1      -7.837  10.895  70.428  1.00  0.00     0.000 HD 
BRANCH  14  16
HETATM   16  C   UNL     1      -7.916  12.983  70.374  1.00  0.00     4.053 A  
HETATM   17  C   UNL     1      -7.058  13.602  71.279  1.00  0.00     2.997 A  
HETATM   18  C   UNL     1      -6.515  14.854  71.006  1.00  0.00     0.367 A  
HETATM   19  C   UNL     1      -6.838  15.532  69.828  1.00  0.00    -0.146 A  
HETATM   20  C   UNL     1      -7.763  14.990  68.911  1.00  0.00    -0.152 A  
HETATM   21 CL   UNL     1      -5.967  17.010  69.573  1.00  0.00    -0.204 Cl 
HETATM   22  C   UNL     1      -8.254  13.682  69.198  1.00  0.00     0.376 A  
BRANCH  20  23
HETATM   23  C   UNL     1      -8.256  15.711  67.706  1.00  0.00    -0.145 A  
HETATM   24  C   UNL     1      -9.589  15.675  67.280  1.00  0.00    -0.220 A  
HETATM   25  C   UNL     1      -9.983  16.376  66.142  1.00  0.00    -0.360 A  
HETATM   26  C   UNL     1      -9.031  17.065  65.412  1.00  0.00     1.118 A  
HETATM   27  C   UNL     1      -7.722  17.025  65.861  1.00  0.00     0.089 A  
HETATM   28  N   UNL     1      -7.318  16.372  66.979  1.00  0.00    -0.197 NA 
ENDBRANCH  20  23
ENDBRANCH  14  16
ENDBRANCH   8  12
ENDBRANCH   2   5
TORSDOF 4
ENDMDL
MODEL      172
REMARK 921   NORMALIZED FREE ENERGY PREDICTED BY IDOCK:   65.90 KCAL/MOL
REMARK 922        TOTAL FREE ENERGY PREDICTED BY IDOCK:   80.69 KCAL/MOL
REMARK 923 INTER-LIGAND FREE ENERGY PREDICTED BY IDOCK:   80.28 KCAL/MOL
REMARK 924 INTRA-LIGAND FREE ENERGY PREDICTED BY IDOCK:    0.41 KCAL/MOL
REMARK 927      BINDING AFFINITY PREDICTED BY RF-SCORE:    0.00 PKD
ROOT
HETATM    1  C   UNL     1     -12.064  21.114  68.028  1.00  0.00     6.439 C  
HETATM    2  S   UNL     1     -12.783  20.636  66.478  1.00  0.00     7.229 S  
HETATM    3  O   UNL     1     -12.045  21.282  65.409  1.00  0.00     4.647 OA 
HETATM    4  O   UNL     1     -14.224  20.779  66.580  1.00  0.00     4.408 OA 
ENDROOT
BRANCH   2   5
HETATM    5  C   UNL     1     -12.437  18.894  66.389  1.00  0.00     6.175 A  
HETATM    6  C   UNL     1     -11.441  18.337  67.198  1.00  0.00     1.068 A  
HETATM    7  C   UNL     1     -11.123  16.973  67.088  1.00  0.00     0.167 A  
HETATM    8  C   UNL     1     -11.814  16.159  66.180  1.00  0.00     1.179 A  
HETATM    9 CL   UNL     1      -9.821  16.410  68.073  1.00  0.00    -0.235 Cl 
HETATM   10  C   UNL     1     -12.848  16.742  65.409  1.00  0.00     5.733 A  
HETATM   11  C   UNL     1     -13.167  18.096  65.512  1.00  0.00    14.220 A  
BRANCH   8  12
HETATM   12  C   UNL     1     -11.499  14.732  65.859  1.00  0.00    -0.319 C  
HETATM   13  O   UNL     1     -10.401  14.328  66.243  1.00  0.00    -0.280 OA 
HETATM   14  N   UNL     1     -12.422  13.981  65.145  1.00  0.00    -0.526 N  
HETATM   15  H   UNL     1     -13.271  14.459  64.845  1.00  0.00     0.000 HD 
BRANCH  14  16
HETATM   16  C   UNL     1     -12.299  12.609  64.792  1.00  0.00    -0.489 A  
HETATM   17  C   UNL     1     -13.129  11.992  63.859  1.00  0.00    -0.165 A  
HETATM   18  C   UNL     1     -12.943  10.658  63.511  1.00  0.00     4.524 A  
HETATM   19  C   UNL     1     -11.935   9.897  64.109  1.00  0.00     8.007 A  
HETATM   20  C   UNL     1     -11.115  10.445  65.117  1.00  0.00     0.799 A  
HETATM   21 CL   UNL     1     -11.744   8.299  63.460  1.00  0.00    18.959 Cl 
HETATM   22  C   UNL     1     -11.298  11.830  65.405  1.00  0.00    -0.284 A  
BRANCH  20  23
HETATM   23  C   UNL     1     -10.113   9.661  65.890  1.00  0.00    -0.234 A  
HETATM   24  C   UNL     1      -9.990   9.732  67.282  1.00  0.00    -0.242 A  
HETATM   25  C   UNL     1      -9.029   8.968  67.942  1.00  0.00    -0.135 A  
HETATM   26  C   UNL     1      -8.169   8.178  67.200  1.00  0.00    -0.120 A  
HETATM   27  C   UNL     1      -8.315   8.186  65.824  1.00  0.00    -0.136 A  
HETATM   28  N   UNL     1      -9.257   8.900  65.159  1.00  0.00    -0.111 NA 
ENDBRANCH  20  23
ENDBRANCH  14  16
ENDBRANCH   8  12
ENDBRANCH   2   5
TORSDOF 4
ENDMDL
