MODEL        1
REMARK 921   NORMALIZED FREE ENERGY PREDICTED BY IDOCK:   -7.15 KCAL/MOL
REMARK 922        TOTAL FREE ENERGY PREDICTED BY IDOCK:  -11.01 KCAL/MOL
REMARK 923 INTER-LIGAND FREE ENERGY PREDICTED BY IDOCK:   -9.66 KCAL/MOL
REMARK 924 INTRA-LIGAND FREE ENERGY PREDICTED BY IDOCK:   -1.36 KCAL/MOL
REMARK 927      BINDING AFFINITY PREDICTED BY RF-SCORE:    0.00 PKD
ROOT
HETATM    1  C   UNL     1      -8.706   9.118  65.757  1.00  0.00    -0.192 C  
HETATM    2  C   UNL     1      -9.333   7.857  66.345  1.00  0.00    -0.247 C  
HETATM    3  C   UNL     1      -9.265   7.787  67.895  1.00  0.00    -0.141 C  
HETATM    4  C   UNL     1     -10.607   7.272  68.487  1.00  0.00    -0.207 C  
HETATM    5  C   UNL     1     -10.709   7.334  70.030  1.00  0.00    -0.245 C  
HETATM    6  C   UNL     1      -6.909  10.581  65.566  1.00  0.00    -0.100 C  
HETATM    7  C   UNL     1     -10.133   8.610  70.658  1.00  0.00    -0.237 C  
HETATM    8  C   UNL     1      -7.485   9.566  66.539  1.00  0.00    -0.093 C  
HETATM    9  C   UNL     1      -8.775   8.952  70.069  1.00  0.00    -0.151 C  
HETATM   10  C   UNL     1      -5.470  10.980  65.826  1.00  0.00    -0.119 C  
HETATM   11  O   UNL     1      -7.040   9.907  64.304  1.00  0.00    -0.122 OA 
HETATM   12  C   UNL     1      -8.962   9.145  68.559  1.00  0.00    -0.133 C  
HETATM   13  C   UNL     1      -8.103   9.037  64.382  1.00  0.00    -0.146 C  
HETATM   14  C   UNL     1      -7.850  10.036  67.939  1.00  0.00    -0.090 C  
HETATM   15  O   UNL     1      -8.505   8.353  63.463  1.00  0.00    -0.108 OA 
ENDROOT
BRANCH   5  16
HETATM   16  N   UNL     1     -12.092   7.193  70.450  1.00  0.00    -0.580 N  
HETATM   17  H   UNL     1     -12.831   7.507  69.820  1.00  0.00     0.000 HD 
HETATM   18  C   UNL     1     -12.438   6.659  71.652  1.00  0.00    -0.303 C  
HETATM   19  O   UNL     1     -11.662   6.160  72.452  1.00  0.00    -0.304 OA 
BRANCH  18  20
HETATM   20  O   UNL     1     -13.786   6.711  71.784  1.00  0.00    -0.180 OA 
BRANCH  20  21
HETATM   21  C   UNL     1     -14.373   7.944  71.348  1.00  0.00    -0.381 C  
HETATM   22  C   UNL     1     -14.089   8.999  72.405  1.00  0.00    -0.478 C  
ENDBRANCH  20  21
ENDBRANCH  18  20
ENDBRANCH   5  16
BRANCH  14  23
HETATM   23  C   UNL     1      -8.462  11.414  67.917  1.00  0.00    -0.139 C  
HETATM   24  C   UNL     1      -9.756  11.741  67.813  1.00  0.00    -0.185 C  
BRANCH  24  25
HETATM   25  C   UNL     1     -10.117  13.103  67.391  1.00  0.00    -0.229 A  
HETATM   26  C   UNL     1      -9.529  15.151  66.321  1.00  0.00    -0.341 A  
HETATM   27  C   UNL     1      -9.382  13.767  66.426  1.00  0.00    -0.215 A  
HETATM   28  C   UNL     1     -10.370  15.858  67.197  1.00  0.00    -0.300 A  
HETATM   29  N   UNL     1     -11.052  13.731  68.149  1.00  0.00    -0.250 NA 
HETATM   30  C   UNL     1     -11.148  15.072  68.043  1.00  0.00    -0.300 A  
BRANCH  28  31
HETATM   31  C   UNL     1     -10.324  17.324  67.335  1.00  0.00    -0.338 A  
HETATM   32  C   UNL     1     -10.499  18.145  66.202  1.00  0.00    -0.377 A  
HETATM   33  C   UNL     1     -10.313  19.520  66.277  1.00  0.00    -0.506 A  
HETATM   34  C   UNL     1      -9.946  20.128  67.466  1.00  0.00    -0.571 A  
HETATM   35  F   UNL     1     -10.463  20.261  65.171  1.00  0.00    -0.448 F  
HETATM   36  C   UNL     1      -9.787  19.348  68.607  1.00  0.00    -0.522 A  
HETATM   37  C   UNL     1      -9.984  17.964  68.543  1.00  0.00    -0.379 A  
ENDBRANCH  28  31
ENDBRANCH  24  25
ENDBRANCH  14  23
TORSDOF 6
ENDMDL
MODEL        2
REMARK 921   NORMALIZED FREE ENERGY PREDICTED BY IDOCK:   -6.67 KCAL/MOL
REMARK 922        TOTAL FREE ENERGY PREDICTED BY IDOCK:  -10.37 KCAL/MOL
REMARK 923 INTER-LIGAND FREE ENERGY PREDICTED BY IDOCK:   -9.15 KCAL/MOL
REMARK 924 INTRA-LIGAND FREE ENERGY PREDICTED BY IDOCK:   -1.22 KCAL/MOL
REMARK 927      BINDING AFFINITY PREDICTED BY RF-SCORE:    0.00 PKD
ROOT
HETATM    1  C   UNL     1      -8.089   5.042  70.890  1.00  0.00    -0.096 C  
HETATM    2  C   UNL     1      -7.484   5.034  69.488  1.00  0.00    -0.057 C  
HETATM    3  C   UNL     1      -8.526   5.243  68.355  1.00  0.00    -0.096 C  
HETATM    4  C   UNL     1      -7.980   6.217  67.273  1.00  0.00    -0.109 C  
HETATM    5  C   UNL     1      -9.005   6.634  66.191  1.00  0.00    -0.139 C  
HETATM    6  C   UNL     1      -9.648   4.253  72.422  1.00  0.00    -0.141 C  
HETATM    7  C   UNL     1     -10.413   6.929  66.724  1.00  0.00    -0.300 C  
HETATM    8  C   UNL     1      -9.465   4.404  70.921  1.00  0.00    -0.241 C  
HETATM    9  C   UNL     1     -10.873   5.855  67.694  1.00  0.00    -0.331 C  
HETATM   10  C   UNL     1     -10.753   3.305  72.845  1.00  0.00    -0.173 C  
HETATM   11  O   UNL     1      -8.363   3.771  72.844  1.00  0.00    -0.091 OA 
HETATM   12  C   UNL     1      -9.868   5.816  68.852  1.00  0.00    -0.191 C  
HETATM   13  C   UNL     1      -7.413   4.229  71.959  1.00  0.00    -0.070 C  
HETATM   14  C   UNL     1     -10.487   5.222  70.148  1.00  0.00    -0.338 C  
HETATM   15  O   UNL     1      -6.219   4.036  72.066  1.00  0.00    -0.013 OA 
ENDROOT
BRANCH   5  16
HETATM   16  N   UNL     1      -8.529   7.800  65.468  1.00  0.00    -0.178 N  
HETATM   17  H   UNL     1      -8.536   8.706  65.938  1.00  0.00     0.000 HD 
HETATM   18  C   UNL     1      -8.074   7.728  64.188  1.00  0.00    -0.068 C  
HETATM   19  O   UNL     1      -7.923   6.699  63.549  1.00  0.00    -0.117 OA 
BRANCH  18  20
HETATM   20  O   UNL     1      -7.755   8.976  63.765  1.00  0.00    -0.114 OA 
BRANCH  20  21
HETATM   21  C   UNL     1      -8.781   9.953  63.982  1.00  0.00    -0.212 C  
HETATM   22  C   UNL     1      -9.457  10.229  62.650  1.00  0.00    -0.309 C  
ENDBRANCH  20  21
ENDBRANCH  18  20
ENDBRANCH   5  16
BRANCH  14  23
HETATM   23  C   UNL     1     -10.926   6.436  70.927  1.00  0.00    -0.335 C  
HETATM   24  C   UNL     1     -12.128   7.026  70.930  1.00  0.00    -0.403 C  
BRANCH  24  25
HETATM   25  C   UNL     1     -12.243   8.411  71.411  1.00  0.00    -0.302 A  
HETATM   26  C   UNL     1     -13.595  10.216  72.186  1.00  0.00    -0.295 A  
HETATM   27  C   UNL     1     -13.378   8.842  72.075  1.00  0.00    -0.455 A  
HETATM   28  C   UNL     1     -12.707  11.138  71.608  1.00  0.00    -0.466 A  
HETATM   29  N   UNL     1     -11.289   9.272  70.976  1.00  0.00    -0.293 NA 
HETATM   30  C   UNL     1     -11.543  10.592  71.073  1.00  0.00    -0.129 A  
BRANCH  28  31
HETATM   31  C   UNL     1     -13.044  12.561  71.426  1.00  0.00    -0.303 A  
HETATM   32  C   UNL     1     -12.309  13.349  70.517  1.00  0.00    -0.401 A  
HETATM   33  C   UNL     1     -12.505  14.722  70.435  1.00  0.00    -0.349 A  
HETATM   34  C   UNL     1     -13.426  15.362  71.248  1.00  0.00    -0.598 A  
HETATM   35  F   UNL     1     -11.766  15.438  69.577  1.00  0.00    -0.270 F  
HETATM   36  C   UNL     1     -14.183  14.609  72.140  1.00  0.00    -0.608 A  
HETATM   37  C   UNL     1     -14.000  13.224  72.220  1.00  0.00    -0.559 A  
ENDBRANCH  28  31
ENDBRANCH  24  25
ENDBRANCH  14  23
TORSDOF 6
ENDMDL
MODEL        3
REMARK 921   NORMALIZED FREE ENERGY PREDICTED BY IDOCK:   -6.58 KCAL/MOL
REMARK 922        TOTAL FREE ENERGY PREDICTED BY IDOCK:  -10.25 KCAL/MOL
REMARK 923 INTER-LIGAND FREE ENERGY PREDICTED BY IDOCK:   -9.29 KCAL/MOL
REMARK 924 INTRA-LIGAND FREE ENERGY PREDICTED BY IDOCK:   -0.96 KCAL/MOL
REMARK 927      BINDING AFFINITY PREDICTED BY RF-SCORE:    0.00 PKD
ROOT
HETATM    1  C   UNL     1     -10.292   9.861  69.570  1.00  0.00    -0.248 C  
HETATM    2  C   UNL     1      -9.952   9.141  68.268  1.00  0.00    -0.199 C  
HETATM    3  C   UNL     1     -10.524   9.833  67.000  1.00  0.00    -0.295 C  
HETATM    4  C   UNL     1      -9.474   9.847  65.854  1.00  0.00    -0.272 C  
HETATM    5  C   UNL     1      -9.877  10.671  64.607  1.00  0.00    -0.321 C  
HETATM    6  C   UNL     1     -11.854  10.803  71.009  1.00  0.00    -0.247 C  
HETATM    7  C   UNL     1     -10.563  12.007  64.918  1.00  0.00    -0.334 C  
HETATM    8  C   UNL     1     -11.677  10.479  69.535  1.00  0.00    -0.313 C  
HETATM    9  C   UNL     1     -11.637  11.844  65.981  1.00  0.00    -0.296 C  
HETATM   10  C   UNL     1     -13.279  11.096  71.438  1.00  0.00    -0.301 C  
HETATM   11  O   UNL     1     -11.353   9.619  71.649  1.00  0.00    -0.374 OA 
HETATM   12  C   UNL     1     -10.960  11.292  67.241  1.00  0.00    -0.342 C  
HETATM   13  C   UNL     1     -10.417   9.040  70.824  1.00  0.00    -0.243 C  
HETATM   14  C   UNL     1     -11.765  11.617  68.530  1.00  0.00    -0.378 C  
HETATM   15  O   UNL     1      -9.771   8.050  71.099  1.00  0.00    -0.158 OA 
ENDROOT
BRANCH   5  16
HETATM   16  N   UNL     1      -8.715  10.929  63.776  1.00  0.00    -0.356 N  
HETATM   17  H   UNL     1      -8.337  11.876  63.739  1.00  0.00     0.000 HD 
HETATM   18  C   UNL     1      -8.111   9.953  63.045  1.00  0.00    -0.147 C  
HETATM   19  O   UNL     1      -8.401   8.768  63.074  1.00  0.00    -0.186 OA 
BRANCH  18  20
HETATM   20  O   UNL     1      -7.097  10.503  62.333  1.00  0.00    -0.142 OA 
BRANCH  20  21
HETATM   21  C   UNL     1      -5.796  10.024  62.695  1.00  0.00    -0.108 C  
HETATM   22  C   UNL     1      -5.334  10.796  63.919  1.00  0.00    -0.081 C  
ENDBRANCH  20  21
ENDBRANCH  18  20
ENDBRANCH   5  16
BRANCH  14  23
HETATM   23  C   UNL     1     -11.113  12.870  69.057  1.00  0.00    -0.284 C  
HETATM   24  C   UNL     1     -11.617  14.110  69.096  1.00  0.00    -0.349 C  
BRANCH  24  25
HETATM   25  C   UNL     1     -10.700  15.250  69.248  1.00  0.00    -0.252 A  
HETATM   26  C   UNL     1     -10.259  17.582  69.022  1.00  0.00    -0.314 A  
HETATM   27  C   UNL     1     -11.173  16.550  69.237  1.00  0.00    -0.213 A  
HETATM   28  C   UNL     1      -8.902  17.309  68.784  1.00  0.00    -0.233 A  
HETATM   29  N   UNL     1      -9.376  14.960  69.176  1.00  0.00    -0.178 NA 
HETATM   30  C   UNL     1      -8.524  15.978  68.939  1.00  0.00    -0.232 A  
BRANCH  28  31
HETATM   31  C   UNL     1      -7.968  18.316  68.249  1.00  0.00    -0.312 A  
HETATM   32  C   UNL     1      -7.970  18.619  66.873  1.00  0.00    -0.250 A  
HETATM   33  C   UNL     1      -7.004  19.451  66.320  1.00  0.00    -0.229 A  
HETATM   34  C   UNL     1      -6.006  20.006  67.103  1.00  0.00    -0.197 A  
HETATM   35  F   UNL     1      -7.026  19.692  65.002  1.00  0.00    -0.295 F  
HETATM   36  C   UNL     1      -5.989  19.744  68.469  1.00  0.00    -0.267 A  
HETATM   37  C   UNL     1      -6.966  18.917  69.036  1.00  0.00    -0.342 A  
ENDBRANCH  28  31
ENDBRANCH  24  25
ENDBRANCH  14  23
TORSDOF 6
ENDMDL
MODEL        4
REMARK 921   NORMALIZED FREE ENERGY PREDICTED BY IDOCK:   -6.57 KCAL/MOL
REMARK 922        TOTAL FREE ENERGY PREDICTED BY IDOCK:  -10.22 KCAL/MOL
REMARK 923 INTER-LIGAND FREE ENERGY PREDICTED BY IDOCK:   -9.10 KCAL/MOL
REMARK 924 INTRA-LIGAND FREE ENERGY PREDICTED BY IDOCK:   -1.12 KCAL/MOL
REMARK 927      BINDING AFFINITY PREDICTED BY RF-SCORE:    0.00 PKD
ROOT
HETATM    1  C   UNL     1      -9.958   8.822  70.790  1.00  0.00    -0.263 C  
HETATM    2  C   UNL     1      -9.181   7.951  69.805  1.00  0.00    -0.150 C  
HETATM    3  C   UNL     1      -9.607   8.147  68.325  1.00  0.00    -0.154 C  
HETATM    4  C   UNL     1      -8.364   8.197  67.392  1.00  0.00    -0.122 C  
HETATM    5  C   UNL     1      -8.665   8.568  65.920  1.00  0.00    -0.174 C  
HETATM    6  C   UNL     1     -11.974   9.585  71.658  1.00  0.00    -0.401 C  
HETATM    7  C   UNL     1      -9.696   9.690  65.741  1.00  0.00    -0.350 C  
HETATM    8  C   UNL     1     -11.407   8.998  70.376  1.00  0.00    -0.242 C  
HETATM    9  C   UNL     1     -10.907   9.475  66.631  1.00  0.00     0.018 C  
HETATM   10  C   UNL     1     -13.486   9.552  71.768  1.00  0.00    -0.480 C  
HETATM   11  O   UNL     1     -11.363   8.768  72.669  1.00  0.00    -0.206 OA 
HETATM   12  C   UNL     1     -10.414   9.438  68.083  1.00  0.00    -0.267 C  
HETATM   13  C   UNL     1     -10.160   8.306  72.188  1.00  0.00    -0.274 C  
HETATM   14  C   UNL     1     -11.536   9.805  69.094  1.00  0.00     0.049 C  
HETATM   15  O   UNL     1      -9.377   7.628  72.822  1.00  0.00    -0.152 OA 
ENDROOT
BRANCH   5  16
HETATM   16  N   UNL     1      -7.442   8.948  65.236  1.00  0.00    -0.088 N  
HETATM   17  H   UNL     1      -6.941   9.779  65.551  1.00  0.00     0.000 HD 
HETATM   18  C   UNL     1      -6.940   8.236  64.191  1.00  0.00    -0.077 C  
HETATM   19  O   UNL     1      -7.384   7.176  63.781  1.00  0.00    -0.074 OA 
BRANCH  18  20
HETATM   20  O   UNL     1      -5.830   8.861  63.727  1.00  0.00    -0.070 OA 
BRANCH  20  21
HETATM   21  C   UNL     1      -5.901  10.292  63.762  1.00  0.00    -0.146 C  
HETATM   22  C   UNL     1      -5.133  10.830  62.566  1.00  0.00    -0.164 C  
ENDBRANCH  20  21
ENDBRANCH  18  20
ENDBRANCH   5  16
BRANCH  14  23
HETATM   23  C   UNL     1     -11.326  11.278  69.345  1.00  0.00    -0.360 C  
HETATM   24  C   UNL     1     -11.855  12.312  68.680  1.00  0.00    -0.354 C  
BRANCH  24  25
HETATM   25  C   UNL     1     -11.220  13.635  68.793  1.00  0.00    -0.279 A  
HETATM   26  C   UNL     1     -11.315  15.911  69.497  1.00  0.00    -0.335 A  
HETATM   27  C   UNL     1     -11.703  14.582  69.677  1.00  0.00    -0.356 A  
HETATM   28  C   UNL     1     -10.487  16.284  68.426  1.00  0.00    -0.282 A  
HETATM   29  N   UNL     1     -10.299  13.934  67.843  1.00  0.00    -0.236 NA 
HETATM   30  C   UNL     1      -9.967  15.230  67.678  1.00  0.00    -0.222 A  
BRANCH  28  31
HETATM   31  C   UNL     1     -10.303  17.686  68.011  1.00  0.00    -0.375 A  
HETATM   32  C   UNL     1     -10.777  18.117  66.756  1.00  0.00    -0.216 A  
HETATM   33  C   UNL     1     -10.487  19.389  66.278  1.00  0.00    -0.493 A  
HETATM   34  C   UNL     1      -9.720  20.273  67.018  1.00  0.00    -0.598 A  
HETATM   35  F   UNL     1     -10.933  19.750  65.068  1.00  0.00    -0.476 F  
HETATM   36  C   UNL     1      -9.256  19.884  68.271  1.00  0.00    -0.345 A  
HETATM   37  C   UNL     1      -9.553  18.609  68.765  1.00  0.00    -0.383 A  
ENDBRANCH  28  31
ENDBRANCH  24  25
ENDBRANCH  14  23
TORSDOF 6
ENDMDL
MODEL        5
REMARK 921   NORMALIZED FREE ENERGY PREDICTED BY IDOCK:   -6.45 KCAL/MOL
REMARK 922        TOTAL FREE ENERGY PREDICTED BY IDOCK:  -10.07 KCAL/MOL
REMARK 923 INTER-LIGAND FREE ENERGY PREDICTED BY IDOCK:   -8.86 KCAL/MOL
REMARK 924 INTRA-LIGAND FREE ENERGY PREDICTED BY IDOCK:   -1.20 KCAL/MOL
REMARK 927      BINDING AFFINITY PREDICTED BY RF-SCORE:    0.00 PKD
ROOT
HETATM    1  C   UNL     1     -12.041   9.299  71.120  1.00  0.00    -0.389 C  
HETATM    2  C   UNL     1     -12.448  10.644  70.523  1.00  0.00    -0.445 C  
HETATM    3  C   UNL     1     -11.299  11.368  69.769  1.00  0.00    -0.332 C  
HETATM    4  C   UNL     1     -11.814  11.990  68.440  1.00  0.00    -0.360 C  
HETATM    5  C   UNL     1     -10.714  12.580  67.525  1.00  0.00    -0.225 C  
HETATM    6  C   UNL     1     -10.613   8.021  72.435  1.00  0.00    -0.307 C  
HETATM    7  C   UNL     1      -9.438  11.734  67.430  1.00  0.00    -0.174 C  
HETATM    8  C   UNL     1     -10.612   9.310  71.630  1.00  0.00    -0.360 C  
HETATM    9  C   UNL     1      -8.980  11.269  68.802  1.00  0.00    -0.116 C  
HETATM   10  C   UNL     1      -9.464   7.871  73.413  1.00  0.00    -0.341 C  
HETATM   11  O   UNL     1     -11.872   8.087  73.123  1.00  0.00    -0.233 OA 
HETATM   12  C   UNL     1     -10.118  10.443  69.414  1.00  0.00    -0.251 C  
HETATM   13  C   UNL     1     -12.746   8.833  72.365  1.00  0.00    -0.368 C  
HETATM   14  C   UNL     1      -9.607   9.453  70.498  1.00  0.00    -0.330 C  
HETATM   15  O   UNL     1     -13.909   9.033  72.647  1.00  0.00    -0.467 OA 
ENDROOT
BRANCH   5  16
HETATM   16  N   UNL     1     -11.233  12.789  66.185  1.00  0.00    -0.287 N  
HETATM   17  H   UNL     1     -11.997  12.198  65.856  1.00  0.00     0.000 HD 
HETATM   18  C   UNL     1     -10.737  13.744  65.352  1.00  0.00    -0.317 C  
HETATM   19  O   UNL     1      -9.896  14.575  65.653  1.00  0.00    -0.327 OA 
BRANCH  18  20
HETATM   20  O   UNL     1     -11.378  13.662  64.160  1.00  0.00    -0.374 OA 
BRANCH  20  21
HETATM   21  C   UNL     1     -11.530  12.326  63.663  1.00  0.00    -0.490 C  
HETATM   22  C   UNL     1     -10.153  11.805  63.287  1.00  0.00    -0.448 C  
ENDBRANCH  20  21
ENDBRANCH  18  20
ENDBRANCH   5  16
BRANCH  14  23
HETATM   23  C   UNL     1      -9.433   8.156  69.748  1.00  0.00    -0.159 C  
HETATM   24  C   UNL     1      -8.292   7.531  69.433  1.00  0.00    -0.132 C  
BRANCH  24  25
HETATM   25  C   UNL     1      -8.300   6.525  68.360  1.00  0.00    -0.117 A  
HETATM   26  C   UNL     1      -7.664   5.854  66.162  1.00  0.00    -0.102 A  
HETATM   27  C   UNL     1      -7.395   6.591  67.316  1.00  0.00    -0.087 A  
HETATM   28  C   UNL     1      -8.841   5.097  66.045  1.00  0.00    -0.137 A  
HETATM   29  N   UNL     1      -9.366   5.686  68.341  1.00  0.00    -0.117 NA 
HETATM   30  C   UNL     1      -9.614   5.010  67.201  1.00  0.00    -0.152 A  
BRANCH  28  31
HETATM   31  C   UNL     1      -9.321   4.562  64.758  1.00  0.00    -0.140 A  
HETATM   32  C   UNL     1     -10.304   3.553  64.737  1.00  0.00     0.006 A  
HETATM   33  C   UNL     1     -10.665   2.928  63.549  1.00  0.00    -0.228 A  
HETATM   34  C   UNL     1     -10.067   3.275  62.349  1.00  0.00    -0.112 A  
HETATM   35  F   UNL     1     -11.584   1.955  63.576  1.00  0.00    -0.221 F  
HETATM   36  C   UNL     1      -9.108   4.283  62.334  1.00  0.00    -0.118 A  
HETATM   37  C   UNL     1      -8.748   4.925  63.524  1.00  0.00    -0.107 A  
ENDBRANCH  28  31
ENDBRANCH  24  25
ENDBRANCH  14  23
TORSDOF 6
ENDMDL
MODEL        6
REMARK 921   NORMALIZED FREE ENERGY PREDICTED BY IDOCK:   -6.31 KCAL/MOL
REMARK 922        TOTAL FREE ENERGY PREDICTED BY IDOCK:   -9.87 KCAL/MOL
REMARK 923 INTER-LIGAND FREE ENERGY PREDICTED BY IDOCK:   -9.07 KCAL/MOL
REMARK 924 INTRA-LIGAND FREE ENERGY PREDICTED BY IDOCK:   -0.81 KCAL/MOL
REMARK 927      BINDING AFFINITY PREDICTED BY RF-SCORE:    0.00 PKD
ROOT
HETATM    1  C   UNL     1      -8.088  12.094  67.289  1.00  0.00    -0.176 C  
HETATM    2  C   UNL     1      -8.139  13.596  67.551  1.00  0.00    -0.190 C  
HETATM    3  C   UNL     1      -9.557  14.211  67.396  1.00  0.00    -0.229 C  
HETATM    4  C   UNL     1      -9.850  15.226  68.537  1.00  0.00    -0.210 C  
HETATM    5  C   UNL     1     -11.301  15.762  68.580  1.00  0.00    -0.374 C  
HETATM    6  C   UNL     1      -8.537  10.263  65.929  1.00  0.00    -0.152 C  
HETATM    7  C   UNL     1     -12.382  14.706  68.315  1.00  0.00     0.041 C  
HETATM    8  C   UNL     1      -9.040  11.674  66.185  1.00  0.00    -0.209 C  
HETATM    9  C   UNL     1     -12.029  13.843  67.116  1.00  0.00    -0.455 C  
HETATM   10  C   UNL     1      -8.998   9.641  64.625  1.00  0.00    -0.274 C  
HETATM   11  O   UNL     1      -7.111  10.436  65.944  1.00  0.00    -0.123 OA 
HETATM   12  C   UNL     1     -10.687  13.162  67.414  1.00  0.00    -0.262 C  
HETATM   13  C   UNL     1      -6.810  11.511  66.749  1.00  0.00    -0.114 C  
HETATM   14  C   UNL     1     -10.494  11.858  66.592  1.00  0.00    -0.250 C  
HETATM   15  O   UNL     1      -5.685  11.886  67.009  1.00  0.00    -0.126 OA 
ENDROOT
BRANCH   5  16
HETATM   16  N   UNL     1     -11.569  16.389  69.862  1.00  0.00    -0.334 N  
HETATM   17  H   UNL     1     -11.773  17.388  69.887  1.00  0.00     0.000 HD 
HETATM   18  C   UNL     1     -11.558  15.692  71.030  1.00  0.00    -0.392 C  
HETATM   19  O   UNL     1     -11.426  14.483  71.129  1.00  0.00    -0.223 OA 
BRANCH  18  20
HETATM   20  O   UNL     1     -11.785  16.550  72.055  1.00  0.00    -0.474 OA 
BRANCH  20  21
HETATM   21  C   UNL     1     -12.514  15.981  73.150  1.00  0.00    -0.526 C  
HETATM   22  C   UNL     1     -13.908  15.631  72.655  1.00  0.00    -0.648 C  
ENDBRANCH  20  21
ENDBRANCH  18  20
ENDBRANCH   5  16
BRANCH  14  23
HETATM   23  C   UNL     1     -10.947  10.769  67.531  1.00  0.00    -0.372 C  
HETATM   24  C   UNL     1     -11.079  10.828  68.862  1.00  0.00    -0.307 C  
BRANCH  24  25
HETATM   25  C   UNL     1     -11.122   9.575  69.632  1.00  0.00    -0.171 A  
HETATM   26  C   UNL     1     -11.799   8.379  71.580  1.00  0.00    -0.357 A  
HETATM   27  C   UNL     1     -12.028   9.406  70.664  1.00  0.00    -0.232 A  
HETATM   28  C   UNL     1     -10.660   7.563  71.483  1.00  0.00    -0.236 A  
HETATM   29  N   UNL     1     -10.098   8.712  69.419  1.00  0.00    -0.198 NA 
HETATM   30  C   UNL     1      -9.888   7.749  70.338  1.00  0.00    -0.183 A  
BRANCH  28  31
HETATM   31  C   UNL     1     -10.212   6.686  72.579  1.00  0.00    -0.203 A  
HETATM   32  C   UNL     1      -8.910   6.822  73.103  1.00  0.00    -0.138 A  
HETATM   33  C   UNL     1      -8.412   5.914  74.030  1.00  0.00    -0.116 A  
HETATM   34  C   UNL     1      -9.176   4.845  74.465  1.00  0.00    -0.120 A  
HETATM   35  F   UNL     1      -7.161   6.064  74.483  1.00  0.00    -0.087 F  
HETATM   36  C   UNL     1     -10.472   4.695  73.983  1.00  0.00    -0.322 A  
HETATM   37  C   UNL     1     -10.986   5.611  73.058  1.00  0.00    -0.325 A  
ENDBRANCH  28  31
ENDBRANCH  24  25
ENDBRANCH  14  23
TORSDOF 6
ENDMDL
MODEL        7
REMARK 921   NORMALIZED FREE ENERGY PREDICTED BY IDOCK:   -6.29 KCAL/MOL
REMARK 922        TOTAL FREE ENERGY PREDICTED BY IDOCK:   -9.86 KCAL/MOL
REMARK 923 INTER-LIGAND FREE ENERGY PREDICTED BY IDOCK:   -8.87 KCAL/MOL
REMARK 924 INTRA-LIGAND FREE ENERGY PREDICTED BY IDOCK:   -0.99 KCAL/MOL
REMARK 927      BINDING AFFINITY PREDICTED BY RF-SCORE:    0.00 PKD
ROOT
HETATM    1  C   UNL     1      -7.577  11.431  68.788  1.00  0.00    -0.132 C  
HETATM    2  C   UNL     1      -7.881  12.924  68.688  1.00  0.00    -0.044 C  
HETATM    3  C   UNL     1      -9.192  13.246  67.920  1.00  0.00    -0.213 C  
HETATM    4  C   UNL     1      -9.997  14.363  68.643  1.00  0.00    -0.241 C  
HETATM    5  C   UNL     1     -11.405  14.636  68.060  1.00  0.00    -0.311 C  
HETATM    6  C   UNL     1      -7.288   9.356  67.781  1.00  0.00    -0.083 C  
HETATM    7  C   UNL     1     -12.190  13.378  67.667  1.00  0.00    -0.202 C  
HETATM    8  C   UNL     1      -7.995  10.679  67.538  1.00  0.00    -0.110 C  
HETATM    9  C   UNL     1     -11.323  12.409  66.881  1.00  0.00    -0.392 C  
HETATM   10  C   UNL     1      -7.157   8.461  66.563  1.00  0.00    -0.072 C  
HETATM   11  O   UNL     1      -5.999   9.777  68.255  1.00  0.00    -0.046 OA 
HETATM   12  C   UNL     1     -10.129  12.032  67.767  1.00  0.00    -0.199 C  
HETATM   13  C   UNL     1      -6.138  11.003  68.865  1.00  0.00    -0.041 C  
HETATM   14  C   UNL     1      -9.506  10.667  67.362  1.00  0.00    -0.172 C  
HETATM   15  O   UNL     1      -5.239  11.607  69.414  1.00  0.00    -0.051 OA 
ENDROOT
BRANCH   5  16
HETATM   16  N   UNL     1     -12.200  15.403  69.003  1.00  0.00    -0.610 N  
HETATM   17  H   UNL     1     -12.545  16.321  68.722  1.00  0.00     0.000 HD 
HETATM   18  C   UNL     1     -12.502  14.942  70.247  1.00  0.00    -0.336 C  
HETATM   19  O   UNL     1     -12.236  13.828  70.670  1.00  0.00    -0.333 OA 
BRANCH  18  20
HETATM   20  O   UNL     1     -13.201  15.894  70.910  1.00  0.00    -0.516 OA 
BRANCH  20  21
HETATM   21  C   UNL     1     -13.887  15.418  72.075  1.00  0.00    -0.522 C  
HETATM   22  C   UNL     1     -13.154  15.941  73.299  1.00  0.00    -0.694 C  
ENDBRANCH  20  21
ENDBRANCH  18  20
ENDBRANCH   5  16
BRANCH  14  23
HETATM   23  C   UNL     1     -10.163   9.680  68.294  1.00  0.00    -0.216 C  
HETATM   24  C   UNL     1     -10.751   9.922  69.472  1.00  0.00    -0.265 C  
BRANCH  24  25
HETATM   25  C   UNL     1     -10.953   8.808  70.412  1.00  0.00    -0.235 A  
HETATM   26  C   UNL     1     -10.146   7.448  72.197  1.00  0.00    -0.223 A  
HETATM   27  C   UNL     1     -10.168   8.682  71.544  1.00  0.00    -0.345 A  
HETATM   28  C   UNL     1     -10.869   6.352  71.697  1.00  0.00    -0.291 A  
HETATM   29  N   UNL     1     -11.781   7.820  69.991  1.00  0.00     0.120 NA 
HETATM   30  C   UNL     1     -11.714   6.633  70.626  1.00  0.00    -0.394 A  
BRANCH  28  31
HETATM   31  C   UNL     1     -10.640   4.971  72.155  1.00  0.00    -0.259 A  
HETATM   32  C   UNL     1      -9.968   4.054  71.322  1.00  0.00    -0.202 A  
HETATM   33  C   UNL     1      -9.870   2.711  71.664  1.00  0.00    -0.143 A  
HETATM   34  C   UNL     1     -10.434   2.229  72.833  1.00  0.00    -0.244 A  
HETATM   35  F   UNL     1      -9.246   1.868  70.831  1.00  0.00    -0.122 F  
HETATM   36  C   UNL     1     -11.085   3.112  73.688  1.00  0.00    -0.321 A  
HETATM   37  C   UNL     1     -11.178   4.469  73.356  1.00  0.00    -0.404 A  
ENDBRANCH  28  31
ENDBRANCH  24  25
ENDBRANCH  14  23
TORSDOF 6
ENDMDL
MODEL        8
REMARK 921   NORMALIZED FREE ENERGY PREDICTED BY IDOCK:   -6.10 KCAL/MOL
REMARK 922        TOTAL FREE ENERGY PREDICTED BY IDOCK:   -9.60 KCAL/MOL
REMARK 923 INTER-LIGAND FREE ENERGY PREDICTED BY IDOCK:   -8.80 KCAL/MOL
REMARK 924 INTRA-LIGAND FREE ENERGY PREDICTED BY IDOCK:   -0.80 KCAL/MOL
REMARK 927      BINDING AFFINITY PREDICTED BY RF-SCORE:    0.00 PKD
ROOT
HETATM    1  C   UNL     1      -8.943   8.754  70.732  1.00  0.00    -0.231 C  
HETATM    2  C   UNL     1      -8.009   7.946  69.834  1.00  0.00    -0.109 C  
HETATM    3  C   UNL     1      -8.515   7.800  68.373  1.00  0.00    -0.125 C  
HETATM    4  C   UNL     1      -7.351   7.994  67.361  1.00  0.00    -0.089 C  
HETATM    5  C   UNL     1      -7.779   8.046  65.874  1.00  0.00    -0.092 C  
HETATM    6  C   UNL     1     -11.057   9.147  71.614  1.00  0.00    -0.375 C  
HETATM    7  C   UNL     1      -9.056   8.851  65.604  1.00  0.00    -0.269 C  
HETATM    8  C   UNL     1     -10.403   8.516  70.397  1.00  0.00    -0.222 C  
HETATM    9  C   UNL     1     -10.151   8.500  66.597  1.00  0.00    -0.364 C  
HETATM   10  C   UNL     1     -12.511   8.777  71.831  1.00  0.00    -0.434 C  
HETATM   11  O   UNL     1     -10.234   8.668  72.690  1.00  0.00    -0.253 OA 
HETATM   12  C   UNL     1      -9.619   8.810  68.001  1.00  0.00    -0.160 C  
HETATM   13  C   UNL     1      -8.970   8.432  72.201  1.00  0.00    -0.223 C  
HETATM   14  C   UNL     1     -10.764   9.058  69.022  1.00  0.00    -0.163 C  
HETATM   15  O   UNL     1      -8.027   8.066  72.872  1.00  0.00    -0.128 OA 
ENDROOT
BRANCH   5  16
HETATM   16  N   UNL     1      -6.706   8.591  65.061  1.00  0.00    -0.064 N  
HETATM   17  H   UNL     1      -6.212   7.970  64.420  1.00  0.00     0.000 HD 
HETATM   18  C   UNL     1      -6.337   9.898  65.122  1.00  0.00    -0.102 C  
HETATM   19  O   UNL     1      -6.905  10.763  65.770  1.00  0.00    -0.124 OA 
BRANCH  18  20
HETATM   20  O   UNL     1      -5.280  10.095  64.297  1.00  0.00    -0.081 OA 
BRANCH  20  21
HETATM   21  C   UNL     1      -5.524   9.737  62.931  1.00  0.00    -0.091 C  
HETATM   22  C   UNL     1      -6.593  10.670  62.384  1.00  0.00    -0.133 C  
ENDBRANCH  20  21
ENDBRANCH  18  20
ENDBRANCH   5  16
BRANCH  14  23
HETATM   23  C   UNL     1     -10.912  10.558  69.041  1.00  0.00    -0.289 C  
HETATM   24  C   UNL     1     -12.020  11.282  68.837  1.00  0.00    -0.378 C  
BRANCH  24  25
HETATM   25  C   UNL     1     -11.890  12.704  68.483  1.00  0.00    -0.300 A  
HETATM   26  C   UNL     1     -11.416  14.387  66.862  1.00  0.00    -0.379 A  
HETATM   27  C   UNL     1     -11.896  13.111  67.161  1.00  0.00    -0.424 A  
HETATM   28  C   UNL     1     -10.903  15.221  67.868  1.00  0.00    -0.288 A  
HETATM   29  N   UNL     1     -11.547  13.538  69.496  1.00  0.00    -0.293 NA 
HETATM   30  C   UNL     1     -11.061  14.753  69.171  1.00  0.00    -0.265 A  
BRANCH  28  31
HETATM   31  C   UNL     1     -10.110  16.428  67.575  1.00  0.00    -0.261 A  
HETATM   32  C   UNL     1     -10.623  17.702  67.890  1.00  0.00    -0.390 A  
HETATM   33  C   UNL     1      -9.965  18.859  67.491  1.00  0.00    -0.345 A  
HETATM   34  C   UNL     1      -8.786  18.798  66.767  1.00  0.00    -0.307 A  
HETATM   35  F   UNL     1     -10.501  20.051  67.787  1.00  0.00    -0.509 F  
HETATM   36  C   UNL     1      -8.242  17.554  66.460  1.00  0.00    -0.311 A  
HETATM   37  C   UNL     1      -8.893  16.384  66.868  1.00  0.00    -0.232 A  
ENDBRANCH  28  31
ENDBRANCH  24  25
ENDBRANCH  14  23
TORSDOF 6
ENDMDL
MODEL        9
REMARK 921   NORMALIZED FREE ENERGY PREDICTED BY IDOCK:   -6.05 KCAL/MOL
REMARK 922        TOTAL FREE ENERGY PREDICTED BY IDOCK:   -9.52 KCAL/MOL
REMARK 923 INTER-LIGAND FREE ENERGY PREDICTED BY IDOCK:   -8.66 KCAL/MOL
REMARK 924 INTRA-LIGAND FREE ENERGY PREDICTED BY IDOCK:   -0.87 KCAL/MOL
REMARK 927      BINDING AFFINITY PREDICTED BY RF-SCORE:    0.00 PKD
ROOT
HETATM    1  C   UNL     1      -9.129   3.834  68.869  1.00  0.00    -0.201 C  
HETATM    2  C   UNL     1      -9.734   3.843  70.270  1.00  0.00    -0.245 C  
HETATM    3  C   UNL     1      -9.210   4.995  71.171  1.00  0.00    -0.187 C  
HETATM    4  C   UNL     1     -10.372   5.640  71.978  1.00  0.00    -0.261 C  
HETATM    5  C   UNL     1      -9.990   6.912  72.772  1.00  0.00    -0.171 C  
HETATM    6  C   UNL     1      -7.274   3.846  67.468  1.00  0.00    -0.067 C  
HETATM    7  C   UNL     1      -9.063   7.879  72.024  1.00  0.00    -0.198 C  
HETATM    8  C   UNL     1      -7.676   4.269  68.871  1.00  0.00    -0.058 C  
HETATM    9  C   UNL     1      -7.913   7.140  71.362  1.00  0.00    -0.102 C  
HETATM   10  C   UNL     1      -5.780   3.774  67.219  1.00  0.00    -0.022 C  
HETATM   11  O   UNL     1      -7.883   2.551  67.349  1.00  0.00    -0.067 OA 
HETATM   12  C   UNL     1      -8.517   6.124  70.384  1.00  0.00    -0.133 C  
HETATM   13  C   UNL     1      -8.992   2.513  68.163  1.00  0.00    -0.152 C  
HETATM   14  C   UNL     1      -7.522   5.732  69.256  1.00  0.00    -0.083 C  
HETATM   15  O   UNL     1      -9.753   1.572  68.249  1.00  0.00    -0.186 OA 
ENDROOT
BRANCH   5  16
HETATM   16  N   UNL     1     -11.185   7.633  73.174  1.00  0.00    -0.569 N  
HETATM   17  H   UNL     1     -11.327   7.836  74.164  1.00  0.00     0.000 HD 
HETATM   18  C   UNL     1     -12.122   8.047  72.279  1.00  0.00    -0.341 C  
HETATM   19  O   UNL     1     -12.028   7.955  71.065  1.00  0.00    -0.298 OA 
BRANCH  18  20
HETATM   20  O   UNL     1     -13.141   8.636  72.951  1.00  0.00    -0.265 OA 
BRANCH  20  21
HETATM   21  C   UNL     1     -14.000   9.440  72.133  1.00  0.00    -0.290 C  
HETATM   22  C   UNL     1     -13.349  10.803  71.965  1.00  0.00    -0.403 C  
ENDBRANCH  20  21
ENDBRANCH  18  20
ENDBRANCH   5  16
BRANCH  14  23
HETATM   23  C   UNL     1      -7.894   6.645  68.114  1.00  0.00    -0.110 C  
HETATM   24  C   UNL     1      -7.302   7.786  67.742  1.00  0.00    -0.095 C  
BRANCH  24  25
HETATM   25  C   UNL     1      -8.042   8.733  66.894  1.00  0.00    -0.101 A  
HETATM   26  C   UNL     1      -8.433  10.966  66.156  1.00  0.00    -0.171 A  
HETATM   27  C   UNL     1      -7.552  10.002  66.649  1.00  0.00    -0.104 A  
HETATM   28  C   UNL     1      -9.790  10.668  65.951  1.00  0.00    -0.296 A  
HETATM   29  N   UNL     1      -9.307   8.369  66.563  1.00  0.00    -0.186 NA 
HETATM   30  C   UNL     1     -10.140   9.330  66.117  1.00  0.00    -0.233 A  
BRANCH  28  31
HETATM   31  C   UNL     1     -10.811  11.709  65.737  1.00  0.00    -0.334 A  
HETATM   32  C   UNL     1     -11.249  12.009  64.431  1.00  0.00    -0.406 A  
HETATM   33  C   UNL     1     -12.096  13.083  64.187  1.00  0.00    -0.427 A  
HETATM   34  C   UNL     1     -12.534  13.896  65.219  1.00  0.00    -0.504 A  
HETATM   35  F   UNL     1     -12.467  13.349  62.928  1.00  0.00    -0.531 F  
HETATM   36  C   UNL     1     -12.137  13.614  66.522  1.00  0.00    -0.469 A  
HETATM   37  C   UNL     1     -11.293  12.526  66.778  1.00  0.00    -0.390 A  
ENDBRANCH  28  31
ENDBRANCH  24  25
ENDBRANCH  14  23
TORSDOF 6
ENDMDL
MODEL       10
REMARK 921   NORMALIZED FREE ENERGY PREDICTED BY IDOCK:   -6.04 KCAL/MOL
REMARK 922        TOTAL FREE ENERGY PREDICTED BY IDOCK:   -9.52 KCAL/MOL
REMARK 923 INTER-LIGAND FREE ENERGY PREDICTED BY IDOCK:   -8.32 KCAL/MOL
REMARK 924 INTRA-LIGAND FREE ENERGY PREDICTED BY IDOCK:   -1.19 KCAL/MOL
REMARK 927      BINDING AFFINITY PREDICTED BY RF-SCORE:    0.00 PKD
ROOT
HETATM    1  C   UNL     1      -8.082   6.195  71.100  1.00  0.00    -0.121 C  
HETATM    2  C   UNL     1      -7.907   5.179  69.974  1.00  0.00    -0.078 C  
HETATM    3  C   UNL     1      -9.114   5.112  68.998  1.00  0.00    -0.137 C  
HETATM    4  C   UNL     1      -8.630   5.019  67.524  1.00  0.00    -0.104 C  
HETATM    5  C   UNL     1      -9.749   5.128  66.460  1.00  0.00    -0.171 C  
HETATM    6  C   UNL     1      -9.324   7.066  72.860  1.00  0.00    -0.140 C  
HETATM    7  C   UNL     1     -10.816   6.187  66.760  1.00  0.00    -0.360 C  
HETATM    8  C   UNL     1      -9.520   6.277  71.577  1.00  0.00    -0.162 C  
HETATM    9  C   UNL     1     -11.280   6.111  68.205  1.00  0.00    -0.166 C  
HETATM   10  C   UNL     1     -10.495   7.031  73.824  1.00  0.00    -0.392 C  
HETATM   11  O   UNL     1      -8.163   6.444  73.433  1.00  0.00    -0.113 OA 
HETATM   12  C   UNL     1     -10.052   6.331  69.097  1.00  0.00    -0.204 C  
HETATM   13  C   UNL     1      -7.400   5.923  72.413  1.00  0.00    -0.091 C  
HETATM   14  C   UNL     1     -10.439   6.850  70.510  1.00  0.00    -0.234 C  
HETATM   15  O   UNL     1      -6.327   5.375  72.564  1.00  0.00    -0.047 OA 
ENDROOT
BRANCH   5  16
HETATM   16  N   UNL     1      -9.177   5.402  65.154  1.00  0.00    -0.353 N  
HETATM   17  H   UNL     1      -8.746   6.312  64.987  1.00  0.00     0.000 HD 
HETATM   18  C   UNL     1      -9.194   4.491  64.144  1.00  0.00    -0.109 C  
HETATM   19  O   UNL     1      -9.588   3.339  64.240  1.00  0.00    -0.137 OA 
BRANCH  18  20
HETATM   20  O   UNL     1      -8.642   5.049  63.039  1.00  0.00    -0.120 OA 
BRANCH  20  21
HETATM   21  C   UNL     1      -7.629   6.024  63.314  1.00  0.00    -0.089 C  
HETATM   22  C   UNL     1      -7.831   7.193  62.364  1.00  0.00    -0.125 C  
ENDBRANCH  20  21
ENDBRANCH  18  20
ENDBRANCH   5  16
BRANCH  14  23
HETATM   23  C   UNL     1     -10.288   8.347  70.398  1.00  0.00    -0.219 C  
HETATM   24  C   UNL     1     -11.234   9.284  70.534  1.00  0.00    -0.315 C  
BRANCH  24  25
HETATM   25  C   UNL     1     -10.992  10.628  69.984  1.00  0.00    -0.259 A  
HETATM   26  C   UNL     1     -11.823  12.766  69.334  1.00  0.00    -0.359 A  
HETATM   27  C   UNL     1     -11.915  11.644  70.158  1.00  0.00    -0.441 A  
HETATM   28  C   UNL     1     -10.846  12.847  68.328  1.00  0.00    -0.263 A  
HETATM   29  N   UNL     1      -9.945  10.739  69.129  1.00  0.00    -0.207 NA 
HETATM   30  C   UNL     1      -9.902  11.823  68.328  1.00  0.00    -0.198 A  
BRANCH  28  31
HETATM   31  C   UNL     1     -10.899  13.845  67.245  1.00  0.00    -0.292 A  
HETATM   32  C   UNL     1     -11.758  13.648  66.145  1.00  0.00    -0.391 A  
HETATM   33  C   UNL     1     -11.719  14.493  65.043  1.00  0.00    -0.392 A  
HETATM   34  C   UNL     1     -10.830  15.554  64.988  1.00  0.00    -0.468 A  
HETATM   35  F   UNL     1     -12.533  14.255  64.007  1.00  0.00    -0.476 F  
HETATM   36  C   UNL     1      -9.984  15.788  66.067  1.00  0.00    -0.358 A  
HETATM   37  C   UNL     1     -10.026  14.948  67.186  1.00  0.00    -0.231 A  
ENDBRANCH  28  31
ENDBRANCH  24  25
ENDBRANCH  14  23
TORSDOF 6
ENDMDL
MODEL       11
REMARK 921   NORMALIZED FREE ENERGY PREDICTED BY IDOCK:   -5.66 KCAL/MOL
REMARK 922        TOTAL FREE ENERGY PREDICTED BY IDOCK:   -9.00 KCAL/MOL
REMARK 923 INTER-LIGAND FREE ENERGY PREDICTED BY IDOCK:   -7.69 KCAL/MOL
REMARK 924 INTRA-LIGAND FREE ENERGY PREDICTED BY IDOCK:   -1.31 KCAL/MOL
REMARK 927      BINDING AFFINITY PREDICTED BY RF-SCORE:    0.00 PKD
ROOT
HETATM    1  C   UNL     1      -9.527   4.651  65.426  1.00  0.00    -0.176 C  
HETATM    2  C   UNL     1      -9.722   3.694  66.598  1.00  0.00    -0.098 C  
HETATM    3  C   UNL     1      -8.827   4.016  67.826  1.00  0.00    -0.134 C  
HETATM    4  C   UNL     1      -9.632   3.880  69.150  1.00  0.00    -0.218 C  
HETATM    5  C   UNL     1      -8.885   4.353  70.421  1.00  0.00    -0.087 C  
HETATM    6  C   UNL     1      -8.137   5.725  63.905  1.00  0.00    -0.113 C  
HETATM    7  C   UNL     1      -8.078   5.645  70.245  1.00  0.00    -0.104 C  
HETATM    8  C   UNL     1      -8.083   5.095  65.286  1.00  0.00    -0.120 C  
HETATM    9  C   UNL     1      -7.257   5.614  68.967  1.00  0.00    -0.073 C  
HETATM   10  C   UNL     1      -6.789   5.956  63.248  1.00  0.00    -0.037 C  
HETATM   11  O   UNL     1      -8.919   4.777  63.162  1.00  0.00    -0.141 OA 
HETATM   12  C   UNL     1      -8.231   5.437  67.796  1.00  0.00    -0.100 C  
HETATM   13  C   UNL     1      -9.761   4.127  64.035  1.00  0.00    -0.131 C  
HETATM   14  C   UNL     1      -7.641   5.960  66.457  1.00  0.00    -0.095 C  
HETATM   15  O   UNL     1     -10.587   3.299  63.711  1.00  0.00    -0.231 OA 
ENDROOT
BRANCH   5  16
HETATM   16  N   UNL     1      -9.821   4.536  71.516  1.00  0.00    -0.181 N  
HETATM   17  H   UNL     1     -10.800   4.728  71.299  1.00  0.00     0.000 HD 
HETATM   18  C   UNL     1      -9.441   4.460  72.820  1.00  0.00    -0.132 C  
HETATM   19  O   UNL     1      -8.330   4.143  73.214  1.00  0.00    -0.089 OA 
BRANCH  18  20
HETATM   20  O   UNL     1     -10.513   4.729  73.605  1.00  0.00    -0.185 OA 
BRANCH  20  21
HETATM   21  C   UNL     1     -10.377   5.911  74.404  1.00  0.00    -0.251 C  
HETATM   22  C   UNL     1     -10.783   7.102  73.552  1.00  0.00    -0.375 C  
ENDBRANCH  20  21
ENDBRANCH  18  20
ENDBRANCH   5  16
BRANCH  14  23
HETATM   23  C   UNL     1      -8.185   7.361  66.345  1.00  0.00    -0.122 C  
HETATM   24  C   UNL     1      -9.195   7.913  67.031  1.00  0.00    -0.181 C  
BRANCH  24  25
HETATM   25  C   UNL     1      -9.843   9.122  66.500  1.00  0.00    -0.264 A  
HETATM   26  C   UNL     1      -9.863  10.938  64.954  1.00  0.00    -0.339 A  
HETATM   27  C   UNL     1      -9.504   9.623  65.256  1.00  0.00    -0.342 A  
HETATM   28  C   UNL     1     -10.516  11.745  65.900  1.00  0.00    -0.296 A  
HETATM   29  N   UNL     1     -10.606   9.820  67.378  1.00  0.00    -0.267 NA 
HETATM   30  C   UNL     1     -10.911  11.096  67.068  1.00  0.00    -0.289 A  
BRANCH  28  31
HETATM   31  C   UNL     1     -10.636  13.206  65.753  1.00  0.00    -0.293 A  
HETATM   32  C   UNL     1     -11.650  13.752  64.941  1.00  0.00    -0.362 A  
HETATM   33  C   UNL     1     -11.695  15.113  64.666  1.00  0.00    -0.348 A  
HETATM   34  C   UNL     1     -10.741  15.977  65.179  1.00  0.00    -0.429 A  
HETATM   35  F   UNL     1     -12.659  15.587  63.867  1.00  0.00    -0.391 F  
HETATM   36  C   UNL     1      -9.740  15.472  66.002  1.00  0.00    -0.378 A  
HETATM   37  C   UNL     1      -9.695  14.104  66.294  1.00  0.00    -0.315 A  
ENDBRANCH  28  31
ENDBRANCH  24  25
ENDBRANCH  14  23
TORSDOF 6
ENDMDL
MODEL       12
REMARK 921   NORMALIZED FREE ENERGY PREDICTED BY IDOCK:   -5.65 KCAL/MOL
REMARK 922        TOTAL FREE ENERGY PREDICTED BY IDOCK:   -8.99 KCAL/MOL
REMARK 923 INTER-LIGAND FREE ENERGY PREDICTED BY IDOCK:   -7.83 KCAL/MOL
REMARK 924 INTRA-LIGAND FREE ENERGY PREDICTED BY IDOCK:   -1.16 KCAL/MOL
REMARK 927      BINDING AFFINITY PREDICTED BY RF-SCORE:    0.00 PKD
ROOT
HETATM    1  C   UNL     1     -10.166  13.011  64.937  1.00  0.00    -0.304 C  
HETATM    2  C   UNL     1      -9.287  14.259  64.963  1.00  0.00     1.020 C  
HETATM    3  C   UNL     1      -9.885  15.430  65.790  1.00  0.00    -0.399 C  
HETATM    4  C   UNL     1      -8.789  16.114  66.655  1.00  0.00    -0.298 C  
HETATM    5  C   UNL     1      -9.311  17.177  67.651  1.00  0.00    -0.239 C  
HETATM    6  C   UNL     1     -12.220  11.994  64.556  1.00  0.00    -0.241 C  
HETATM    7  C   UNL     1     -10.607  16.792  68.376  1.00  0.00    -0.354 C  
HETATM    8  C   UNL     1     -11.643  13.354  64.912  1.00  0.00    -0.354 C  
HETATM    9  C   UNL     1     -11.634  16.229  67.408  1.00  0.00     0.384 C  
HETATM   10  C   UNL     1     -13.656  12.011  64.068  1.00  0.00     0.982 C  
HETATM   11  O   UNL     1     -11.329  11.540  63.526  1.00  0.00    -0.408 OA 
HETATM   12  C   UNL     1     -11.015  14.994  66.743  1.00  0.00    -0.323 C  
HETATM   13  C   UNL     1     -10.097  12.119  63.728  1.00  0.00    -0.379 C  
HETATM   14  C   UNL     1     -12.094  14.013  66.206  1.00  0.00    -0.482 C  
HETATM   15  O   UNL     1      -9.111  11.898  63.056  1.00  0.00    -0.199 OA 
ENDROOT
BRANCH   5  16
HETATM   16  N   UNL     1      -8.295  17.477  68.645  1.00  0.00    -0.274 N  
HETATM   17  H   UNL     1      -8.308  16.968  69.530  1.00  0.00     0.000 HD 
HETATM   18  C   UNL     1      -7.328  18.411  68.440  1.00  0.00    -0.276 C  
HETATM   19  O   UNL     1      -7.142  19.017  67.397  1.00  0.00    -0.211 OA 
BRANCH  18  20
HETATM   20  O   UNL     1      -6.567  18.508  69.558  1.00  0.00    -0.252 OA 
BRANCH  20  21
HETATM   21  C   UNL     1      -6.344  19.851  70.004  1.00  0.00    -0.346 C  
HETATM   22  C   UNL     1      -5.481  19.794  71.254  1.00  0.00    -0.346 C  
ENDBRANCH  20  21
ENDBRANCH  18  20
ENDBRANCH   5  16
BRANCH  14  23
HETATM   23  C   UNL     1     -12.248  13.004  67.315  1.00  0.00    -0.180 C  
HETATM   24  C   UNL     1     -11.349  12.654  68.244  1.00  0.00    -0.337 C  
BRANCH  24  25
HETATM   25  C   UNL     1     -11.522  11.381  68.962  1.00  0.00    -0.300 A  
HETATM   26  C   UNL     1     -12.096  10.201  70.953  1.00  0.00    -0.453 A  
HETATM   27  C   UNL     1     -12.258  11.318  70.131  1.00  0.00    -0.410 A  
HETATM   28  C   UNL     1     -11.183   9.187  70.623  1.00  0.00    -0.322 A  
HETATM   29  N   UNL     1     -10.748  10.351  68.537  1.00  0.00    -0.206 NA 
HETATM   30  C   UNL     1     -10.591   9.300  69.367  1.00  0.00    -0.223 A  
BRANCH  28  31
HETATM   31  C   UNL     1     -10.749   8.161  71.588  1.00  0.00    -0.299 A  
HETATM   32  C   UNL     1     -11.460   6.948  71.694  1.00  0.00    -0.312 A  
HETATM   33  C   UNL     1     -11.165   6.029  72.694  1.00  0.00    -0.285 A  
HETATM   34  C   UNL     1     -10.167   6.278  73.621  1.00  0.00    -0.267 A  
HETATM   35  F   UNL     1     -11.882   4.901  72.777  1.00  0.00    -0.271 F  
HETATM   36  C   UNL     1      -9.433   7.456  73.530  1.00  0.00    -0.305 A  
HETATM   37  C   UNL     1      -9.715   8.381  72.518  1.00  0.00    -0.359 A  
ENDBRANCH  28  31
ENDBRANCH  24  25
ENDBRANCH  14  23
TORSDOF 6
ENDMDL
MODEL       13
REMARK 921   NORMALIZED FREE ENERGY PREDICTED BY IDOCK:   -5.59 KCAL/MOL
REMARK 922        TOTAL FREE ENERGY PREDICTED BY IDOCK:   -8.91 KCAL/MOL
REMARK 923 INTER-LIGAND FREE ENERGY PREDICTED BY IDOCK:   -8.58 KCAL/MOL
REMARK 924 INTRA-LIGAND FREE ENERGY PREDICTED BY IDOCK:   -0.33 KCAL/MOL
REMARK 927      BINDING AFFINITY PREDICTED BY RF-SCORE:    0.00 PKD
ROOT
HETATM    1  C   UNL     1     -12.530   9.297  71.151  1.00  0.00    -0.341 C  
HETATM    2  C   UNL     1     -12.583  10.736  70.645  1.00  0.00    -0.446 C  
HETATM    3  C   UNL     1     -11.311  11.175  69.868  1.00  0.00    -0.348 C  
HETATM    4  C   UNL     1     -11.689  11.994  68.602  1.00  0.00    -0.380 C  
HETATM    5  C   UNL     1     -10.506  12.326  67.661  1.00  0.00    -0.214 C  
HETATM    6  C   UNL     1     -11.450   7.606  72.322  1.00  0.00    -0.317 C  
HETATM    7  C   UNL     1      -9.509  11.179  67.456  1.00  0.00    -0.178 C  
HETATM    8  C   UNL     1     -11.133   8.896  71.585  1.00  0.00    -0.420 C  
HETATM    9  C   UNL     1      -9.142  10.524  68.777  1.00  0.00    -0.166 C  
HETATM   10  C   UNL     1     -10.347   7.094  73.229  1.00  0.00    -0.369 C  
HETATM   11  O   UNL     1     -12.618   7.960  73.078  1.00  0.00     0.143 OA 
HETATM   12  C   UNL     1     -10.436   9.993  69.406  1.00  0.00    -0.252 C  
HETATM   13  C   UNL     1     -13.287   8.957  72.406  1.00  0.00    -0.440 C  
HETATM   14  C   UNL     1     -10.169   8.837  70.409  1.00  0.00    -0.228 C  
HETATM   15  O   UNL     1     -14.342   9.442  72.759  1.00  0.00    -0.407 OA 
ENDROOT
BRANCH   5  16
HETATM   16  N   UNL     1     -11.000  12.749  66.362  1.00  0.00    -0.271 N  
HETATM   17  H   UNL     1     -11.466  12.064  65.767  1.00  0.00     0.000 HD 
HETATM   18  C   UNL     1     -10.863  14.025  65.911  1.00  0.00    -0.288 C  
HETATM   19  O   UNL     1     -10.414  14.958  66.557  1.00  0.00    -0.284 OA 
BRANCH  18  20
HETATM   20  O   UNL     1     -11.365  14.102  64.654  1.00  0.00    -0.359 OA 
BRANCH  20  21
HETATM   21  C   UNL     1     -12.421  13.172  64.383  1.00  0.00    -0.310 C  
HETATM   22  C   UNL     1     -11.845  12.036  63.555  1.00  0.00    -0.587 C  
ENDBRANCH  20  21
ENDBRANCH  18  20
ENDBRANCH   5  16
BRANCH  14  23
HETATM   23  C   UNL     1     -10.378   7.590  69.587  1.00  0.00    -0.225 C  
HETATM   24  C   UNL     1      -9.978   6.342  69.862  1.00  0.00    -0.198 C  
BRANCH  24  25
HETATM   25  C   UNL     1      -9.902   5.359  68.771  1.00  0.00    -0.150 A  
HETATM   26  C   UNL     1      -8.664   3.719  67.560  1.00  0.00    -0.123 A  
HETATM   27  C   UNL     1      -8.922   4.382  68.761  1.00  0.00    -0.152 A  
HETATM   28  C   UNL     1      -9.353   4.059  66.384  1.00  0.00    -0.186 A  
HETATM   29  N   UNL     1     -10.690   5.605  67.694  1.00  0.00    -0.216 NA 
HETATM   30  C   UNL     1     -10.396   4.968  66.543  1.00  0.00    -0.284 A  
BRANCH  28  31
HETATM   31  C   UNL     1      -8.911   3.620  65.048  1.00  0.00    -0.131 A  
HETATM   32  C   UNL     1      -7.905   4.335  64.369  1.00  0.00    -0.085 A  
HETATM   33  C   UNL     1      -7.576   4.035  63.052  1.00  0.00    -0.058 A  
HETATM   34  C   UNL     1      -8.230   3.027  62.364  1.00  0.00    -0.073 A  
HETATM   35  F   UNL     1      -6.632   4.756  62.434  1.00  0.00    -0.024 F  
HETATM   36  C   UNL     1      -9.213   2.289  63.014  1.00  0.00    -0.091 A  
HETATM   37  C   UNL     1      -9.542   2.576  64.344  1.00  0.00    -0.128 A  
ENDBRANCH  28  31
ENDBRANCH  24  25
ENDBRANCH  14  23
TORSDOF 6
ENDMDL
MODEL       14
REMARK 921   NORMALIZED FREE ENERGY PREDICTED BY IDOCK:   -5.59 KCAL/MOL
REMARK 922        TOTAL FREE ENERGY PREDICTED BY IDOCK:   -8.91 KCAL/MOL
REMARK 923 INTER-LIGAND FREE ENERGY PREDICTED BY IDOCK:   -8.18 KCAL/MOL
REMARK 924 INTRA-LIGAND FREE ENERGY PREDICTED BY IDOCK:   -0.73 KCAL/MOL
REMARK 927      BINDING AFFINITY PREDICTED BY RF-SCORE:    0.00 PKD
ROOT
HETATM    1  C   UNL     1      -9.031   3.744  66.256  1.00  0.00    -0.136 C  
HETATM    2  C   UNL     1      -9.328   3.337  67.697  1.00  0.00    -0.245 C  
HETATM    3  C   UNL     1      -8.835   4.364  68.753  1.00  0.00    -0.133 C  
HETATM    4  C   UNL     1      -9.899   4.567  69.868  1.00  0.00    -0.298 C  
HETATM    5  C   UNL     1      -9.585   5.702  70.873  1.00  0.00    -0.169 C  
HETATM    6  C   UNL     1      -7.533   4.437  64.620  1.00  0.00    -0.072 C  
HETATM    7  C   UNL     1      -9.010   6.976  70.240  1.00  0.00    -0.149 C  
HETATM    8  C   UNL     1      -7.704   4.468  66.129  1.00  0.00    -0.094 C  
HETATM    9  C   UNL     1      -7.911   6.650  69.243  1.00  0.00    -0.110 C  
HETATM   10  C   UNL     1      -6.132   4.737  64.123  1.00  0.00    -0.022 C  
HETATM   11  O   UNL     1      -7.923   3.094  64.292  1.00  0.00    -0.081 OA 
HETATM   12  C   UNL     1      -8.520   5.751  68.160  1.00  0.00    -0.109 C  
HETATM   13  C   UNL     1      -8.818   2.656  65.240  1.00  0.00    -0.127 C  
HETATM   14  C   UNL     1      -7.727   5.820  66.826  1.00  0.00    -0.100 C  
HETATM   15  O   UNL     1      -9.374   1.576  65.219  1.00  0.00    -0.099 OA 
ENDROOT
BRANCH   5  16
HETATM   16  N   UNL     1     -10.777   6.054  71.624  1.00  0.00    -0.243 N  
HETATM   17  H   UNL     1     -10.761   5.966  72.640  1.00  0.00     0.000 HD 
HETATM   18  C   UNL     1     -11.913   6.496  71.021  1.00  0.00    -0.297 C  
HETATM   19  O   UNL     1     -12.034   6.737  69.831  1.00  0.00    -0.244 OA 
BRANCH  18  20
HETATM   20  O   UNL     1     -12.865   6.688  71.967  1.00  0.00    -0.287 OA 
BRANCH  20  21
HETATM   21  C   UNL     1     -13.999   7.441  71.519  1.00  0.00    -0.396 C  
HETATM   22  C   UNL     1     -13.817   8.880  71.974  1.00  0.00    -0.511 C  
ENDBRANCH  20  21
ENDBRANCH  18  20
ENDBRANCH   5  16
BRANCH  14  23
HETATM   23  C   UNL     1      -8.475   6.846  66.013  1.00  0.00    -0.140 C  
HETATM   24  C   UNL     1      -8.017   8.003  65.520  1.00  0.00    -0.117 C  
BRANCH  24  25
HETATM   25  C   UNL     1      -8.980   9.045  65.128  1.00  0.00    -0.165 A  
HETATM   26  C   UNL     1      -9.640  10.781  63.632  1.00  0.00    -0.347 A  
HETATM   27  C   UNL     1      -8.975   9.573  63.849  1.00  0.00    -0.217 A  
HETATM   28  C   UNL     1     -10.265  11.462  64.689  1.00  0.00    -0.347 A  
HETATM   29  N   UNL     1      -9.701   9.595  66.136  1.00  0.00    -0.232 NA 
HETATM   30  C   UNL     1     -10.308  10.776  65.900  1.00  0.00    -0.238 A  
BRANCH  28  31
HETATM   31  C   UNL     1     -10.702  12.866  64.584  1.00  0.00    -0.373 A  
HETATM   32  C   UNL     1      -9.934  13.889  65.174  1.00  0.00    -0.249 A  
HETATM   33  C   UNL     1     -10.397  15.199  65.219  1.00  0.00    -0.396 A  
HETATM   34  C   UNL     1     -11.631  15.539  64.691  1.00  0.00    -0.281 A  
HETATM   35  F   UNL     1      -9.648  16.137  65.813  1.00  0.00    -0.317 F  
HETATM   36  C   UNL     1     -12.403  14.555  64.082  1.00  0.00    -0.317 A  
HETATM   37  C   UNL     1     -11.939  13.236  64.021  1.00  0.00    -0.525 A  
ENDBRANCH  28  31
ENDBRANCH  24  25
ENDBRANCH  14  23
TORSDOF 6
ENDMDL
MODEL       15
REMARK 921   NORMALIZED FREE ENERGY PREDICTED BY IDOCK:   -5.57 KCAL/MOL
REMARK 922        TOTAL FREE ENERGY PREDICTED BY IDOCK:   -8.89 KCAL/MOL
REMARK 923 INTER-LIGAND FREE ENERGY PREDICTED BY IDOCK:   -8.13 KCAL/MOL
REMARK 924 INTRA-LIGAND FREE ENERGY PREDICTED BY IDOCK:   -0.76 KCAL/MOL
REMARK 927      BINDING AFFINITY PREDICTED BY RF-SCORE:    0.00 PKD
ROOT
HETATM    1  C   UNL     1      -8.450   6.312  71.420  1.00  0.00    -0.127 C  
HETATM    2  C   UNL     1      -7.330   5.737  70.558  1.00  0.00    -0.084 C  
HETATM    3  C   UNL     1      -7.825   5.096  69.233  1.00  0.00    -0.080 C  
HETATM    4  C   UNL     1      -6.895   5.484  68.048  1.00  0.00    -0.060 C  
HETATM    5  C   UNL     1      -7.398   5.047  66.651  1.00  0.00    -0.086 C  
HETATM    6  C   UNL     1     -10.490   6.071  72.508  1.00  0.00    -0.202 C  
HETATM    7  C   UNL     1      -8.904   5.236  66.425  1.00  0.00    -0.123 C  
HETATM    8  C   UNL     1      -9.716   5.479  71.342  1.00  0.00    -0.205 C  
HETATM    9  C   UNL     1      -9.708   4.728  67.609  1.00  0.00    -0.202 C  
HETATM   10  C   UNL     1     -11.664   5.241  72.990  1.00  0.00    -0.217 C  
HETATM   11  O   UNL     1      -9.482   6.181  73.525  1.00  0.00    -0.137 OA 
HETATM   12  C   UNL     1      -9.258   5.513  68.847  1.00  0.00    -0.141 C  
HETATM   13  C   UNL     1      -8.259   6.333  72.912  1.00  0.00    -0.115 C  
HETATM   14  C   UNL     1     -10.344   5.532  69.958  1.00  0.00    -0.358 C  
HETATM   15  O   UNL     1      -7.209   6.503  73.498  1.00  0.00    -0.081 OA 
ENDROOT
BRANCH   5  16
HETATM   16  N   UNL     1      -6.679   5.760  65.611  1.00  0.00    -0.047 N  
HETATM   17  H   UNL     1      -6.229   5.224  64.869  1.00  0.00     0.000 HD 
HETATM   18  C   UNL     1      -6.583   7.117  65.590  1.00  0.00    -0.051 C  
HETATM   19  O   UNL     1      -7.152   7.876  66.358  1.00  0.00    -0.068 OA 
BRANCH  18  20
HETATM   20  O   UNL     1      -5.810   7.486  64.540  1.00  0.00    -0.037 OA 
BRANCH  20  21
HETATM   21  C   UNL     1      -6.424   8.437  63.661  1.00  0.00    -0.076 C  
HETATM   22  C   UNL     1      -7.190   7.668  62.598  1.00  0.00    -0.085 C  
ENDBRANCH  20  21
ENDBRANCH  18  20
ENDBRANCH   5  16
BRANCH  14  23
HETATM   23  C   UNL     1     -11.070   6.834  69.730  1.00  0.00    -0.368 C  
HETATM   24  C   UNL     1     -10.544   8.047  69.521  1.00  0.00    -0.216 C  
BRANCH  24  25
HETATM   25  C   UNL     1     -11.382   9.237  69.738  1.00  0.00    -0.005 A  
HETATM   26  C   UNL     1     -11.906  11.507  69.230  1.00  0.00    -0.414 A  
HETATM   27  C   UNL     1     -11.397  10.273  68.822  1.00  0.00    -0.226 A  
HETATM   28  C   UNL     1     -12.355  11.704  70.547  1.00  0.00    -0.410 A  
HETATM   29  N   UNL     1     -11.948   9.348  70.966  1.00  0.00    -0.305 NA 
HETATM   30  C   UNL     1     -12.404  10.560  71.339  1.00  0.00    -0.372 A  
BRANCH  28  31
HETATM   31  C   UNL     1     -12.605  13.042  71.111  1.00  0.00    -0.388 A  
HETATM   32  C   UNL     1     -11.913  14.161  70.604  1.00  0.00    -0.385 A  
HETATM   33  C   UNL     1     -12.017  15.405  71.215  1.00  0.00    -0.374 A  
HETATM   34  C   UNL     1     -12.799  15.585  72.343  1.00  0.00    -0.495 A  
HETATM   35  F   UNL     1     -11.322  16.437  70.717  1.00  0.00    -0.380 F  
HETATM   36  C   UNL     1     -13.511  14.505  72.855  1.00  0.00    -0.525 A  
HETATM   37  C   UNL     1     -13.422  13.251  72.239  1.00  0.00    -0.679 A  
ENDBRANCH  28  31
ENDBRANCH  24  25
ENDBRANCH  14  23
TORSDOF 6
ENDMDL
MODEL       16
REMARK 921   NORMALIZED FREE ENERGY PREDICTED BY IDOCK:   -5.56 KCAL/MOL
REMARK 922        TOTAL FREE ENERGY PREDICTED BY IDOCK:   -8.87 KCAL/MOL
REMARK 923 INTER-LIGAND FREE ENERGY PREDICTED BY IDOCK:   -7.80 KCAL/MOL
REMARK 924 INTRA-LIGAND FREE ENERGY PREDICTED BY IDOCK:   -1.07 KCAL/MOL
REMARK 927      BINDING AFFINITY PREDICTED BY RF-SCORE:    0.00 PKD
ROOT
HETATM    1  C   UNL     1      -8.821  10.467  64.652  1.00  0.00    -0.216 C  
HETATM    2  C   UNL     1     -10.116  10.003  65.313  1.00  0.00    -0.299 C  
HETATM    3  C   UNL     1      -9.959   9.645  66.817  1.00  0.00    -0.289 C  
HETATM    4  C   UNL     1     -11.152  10.197  67.646  1.00  0.00    -0.275 C  
HETATM    5  C   UNL     1     -11.005  10.051  69.180  1.00  0.00    -0.220 C  
HETATM    6  C   UNL     1      -6.576  10.134  64.153  1.00  0.00    -0.113 C  
HETATM    7  C   UNL     1      -9.603  10.356  69.721  1.00  0.00    -0.067 C  
HETATM    8  C   UNL     1      -7.610   9.729  65.190  1.00  0.00    -0.125 C  
HETATM    9  C   UNL     1      -8.529   9.680  68.885  1.00  0.00    -0.125 C  
HETATM   10  C   UNL     1      -5.315   9.290  64.135  1.00  0.00    -0.060 C  
HETATM   11  O   UNL     1      -7.304  10.002  62.922  1.00  0.00    -0.123 OA 
HETATM   12  C   UNL     1      -8.666  10.199  67.448  1.00  0.00    -0.125 C  
HETATM   13  C   UNL     1      -8.640  10.202  63.182  1.00  0.00    -0.193 C  
HETATM   14  C   UNL     1      -7.341  10.068  66.648  1.00  0.00    -0.103 C  
HETATM   15  O   UNL     1      -9.515  10.206  62.340  1.00  0.00    -0.298 OA 
ENDROOT
BRANCH   5  16
HETATM   16  N   UNL     1     -11.961  10.907  69.861  1.00  0.00    -0.325 N  
HETATM   17  H   UNL     1     -12.274  11.760  69.397  1.00  0.00     0.000 HD 
HETATM   18  C   UNL     1     -12.454  10.612  71.094  1.00  0.00    -0.418 C  
HETATM   19  O   UNL     1     -12.239   9.582  71.713  1.00  0.00    -0.363 OA 
BRANCH  18  20
HETATM   20  O   UNL     1     -13.274  11.616  71.490  1.00  0.00    -0.363 OA 
BRANCH  20  21
HETATM   21  C   UNL     1     -12.664  12.913  71.481  1.00  0.00    -0.239 C  
HETATM   22  C   UNL     1     -13.459  13.813  72.413  1.00  0.00    -0.672 C  
ENDBRANCH  20  21
ENDBRANCH  18  20
ENDBRANCH   5  16
BRANCH  14  23
HETATM   23  C   UNL     1      -6.698  11.425  66.789  1.00  0.00    -0.137 C  
HETATM   24  C   UNL     1      -6.414  12.091  67.915  1.00  0.00    -0.072 C  
BRANCH  24  25
HETATM   25  C   UNL     1      -6.185  13.543  67.848  1.00  0.00    -0.153 A  
HETATM   26  C   UNL     1      -5.231  15.522  68.776  1.00  0.00    -0.100 A  
HETATM   27  C   UNL     1      -5.181  14.140  68.590  1.00  0.00    -0.091 A  
HETATM   28  C   UNL     1      -6.292  16.284  68.259  1.00  0.00    -0.126 A  
HETATM   29  N   UNL     1      -7.138  14.265  67.207  1.00  0.00    -0.156 NA 
HETATM   30  C   UNL     1      -7.175  15.594  67.431  1.00  0.00    -0.208 A  
BRANCH  28  31
HETATM   31  C   UNL     1      -6.558  17.670  68.682  1.00  0.00    -0.209 A  
HETATM   32  C   UNL     1      -7.533  18.436  68.012  1.00  0.00    -0.263 A  
HETATM   33  C   UNL     1      -7.699  19.788  68.291  1.00  0.00    -0.299 A  
HETATM   34  C   UNL     1      -6.909  20.425  69.233  1.00  0.00    -0.037 A  
HETATM   35  F   UNL     1      -8.618  20.486  67.613  1.00  0.00    -0.361 F  
HETATM   36  C   UNL     1      -5.953  19.691  69.927  1.00  0.00    -0.325 A  
HETATM   37  C   UNL     1      -5.787  18.327  69.661  1.00  0.00    -0.247 A  
ENDBRANCH  28  31
ENDBRANCH  24  25
ENDBRANCH  14  23
TORSDOF 6
ENDMDL
MODEL       17
REMARK 921   NORMALIZED FREE ENERGY PREDICTED BY IDOCK:   -5.55 KCAL/MOL
REMARK 922        TOTAL FREE ENERGY PREDICTED BY IDOCK:   -8.85 KCAL/MOL
REMARK 923 INTER-LIGAND FREE ENERGY PREDICTED BY IDOCK:   -8.01 KCAL/MOL
REMARK 924 INTRA-LIGAND FREE ENERGY PREDICTED BY IDOCK:   -0.84 KCAL/MOL
REMARK 927      BINDING AFFINITY PREDICTED BY RF-SCORE:    0.00 PKD
ROOT
HETATM    1  C   UNL     1      -7.762   7.317  70.872  1.00  0.00    -0.092 C  
HETATM    2  C   UNL     1      -7.349   6.331  69.782  1.00  0.00    -0.079 C  
HETATM    3  C   UNL     1      -8.525   5.861  68.883  1.00  0.00    -0.105 C  
HETATM    4  C   UNL     1      -8.101   5.827  67.388  1.00  0.00    -0.102 C  
HETATM    5  C   UNL     1      -9.249   5.545  66.389  1.00  0.00    -0.150 C  
HETATM    6  C   UNL     1      -9.126   7.892  72.664  1.00  0.00    -0.197 C  
HETATM    7  C   UNL     1     -10.565   6.265  66.706  1.00  0.00    -0.335 C  
HETATM    8  C   UNL     1      -9.139   7.006  71.429  1.00  0.00    -0.147 C  
HETATM    9  C   UNL     1     -10.922   6.142  68.178  1.00  0.00    -0.398 C  
HETATM   10  C   UNL     1     -10.191   7.575  73.696  1.00  0.00    -0.333 C  
HETATM   11  O   UNL     1      -7.810   7.667  73.193  1.00  0.00    -0.096 OA 
HETATM   12  C   UNL     1      -9.773   6.760  68.985  1.00  0.00    -0.145 C  
HETATM   13  C   UNL     1      -6.974   7.331  72.153  1.00  0.00    -0.063 C  
HETATM   14  C   UNL     1     -10.232   7.226  70.395  1.00  0.00    -0.200 C  
HETATM   15  O   UNL     1      -5.782   7.127  72.263  1.00  0.00    -0.037 OA 
ENDROOT
BRANCH   5  16
HETATM   16  N   UNL     1      -8.840   5.897  65.040  1.00  0.00    -0.363 N  
HETATM   17  H   UNL     1      -8.971   5.214  64.293  1.00  0.00     0.000 HD 
HETATM   18  C   UNL     1      -8.290   7.103  64.737  1.00  0.00     0.021 C  
HETATM   19  O   UNL     1      -8.168   8.038  65.512  1.00  0.00    -0.123 OA 
BRANCH  18  20
HETATM   20  O   UNL     1      -7.962   7.117  63.422  1.00  0.00    -0.122 OA 
BRANCH  20  21
HETATM   21  C   UNL     1      -7.156   6.009  63.002  1.00  0.00    -0.050 C  
HETATM   22  C   UNL     1      -5.697   6.417  63.120  1.00  0.00    -0.026 C  
ENDBRANCH  20  21
ENDBRANCH  18  20
ENDBRANCH   5  16
BRANCH  14  23
HETATM   23  C   UNL     1     -10.530   8.693  70.210  1.00  0.00    -0.229 C  
HETATM   24  C   UNL     1     -11.618   9.370  70.599  1.00  0.00    -0.330 C  
BRANCH  24  25
HETATM   25  C   UNL     1     -11.913  10.668  69.973  1.00  0.00    -0.329 A  
HETATM   26  C   UNL     1     -11.586  12.215  68.189  1.00  0.00    -0.397 A  
HETATM   27  C   UNL     1     -11.631  10.895  68.639  1.00  0.00    -0.373 A  
HETATM   28  C   UNL     1     -11.785  13.288  69.074  1.00  0.00    -0.368 A  
HETATM   29  N   UNL     1     -12.261  11.669  70.820  1.00  0.00    -0.375 NA 
HETATM   30  C   UNL     1     -12.180  12.934  70.362  1.00  0.00    -0.304 A  
BRANCH  28  31
HETATM   31  C   UNL     1     -11.446  14.679  68.728  1.00  0.00    -0.322 A  
HETATM   32  C   UNL     1     -11.224  15.037  67.383  1.00  0.00    -0.337 A  
HETATM   33  C   UNL     1     -10.759  16.302  67.044  1.00  0.00    -0.233 A  
HETATM   34  C   UNL     1     -10.493  17.250  68.018  1.00  0.00    -0.375 A  
HETATM   35  F   UNL     1     -10.535  16.593  65.756  1.00  0.00    -0.325 F  
HETATM   36  C   UNL     1     -10.723  16.935  69.353  1.00  0.00    -0.258 A  
HETATM   37  C   UNL     1     -11.203  15.667  69.702  1.00  0.00    -0.310 A  
ENDBRANCH  28  31
ENDBRANCH  24  25
ENDBRANCH  14  23
TORSDOF 6
ENDMDL
MODEL       18
REMARK 921   NORMALIZED FREE ENERGY PREDICTED BY IDOCK:   -5.54 KCAL/MOL
REMARK 922        TOTAL FREE ENERGY PREDICTED BY IDOCK:   -8.84 KCAL/MOL
REMARK 923 INTER-LIGAND FREE ENERGY PREDICTED BY IDOCK:   -7.49 KCAL/MOL
REMARK 924 INTRA-LIGAND FREE ENERGY PREDICTED BY IDOCK:   -1.35 KCAL/MOL
REMARK 927      BINDING AFFINITY PREDICTED BY RF-SCORE:    0.00 PKD
ROOT
HETATM    1  C   UNL     1     -11.204  13.097  69.227  1.00  0.00    -0.266 C  
HETATM    2  C   UNL     1     -11.446  11.729  69.859  1.00  0.00    -0.285 C  
HETATM    3  C   UNL     1     -10.762  10.558  69.101  1.00  0.00    -0.266 C  
HETATM    4  C   UNL     1     -10.110   9.559  70.098  1.00  0.00    -0.293 C  
HETATM    5  C   UNL     1      -9.248   8.452  69.444  1.00  0.00    -0.154 C  
HETATM    6  C   UNL     1     -11.247  14.505  67.379  1.00  0.00    -0.327 C  
HETATM    7  C   UNL     1      -8.366   8.929  68.283  1.00  0.00    -0.125 C  
HETATM    8  C   UNL     1     -11.156  13.026  67.713  1.00  0.00    -0.291 C  
HETATM    9  C   UNL     1      -9.143   9.816  67.326  1.00  0.00    -0.150 C  
HETATM   10  C   UNL     1     -11.608  14.821  65.940  1.00  0.00    -0.286 C  
HETATM   11  O   UNL     1     -12.267  14.964  68.281  1.00  0.00    -0.170 OA 
HETATM   12  C   UNL     1      -9.660  11.018  68.126  1.00  0.00    -0.175 C  
HETATM   13  C   UNL     1     -12.262  14.153  69.393  1.00  0.00    -0.287 C  
HETATM   14  C   UNL     1      -9.946  12.248  67.220  1.00  0.00    -0.210 C  
HETATM   15  O   UNL     1     -12.974  14.309  70.364  1.00  0.00    -0.302 OA 
ENDROOT
BRANCH   5  16
HETATM   16  N   UNL     1      -8.402   7.817  70.439  1.00  0.00    -0.121 N  
HETATM   17  H   UNL     1      -7.500   8.240  70.658  1.00  0.00     0.000 HD 
HETATM   18  C   UNL     1      -8.769   6.681  71.090  1.00  0.00    -0.137 C  
HETATM   19  O   UNL     1      -9.855   6.132  70.994  1.00  0.00    -0.178 OA 
BRANCH  18  20
HETATM   20  O   UNL     1      -7.760   6.299  71.910  1.00  0.00    -0.095 OA 
BRANCH  20  21
HETATM   21  C   UNL     1      -7.550   7.168  73.031  1.00  0.00    -0.079 C  
HETATM   22  C   UNL     1      -8.707   6.976  73.997  1.00  0.00    -0.200 C  
ENDBRANCH  20  21
ENDBRANCH  18  20
ENDBRANCH   5  16
BRANCH  14  23
HETATM   23  C   UNL     1      -8.685  13.069  67.318  1.00  0.00    -0.209 C  
HETATM   24  C   UNL     1      -7.741  13.023  68.267  1.00  0.00    -0.141 C  
BRANCH  24  25
HETATM   25  C   UNL     1      -6.824  14.164  68.418  1.00  0.00    -0.098 A  
HETATM   26  C   UNL     1      -5.648  15.688  69.825  1.00  0.00    -0.123 A  
HETATM   27  C   UNL     1      -6.206  14.424  69.627  1.00  0.00    -0.126 A  
HETATM   28  C   UNL     1      -5.746  16.684  68.839  1.00  0.00    -0.140 A  
HETATM   29  N   UNL     1      -6.802  15.047  67.388  1.00  0.00    -0.242 NA 
HETATM   30  C   UNL     1      -6.281  16.269  67.622  1.00  0.00    -0.148 A  
BRANCH  28  31
HETATM   31  C   UNL     1      -5.459  18.104  69.109  1.00  0.00    -0.200 A  
HETATM   32  C   UNL     1      -5.408  18.572  70.437  1.00  0.00    -0.244 A  
HETATM   33  C   UNL     1      -5.288  19.928  70.716  1.00  0.00    -0.248 A  
HETATM   34  C   UNL     1      -5.220  20.863  69.697  1.00  0.00    -0.410 A  
HETATM   35  F   UNL     1      -5.271  20.334  71.992  1.00  0.00    -0.335 F  
HETATM   36  C   UNL     1      -5.246  20.431  68.375  1.00  0.00    -0.251 A  
HETATM   37  C   UNL     1      -5.354  19.066  68.086  1.00  0.00    -0.176 A  
ENDBRANCH  28  31
ENDBRANCH  24  25
ENDBRANCH  14  23
TORSDOF 6
ENDMDL
MODEL       19
REMARK 921   NORMALIZED FREE ENERGY PREDICTED BY IDOCK:   -5.52 KCAL/MOL
REMARK 922        TOTAL FREE ENERGY PREDICTED BY IDOCK:   -8.81 KCAL/MOL
REMARK 923 INTER-LIGAND FREE ENERGY PREDICTED BY IDOCK:   -7.94 KCAL/MOL
REMARK 924 INTRA-LIGAND FREE ENERGY PREDICTED BY IDOCK:   -0.87 KCAL/MOL
REMARK 927      BINDING AFFINITY PREDICTED BY RF-SCORE:    0.00 PKD
ROOT
HETATM    1  C   UNL     1      -8.904   3.543  65.900  1.00  0.00    -0.128 C  
HETATM    2  C   UNL     1      -9.394   3.109  67.278  1.00  0.00    -0.217 C  
HETATM    3  C   UNL     1      -8.705   3.857  68.453  1.00  0.00    -0.129 C  
HETATM    4  C   UNL     1      -9.742   4.251  69.543  1.00  0.00    -0.272 C  
HETATM    5  C   UNL     1      -9.192   5.157  70.671  1.00  0.00    -0.147 C  
HETATM    6  C   UNL     1      -7.170   3.930  64.401  1.00  0.00    -0.058 C  
HETATM    7  C   UNL     1      -8.247   6.268  70.196  1.00  0.00    -0.121 C  
HETATM    8  C   UNL     1      -7.423   3.872  65.898  1.00  0.00    -0.081 C  
HETATM    9  C   UNL     1      -7.219   5.737  69.212  1.00  0.00    -0.066 C  
HETATM   10  C   UNL     1      -5.711   3.866  63.990  1.00  0.00    -0.014 C  
HETATM   11  O   UNL     1      -7.893   2.786  63.921  1.00  0.00    -0.074 OA 
HETATM   12  C   UNL     1      -7.982   5.147  68.019  1.00  0.00    -0.091 C  
HETATM   13  C   UNL     1      -8.935   2.534  64.784  1.00  0.00    -0.125 C  
HETATM   14  C   UNL     1      -7.116   5.108  66.730  1.00  0.00    -0.069 C  
HETATM   15  O   UNL     1      -9.764   1.662  64.630  1.00  0.00    -0.081 OA 
ENDROOT
BRANCH   5  16
HETATM   16  N   UNL     1     -10.286   5.761  71.409  1.00  0.00    -0.215 N  
HETATM   17  H   UNL     1     -10.257   5.749  72.429  1.00  0.00     0.000 HD 
HETATM   18  C   UNL     1     -11.349   6.343  70.791  1.00  0.00    -0.350 C  
HETATM   19  O   UNL     1     -11.460   6.511  69.587  1.00  0.00    -0.382 OA 
BRANCH  18  20
HETATM   20  O   UNL     1     -12.228   6.765  71.733  1.00  0.00    -0.333 OA 
BRANCH  20  21
HETATM   21  C   UNL     1     -11.942   8.063  72.268  1.00  0.00    -0.358 C  
HETATM   22  C   UNL     1     -13.218   8.887  72.209  1.00  0.00    -0.498 C  
ENDBRANCH  20  21
ENDBRANCH  18  20
ENDBRANCH   5  16
BRANCH  14  23
HETATM   23  C   UNL     1      -7.497   6.372  66.001  1.00  0.00    -0.082 C  
HETATM   24  C   UNL     1      -6.722   7.425  65.712  1.00  0.00    -0.052 C  
BRANCH  24  25
HETATM   25  C   UNL     1      -7.357   8.711  65.381  1.00  0.00    -0.084 A  
HETATM   26  C   UNL     1      -8.299  10.784  66.088  1.00  0.00    -0.166 A  
HETATM   27  C   UNL     1      -7.394   9.743  66.301  1.00  0.00    -0.099 A  
HETATM   28  C   UNL     1      -9.176  10.766  64.992  1.00  0.00    -0.241 A  
HETATM   29  N   UNL     1      -8.079   8.738  64.233  1.00  0.00    -0.150 NA 
HETATM   30  C   UNL     1      -8.964   9.742  64.072  1.00  0.00    -0.240 A  
BRANCH  28  31
HETATM   31  C   UNL     1     -10.343  11.660  64.891  1.00  0.00    -0.331 A  
HETATM   32  C   UNL     1     -10.810  12.342  66.033  1.00  0.00    -0.310 A  
HETATM   33  C   UNL     1     -11.993  13.071  66.000  1.00  0.00    -0.440 A  
HETATM   34  C   UNL     1     -12.753  13.147  64.846  1.00  0.00    -0.421 A  
HETATM   35  F   UNL     1     -12.415  13.681  67.115  1.00  0.00    -0.383 F  
HETATM   36  C   UNL     1     -12.308  12.504  63.696  1.00  0.00    -0.618 A  
HETATM   37  C   UNL     1     -11.112  11.777  63.717  1.00  0.00    -0.513 A  
ENDBRANCH  28  31
ENDBRANCH  24  25
ENDBRANCH  14  23
TORSDOF 6
ENDMDL
MODEL       20
REMARK 921   NORMALIZED FREE ENERGY PREDICTED BY IDOCK:   -5.51 KCAL/MOL
REMARK 922        TOTAL FREE ENERGY PREDICTED BY IDOCK:   -8.80 KCAL/MOL
REMARK 923 INTER-LIGAND FREE ENERGY PREDICTED BY IDOCK:   -8.19 KCAL/MOL
REMARK 924 INTRA-LIGAND FREE ENERGY PREDICTED BY IDOCK:   -0.60 KCAL/MOL
REMARK 927      BINDING AFFINITY PREDICTED BY RF-SCORE:    0.00 PKD
ROOT
HETATM    1  C   UNL     1      -8.821   6.222  66.879  1.00  0.00    -0.115 C  
HETATM    2  C   UNL     1      -8.572   5.148  67.935  1.00  0.00    -0.103 C  
HETATM    3  C   UNL     1      -7.970   5.697  69.258  1.00  0.00    -0.096 C  
HETATM    4  C   UNL     1      -8.650   5.040  70.492  1.00  0.00    -0.121 C  
HETATM    5  C   UNL     1      -8.250   5.646  71.859  1.00  0.00    -0.119 C  
HETATM    6  C   UNL     1      -8.064   7.999  65.587  1.00  0.00    -0.121 C  
HETATM    7  C   UNL     1      -8.145   7.176  71.874  1.00  0.00    -0.097 C  
HETATM    8  C   UNL     1      -7.756   7.302  66.902  1.00  0.00    -0.110 C  
HETATM    9  C   UNL     1      -7.374   7.690  70.671  1.00  0.00    -0.067 C  
HETATM   10  C   UNL     1      -6.968   8.911  65.068  1.00  0.00    -0.073 C  
HETATM   11  O   UNL     1      -8.284   6.895  64.696  1.00  0.00    -0.111 OA 
HETATM   12  C   UNL     1      -8.116   7.224  69.412  1.00  0.00    -0.130 C  
HETATM   13  C   UNL     1      -8.742   5.825  65.431  1.00  0.00    -0.119 C  
HETATM   14  C   UNL     1      -7.807   8.122  68.182  1.00  0.00    -0.122 C  
HETATM   15  O   UNL     1      -9.069   4.754  64.962  1.00  0.00    -0.154 OA 
ENDROOT
BRANCH   5  16
HETATM   16  N   UNL     1      -9.191   5.235  72.886  1.00  0.00    -0.132 N  
HETATM   17  H   UNL     1      -8.838   4.738  73.705  1.00  0.00     0.000 HD 
HETATM   18  C   UNL     1     -10.524   5.488  72.797  1.00  0.00    -0.212 C  
HETATM   19  O   UNL     1     -11.060   6.153  71.925  1.00  0.00    -0.250 OA 
BRANCH  18  20
HETATM   20  O   UNL     1     -11.148   4.938  73.868  1.00  0.00    -0.295 OA 
BRANCH  20  21
HETATM   21  C   UNL     1     -10.546   3.728  74.343  1.00  0.00    -0.182 C  
HETATM   22  C   UNL     1     -11.210   2.561  73.631  1.00  0.00    -0.318 C  
ENDBRANCH  20  21
ENDBRANCH  18  20
ENDBRANCH   5  16
BRANCH  14  23
HETATM   23  C   UNL     1      -8.947   9.109  68.160  1.00  0.00    -0.129 C  
HETATM   24  C   UNL     1      -8.910  10.406  67.830  1.00  0.00    -0.125 C  
BRANCH  24  25
HETATM   25  C   UNL     1     -10.005  11.286  68.266  1.00  0.00    -0.195 A  
HETATM   26  C   UNL     1     -10.806  13.468  68.797  1.00  0.00    -0.279 A  
HETATM   27  C   UNL     1      -9.943  12.653  68.063  1.00  0.00    -0.220 A  
HETATM   28  C   UNL     1     -11.687  12.922  69.745  1.00  0.00    -0.351 A  
HETATM   29  N   UNL     1     -10.946  10.714  69.058  1.00  0.00    -0.229 NA 
HETATM   30  C   UNL     1     -11.745  11.530  69.774  1.00  0.00    -0.353 A  
BRANCH  28  31
HETATM   31  C   UNL     1     -12.383  13.742  70.752  1.00  0.00    -0.451 A  
HETATM   32  C   UNL     1     -11.876  15.010  71.100  1.00  0.00    -0.382 A  
HETATM   33  C   UNL     1     -12.424  15.739  72.149  1.00  0.00    -0.455 A  
HETATM   34  C   UNL     1     -13.483  15.239  72.889  1.00  0.00    -0.611 A  
HETATM   35  F   UNL     1     -11.896  16.928  72.465  1.00  0.00    -0.555 F  
HETATM   36  C   UNL     1     -14.019  13.999  72.557  1.00  0.00    -0.553 A  
HETATM   37  C   UNL     1     -13.481  13.265  71.494  1.00  0.00    -0.257 A  
ENDBRANCH  28  31
ENDBRANCH  24  25
ENDBRANCH  14  23
TORSDOF 6
ENDMDL
MODEL       21
REMARK 921   NORMALIZED FREE ENERGY PREDICTED BY IDOCK:   -5.51 KCAL/MOL
REMARK 922        TOTAL FREE ENERGY PREDICTED BY IDOCK:   -8.80 KCAL/MOL
REMARK 923 INTER-LIGAND FREE ENERGY PREDICTED BY IDOCK:   -7.87 KCAL/MOL
REMARK 924 INTRA-LIGAND FREE ENERGY PREDICTED BY IDOCK:   -0.93 KCAL/MOL
REMARK 927      BINDING AFFINITY PREDICTED BY RF-SCORE:    0.00 PKD
ROOT
HETATM    1  C   UNL     1      -8.833   3.642  66.237  1.00  0.00    -0.128 C  
HETATM    2  C   UNL     1      -9.358   3.190  67.596  1.00  0.00    -0.247 C  
HETATM    3  C   UNL     1      -8.744   3.965  68.795  1.00  0.00    -0.135 C  
HETATM    4  C   UNL     1      -9.836   4.319  69.844  1.00  0.00    -0.267 C  
HETATM    5  C   UNL     1      -9.365   5.246  70.990  1.00  0.00    -0.150 C  
HETATM    6  C   UNL     1      -7.060   4.095  64.804  1.00  0.00    -0.058 C  
HETATM    7  C   UNL     1      -8.447   6.393  70.549  1.00  0.00    -0.138 C  
HETATM    8  C   UNL     1      -7.367   4.028  66.291  1.00  0.00    -0.079 C  
HETATM    9  C   UNL     1      -7.362   5.902  69.606  1.00  0.00    -0.075 C  
HETATM   10  C   UNL     1      -5.585   4.087  64.449  1.00  0.00    -0.014 C  
HETATM   11  O   UNL     1      -7.720   2.924  64.299  1.00  0.00    -0.074 OA 
HETATM   12  C   UNL     1      -8.055   5.282  68.387  1.00  0.00    -0.091 C  
HETATM   13  C   UNL     1      -8.783   2.633  65.123  1.00  0.00    -0.113 C  
HETATM   14  C   UNL     1      -7.140   5.276  67.131  1.00  0.00    -0.070 C  
HETATM   15  O   UNL     1      -9.572   1.728  64.939  1.00  0.00    -0.073 OA 
ENDROOT
BRANCH   5  16
HETATM   16  N   UNL     1     -10.509   5.809  71.685  1.00  0.00    -0.224 N  
HETATM   17  H   UNL     1     -10.552   5.733  72.702  1.00  0.00     0.000 HD 
HETATM   18  C   UNL     1     -11.525   6.432  71.031  1.00  0.00    -0.334 C  
HETATM   19  O   UNL     1     -11.551   6.674  69.834  1.00  0.00    -0.371 OA 
BRANCH  18  20
HETATM   20  O   UNL     1     -12.469   6.798  71.932  1.00  0.00    -0.346 OA 
BRANCH  20  21
HETATM   21  C   UNL     1     -13.533   7.587  71.385  1.00  0.00    -0.317 C  
HETATM   22  C   UNL     1     -13.521   8.939  72.079  1.00  0.00    -0.482 C  
ENDBRANCH  20  21
ENDBRANCH  18  20
ENDBRANCH   5  16
BRANCH  14  23
HETATM   23  C   UNL     1      -7.542   6.524  66.386  1.00  0.00    -0.090 C  
HETATM   24  C   UNL     1      -6.816   7.629  66.175  1.00  0.00    -0.061 C  
BRANCH  24  25
HETATM   25  C   UNL     1      -7.505   8.876  65.805  1.00  0.00    -0.089 A  
HETATM   26  C   UNL     1      -8.380  11.006  66.423  1.00  0.00    -0.165 A  
HETATM   27  C   UNL     1      -7.441   9.992  66.619  1.00  0.00    -0.104 A  
HETATM   28  C   UNL     1      -9.387  10.881  65.451  1.00  0.00    -0.240 A  
HETATM   29  N   UNL     1      -8.364   8.791  64.758  1.00  0.00    -0.162 NA 
HETATM   30  C   UNL     1      -9.276   9.773  64.614  1.00  0.00    -0.255 A  
BRANCH  28  31
HETATM   31  C   UNL     1     -10.570  11.759  65.412  1.00  0.00    -0.325 A  
HETATM   32  C   UNL     1     -11.116  12.151  64.173  1.00  0.00    -0.424 A  
HETATM   33  C   UNL     1     -12.135  13.094  64.104  1.00  0.00    -0.430 A  
HETATM   34  C   UNL     1     -12.642  13.682  65.250  1.00  0.00    -0.512 A  
HETATM   35  F   UNL     1     -12.608  13.458  62.905  1.00  0.00    -0.446 F  
HETATM   36  C   UNL     1     -12.138  13.301  66.490  1.00  0.00    -0.435 A  
HETATM   37  C   UNL     1     -11.121  12.343  66.569  1.00  0.00    -0.346 A  
ENDBRANCH  28  31
ENDBRANCH  24  25
ENDBRANCH  14  23
TORSDOF 6
ENDMDL
MODEL       22
REMARK 921   NORMALIZED FREE ENERGY PREDICTED BY IDOCK:   -5.49 KCAL/MOL
REMARK 922        TOTAL FREE ENERGY PREDICTED BY IDOCK:   -8.78 KCAL/MOL
REMARK 923 INTER-LIGAND FREE ENERGY PREDICTED BY IDOCK:   -7.75 KCAL/MOL
REMARK 924 INTRA-LIGAND FREE ENERGY PREDICTED BY IDOCK:   -1.03 KCAL/MOL
REMARK 927      BINDING AFFINITY PREDICTED BY RF-SCORE:    0.00 PKD
ROOT
HETATM    1  C   UNL     1      -9.182   7.120  71.246  1.00  0.00    -0.151 C  
HETATM    2  C   UNL     1      -8.807   5.785  70.608  1.00  0.00    -0.145 C  
HETATM    3  C   UNL     1      -9.609   5.459  69.319  1.00  0.00    -0.198 C  
HETATM    4  C   UNL     1      -8.679   4.867  68.222  1.00  0.00    -0.109 C  
HETATM    5  C   UNL     1      -9.342   4.673  66.837  1.00  0.00    -0.140 C  
HETATM    6  C   UNL     1     -10.785   8.576  72.090  1.00  0.00    -0.356 C  
HETATM    7  C   UNL     1     -10.261   5.821  66.402  1.00  0.00    -0.192 C  
HETATM    8  C   UNL     1     -10.663   7.420  71.111  1.00  0.00    -0.246 C  
HETATM    9  C   UNL     1     -11.190   6.243  67.528  1.00  0.00    -0.234 C  
HETATM   10  C   UNL     1     -12.201   8.912  72.518  1.00  0.00    -0.299 C  
HETATM   11  O   UNL     1     -10.002   8.122  73.204  1.00  0.00    -0.282 OA 
HETATM   12  C   UNL     1     -10.315   6.685  68.708  1.00  0.00    -0.214 C  
HETATM   13  C   UNL     1      -9.035   7.262  72.736  1.00  0.00    -0.135 C  
HETATM   14  C   UNL     1     -11.064   7.655  69.663  1.00  0.00    -0.074 C  
HETATM   15  O   UNL     1      -8.180   6.744  73.424  1.00  0.00    -0.112 OA 
ENDROOT
BRANCH   5  16
HETATM   16  N   UNL     1      -8.327   4.479  65.816  1.00  0.00    -0.113 N  
HETATM   17  H   UNL     1      -7.619   5.201  65.684  1.00  0.00     0.000 HD 
HETATM   18  C   UNL     1      -8.288   3.370  65.030  1.00  0.00    -0.097 C  
HETATM   19  O   UNL     1      -9.012   2.394  65.149  1.00  0.00    -0.120 OA 
BRANCH  18  20
HETATM   20  O   UNL     1      -7.273   3.497  64.141  1.00  0.00    -0.056 OA 
BRANCH  20  21
HETATM   21  C   UNL     1      -7.319   4.700  63.363  1.00  0.00    -0.053 C  
HETATM   22  C   UNL     1      -8.502   4.601  62.414  1.00  0.00    -0.101 C  
ENDBRANCH  20  21
ENDBRANCH  18  20
ENDBRANCH   5  16
BRANCH  14  23
HETATM   23  C   UNL     1     -10.644   9.024  69.189  1.00  0.00    -0.219 C  
HETATM   24  C   UNL     1     -11.406  10.114  69.034  1.00  0.00    -0.188 C  
BRANCH  24  25
HETATM   25  C   UNL     1     -10.920  11.210  68.181  1.00  0.00    -0.238 A  
HETATM   26  C   UNL     1      -9.433  13.040  67.827  1.00  0.00    -0.209 A  
HETATM   27  C   UNL     1      -9.690  11.798  68.410  1.00  0.00    -0.197 A  
HETATM   28  C   UNL     1     -10.411  13.694  67.060  1.00  0.00    -0.260 A  
HETATM   29  N   UNL     1     -11.827  11.740  67.322  1.00  0.00    -0.624 NA 
HETATM   30  C   UNL     1     -11.561  12.953  66.799  1.00  0.00    -0.360 A  
BRANCH  28  31
HETATM   31  C   UNL     1     -10.312  15.117  66.689  1.00  0.00    -0.274 A  
HETATM   32  C   UNL     1     -10.005  16.081  67.670  1.00  0.00    -0.239 A  
HETATM   33  C   UNL     1     -10.053  17.440  67.380  1.00  0.00    -0.321 A  
HETATM   34  C   UNL     1     -10.407  17.890  66.120  1.00  0.00    -0.352 A  
HETATM   35  F   UNL     1      -9.781  18.324  68.349  1.00  0.00    -0.290 F  
HETATM   36  C   UNL     1     -10.694  16.962  65.123  1.00  0.00    -0.118 A  
HETATM   37  C   UNL     1     -10.637  15.592  65.403  1.00  0.00    -0.428 A  
ENDBRANCH  28  31
ENDBRANCH  24  25
ENDBRANCH  14  23
TORSDOF 6
ENDMDL
MODEL       23
REMARK 921   NORMALIZED FREE ENERGY PREDICTED BY IDOCK:   -5.46 KCAL/MOL
REMARK 922        TOTAL FREE ENERGY PREDICTED BY IDOCK:   -8.73 KCAL/MOL
REMARK 923 INTER-LIGAND FREE ENERGY PREDICTED BY IDOCK:   -7.36 KCAL/MOL
REMARK 924 INTRA-LIGAND FREE ENERGY PREDICTED BY IDOCK:   -1.37 KCAL/MOL
REMARK 927      BINDING AFFINITY PREDICTED BY RF-SCORE:    0.00 PKD
ROOT
HETATM    1  C   UNL     1     -10.829  13.737  66.244  1.00  0.00    -0.283 C  
HETATM    2  C   UNL     1     -10.662  15.189  65.804  1.00  0.00    -0.359 C  
HETATM    3  C   UNL     1      -9.803  16.044  66.775  1.00  0.00    -0.260 C  
HETATM    4  C   UNL     1      -8.823  16.960  65.989  1.00  0.00    -0.194 C  
HETATM    5  C   UNL     1      -7.797  17.722  66.863  1.00  0.00    -0.224 C  
HETATM    6  C   UNL     1     -11.415  12.170  67.857  1.00  0.00    -0.328 C  
HETATM    7  C   UNL     1      -7.190  16.897  68.004  1.00  0.00    -0.168 C  
HETATM    8  C   UNL     1     -10.933  13.607  67.752  1.00  0.00    -0.276 C  
HETATM    9  C   UNL     1      -8.260  16.126  68.758  1.00  0.00    -0.216 C  
HETATM   10  C   UNL     1     -11.998  11.782  69.202  1.00  0.00    -0.356 C  
HETATM   11  O   UNL     1     -12.409  12.101  66.823  1.00  0.00    -0.429 OA 
HETATM   12  C   UNL     1      -8.960  15.203  67.753  1.00  0.00    -0.178 C  
HETATM   13  C   UNL     1     -12.086  13.014  65.845  1.00  0.00    -0.444 C  
HETATM   14  C   UNL     1      -9.633  13.984  68.445  1.00  0.00    -0.222 C  
HETATM   15  O   UNL     1     -12.702  13.166  64.811  1.00  0.00    -0.648 OA 
ENDROOT
BRANCH   5  16
HETATM   16  N   UNL     1      -6.719  18.238  66.038  1.00  0.00    -0.242 N  
HETATM   17  H   UNL     1      -6.144  17.579  65.512  1.00  0.00     0.000 HD 
HETATM   18  C   UNL     1      -6.447  19.567  65.942  1.00  0.00    -0.215 C  
HETATM   19  O   UNL     1      -7.113  20.462  66.438  1.00  0.00    -0.260 OA 
BRANCH  18  20
HETATM   20  O   UNL     1      -5.359  19.737  65.152  1.00  0.00    -0.158 OA 
BRANCH  20  21
HETATM   21  C   UNL     1      -5.466  19.123  63.861  1.00  0.00    -0.294 C  
HETATM   22  C   UNL     1      -5.659  20.224  62.832  1.00  0.00    -0.293 C  
ENDBRANCH  20  21
ENDBRANCH  18  20
ENDBRANCH   5  16
BRANCH  14  23
HETATM   23  C   UNL     1      -8.604  12.888  68.324  1.00  0.00    -0.170 C  
HETATM   24  C   UNL     1      -7.687  12.719  67.363  1.00  0.00    -0.165 C  
BRANCH  24  25
HETATM   25  C   UNL     1      -7.069  11.395  67.190  1.00  0.00    -0.134 A  
HETATM   26  C   UNL     1      -6.182   9.708  65.757  1.00  0.00    -0.066 A  
HETATM   27  C   UNL     1      -6.427  11.058  66.013  1.00  0.00    -0.046 A  
HETATM   28  C   UNL     1      -6.611   8.714  66.652  1.00  0.00    -0.060 A  
HETATM   29  N   UNL     1      -7.358  10.476  68.146  1.00  0.00    -0.087 NA 
HETATM   30  C   UNL     1      -7.136   9.178  67.855  1.00  0.00    -0.079 A  
BRANCH  28  31
HETATM   31  C   UNL     1      -6.659   7.285  66.292  1.00  0.00    -0.052 A  
HETATM   32  C   UNL     1      -7.861   6.717  65.823  1.00  0.00    -0.102 A  
HETATM   33  C   UNL     1      -7.975   5.348  65.619  1.00  0.00    -0.107 A  
HETATM   34  C   UNL     1      -6.914   4.496  65.875  1.00  0.00    -0.063 A  
HETATM   35  F   UNL     1      -9.143   4.845  65.198  1.00  0.00    -0.146 F  
HETATM   36  C   UNL     1      -5.708   5.029  66.319  1.00  0.00    -0.018 A  
HETATM   37  C   UNL     1      -5.580   6.409  66.515  1.00  0.00    -0.013 A  
ENDBRANCH  28  31
ENDBRANCH  24  25
ENDBRANCH  14  23
TORSDOF 6
ENDMDL
MODEL       24
REMARK 921   NORMALIZED FREE ENERGY PREDICTED BY IDOCK:   -5.46 KCAL/MOL
REMARK 922        TOTAL FREE ENERGY PREDICTED BY IDOCK:   -8.73 KCAL/MOL
REMARK 923 INTER-LIGAND FREE ENERGY PREDICTED BY IDOCK:   -7.32 KCAL/MOL
REMARK 924 INTRA-LIGAND FREE ENERGY PREDICTED BY IDOCK:   -1.40 KCAL/MOL
REMARK 927      BINDING AFFINITY PREDICTED BY RF-SCORE:    0.00 PKD
ROOT
HETATM    1  C   UNL     1      -8.232   7.995  66.002  1.00  0.00    -0.120 C  
HETATM    2  C   UNL     1      -8.086   6.480  66.124  1.00  0.00    -0.118 C  
HETATM    3  C   UNL     1      -7.548   6.012  67.504  1.00  0.00    -0.090 C  
HETATM    4  C   UNL     1      -8.326   4.764  68.008  1.00  0.00    -0.102 C  
HETATM    5  C   UNL     1      -7.991   4.323  69.454  1.00  0.00    -0.060 C  
HETATM    6  C   UNL     1      -7.334  10.131  66.177  1.00  0.00    -0.115 C  
HETATM    7  C   UNL     1      -7.834   5.476  70.453  1.00  0.00    -0.101 C  
HETATM    8  C   UNL     1      -7.133   8.735  66.741  1.00  0.00    -0.081 C  
HETATM    9  C   UNL     1      -6.972   6.589  69.882  1.00  0.00    -0.066 C  
HETATM   10  C   UNL     1      -6.177  11.088  66.394  1.00  0.00    -0.136 C  
HETATM   11  O   UNL     1      -7.537   9.874  64.778  1.00  0.00    -0.128 OA 
HETATM   12  C   UNL     1      -7.651   7.090  68.602  1.00  0.00    -0.108 C  
HETATM   13  C   UNL     1      -8.077   8.615  64.641  1.00  0.00    -0.156 C  
HETATM   14  C   UNL     1      -7.234   8.544  68.247  1.00  0.00    -0.086 C  
HETATM   15  O   UNL     1      -8.411   8.119  63.584  1.00  0.00    -0.047 OA 
ENDROOT
BRANCH   5  16
HETATM   16  N   UNL     1      -9.008   3.413  69.951  1.00  0.00    -0.093 N  
HETATM   17  H   UNL     1      -9.987   3.605  69.737  1.00  0.00     0.000 HD 
HETATM   18  C   UNL     1      -8.702   2.314  70.691  1.00  0.00    -0.058 C  
HETATM   19  O   UNL     1      -7.573   1.918  70.935  1.00  0.00    -0.033 OA 
BRANCH  18  20
HETATM   20  O   UNL     1      -9.852   1.696  71.056  1.00  0.00    -0.123 OA 
BRANCH  20  21
HETATM   21  C   UNL     1      -9.985   1.483  72.467  1.00  0.00    -0.111 C  
HETATM   22  C   UNL     1     -10.909   2.556  73.019  1.00  0.00    -0.209 C  
ENDBRANCH  20  21
ENDBRANCH  18  20
ENDBRANCH   5  16
BRANCH  14  23
HETATM   23  C   UNL     1      -8.335   9.389  68.837  1.00  0.00    -0.120 C  
HETATM   24  C   UNL     1      -9.625   9.068  69.001  1.00  0.00    -0.160 C  
BRANCH  24  25
HETATM   25  C   UNL     1     -10.609  10.144  69.196  1.00  0.00    -0.224 A  
HETATM   26  C   UNL     1     -11.203  12.447  69.028  1.00  0.00    -0.320 A  
HETATM   27  C   UNL     1     -10.474  11.358  68.548  1.00  0.00    -0.223 A  
HETATM   28  C   UNL     1     -12.021  12.326  70.163  1.00  0.00    -0.377 A  
HETATM   29  N   UNL     1     -11.505   9.954  70.197  1.00  0.00    -0.256 NA 
HETATM   30  C   UNL     1     -12.171  11.032  70.656  1.00  0.00    -0.385 A  
BRANCH  28  31
HETATM   31  C   UNL     1     -12.556  13.492  70.888  1.00  0.00    -0.414 A  
HETATM   32  C   UNL     1     -11.898  14.736  70.806  1.00  0.00    -0.370 A  
HETATM   33  C   UNL     1     -12.293  15.810  71.594  1.00  0.00    -0.457 A  
HETATM   34  C   UNL     1     -13.343  15.692  72.489  1.00  0.00    -0.604 A  
HETATM   35  F   UNL     1     -11.624  16.966  71.506  1.00  0.00    -0.354 F  
HETATM   36  C   UNL     1     -14.027  14.483  72.577  1.00  0.00    -0.510 A  
HETATM   37  C   UNL     1     -13.644  13.400  71.778  1.00  0.00    -0.407 A  
ENDBRANCH  28  31
ENDBRANCH  24  25
ENDBRANCH  14  23
TORSDOF 6
ENDMDL
MODEL       25
REMARK 921   NORMALIZED FREE ENERGY PREDICTED BY IDOCK:   -5.41 KCAL/MOL
REMARK 922        TOTAL FREE ENERGY PREDICTED BY IDOCK:   -8.66 KCAL/MOL
REMARK 923 INTER-LIGAND FREE ENERGY PREDICTED BY IDOCK:   -7.76 KCAL/MOL
REMARK 924 INTRA-LIGAND FREE ENERGY PREDICTED BY IDOCK:   -0.90 KCAL/MOL
REMARK 927      BINDING AFFINITY PREDICTED BY RF-SCORE:    0.00 PKD
ROOT
HETATM    1  C   UNL     1      -9.606   4.515  65.191  1.00  0.00    -0.167 C  
HETATM    2  C   UNL     1      -9.770   3.666  66.449  1.00  0.00    -0.096 C  
HETATM    3  C   UNL     1      -8.782   4.039  67.589  1.00  0.00    -0.118 C  
HETATM    4  C   UNL     1      -9.505   4.052  68.966  1.00  0.00    -0.243 C  
HETATM    5  C   UNL     1      -8.655   4.585  70.145  1.00  0.00    -0.077 C  
HETATM    6  C   UNL     1      -8.269   5.390  63.504  1.00  0.00    -0.121 C  
HETATM    7  C   UNL     1      -7.800   5.814  69.813  1.00  0.00    -0.095 C  
HETATM    8  C   UNL     1      -8.155   4.870  64.927  1.00  0.00    -0.112 C  
HETATM    9  C   UNL     1      -7.067   5.638  68.495  1.00  0.00    -0.070 C  
HETATM   10  C   UNL     1      -6.957   5.496  62.749  1.00  0.00    -0.036 C  
HETATM   11  O   UNL     1      -9.142   4.427  62.892  1.00  0.00    -0.126 OA 
HETATM   12  C   UNL     1      -8.123   5.420  67.404  1.00  0.00    -0.101 C  
HETATM   13  C   UNL     1      -9.955   3.895  63.866  1.00  0.00    -0.180 C  
HETATM   14  C   UNL     1      -7.597   5.801  65.993  1.00  0.00    -0.087 C  
HETATM   15  O   UNL     1     -10.839   3.088  63.663  1.00  0.00    -0.246 OA 
ENDROOT
BRANCH   5  16
HETATM   16  N   UNL     1      -9.508   4.904  71.276  1.00  0.00    -0.149 N  
HETATM   17  H   UNL     1      -9.234   4.581  72.205  1.00  0.00     0.000 HD 
HETATM   18  C   UNL     1     -10.659   5.617  71.143  1.00  0.00    -0.245 C  
HETATM   19  O   UNL     1     -11.049   6.141  70.112  1.00  0.00    -0.323 OA 
BRANCH  18  20
HETATM   20  O   UNL     1     -11.263   5.705  72.354  1.00  0.00    -0.268 OA 
BRANCH  20  21
HETATM   21  C   UNL     1     -10.657   6.647  73.248  1.00  0.00    -0.291 C  
HETATM   22  C   UNL     1     -11.122   8.038  72.851  1.00  0.00    -0.399 C  
ENDBRANCH  20  21
ENDBRANCH  18  20
ENDBRANCH   5  16
BRANCH  14  23
HETATM   23  C   UNL     1      -8.081   7.216  65.798  1.00  0.00    -0.130 C  
HETATM   24  C   UNL     1      -8.931   7.911  66.563  1.00  0.00    -0.192 C  
BRANCH  24  25
HETATM   25  C   UNL     1      -9.597   9.096  65.999  1.00  0.00    -0.272 A  
HETATM   26  C   UNL     1      -9.626  10.886  64.424  1.00  0.00    -0.312 A  
HETATM   27  C   UNL     1      -9.242   9.585  64.755  1.00  0.00    -0.267 A  
HETATM   28  C   UNL     1     -10.321  11.691  65.342  1.00  0.00    -0.313 A  
HETATM   29  N   UNL     1     -10.397   9.787  66.848  1.00  0.00    -0.240 NA 
HETATM   30  C   UNL     1     -10.727  11.050  66.510  1.00  0.00    -0.241 A  
BRANCH  28  31
HETATM   31  C   UNL     1     -10.474  13.146  65.169  1.00  0.00    -0.339 A  
HETATM   32  C   UNL     1      -9.679  14.033  65.923  1.00  0.00    -0.250 A  
HETATM   33  C   UNL     1      -9.905  15.403  65.890  1.00  0.00    -0.356 A  
HETATM   34  C   UNL     1     -10.921  15.942  65.119  1.00  0.00    -0.389 A  
HETATM   35  F   UNL     1      -9.144  16.209  66.642  1.00  0.00    -0.206 F  
HETATM   36  C   UNL     1     -11.710  15.095  64.347  1.00  0.00    -0.301 A  
HETATM   37  C   UNL     1     -11.481  13.714  64.365  1.00  0.00    -0.410 A  
ENDBRANCH  28  31
ENDBRANCH  24  25
ENDBRANCH  14  23
TORSDOF 6
ENDMDL
MODEL       26
REMARK 921   NORMALIZED FREE ENERGY PREDICTED BY IDOCK:   -5.35 KCAL/MOL
REMARK 922        TOTAL FREE ENERGY PREDICTED BY IDOCK:   -8.59 KCAL/MOL
REMARK 923 INTER-LIGAND FREE ENERGY PREDICTED BY IDOCK:   -7.45 KCAL/MOL
REMARK 924 INTRA-LIGAND FREE ENERGY PREDICTED BY IDOCK:   -1.14 KCAL/MOL
REMARK 927      BINDING AFFINITY PREDICTED BY RF-SCORE:    0.00 PKD
ROOT
HETATM    1  C   UNL     1      -8.436   7.961  70.381  1.00  0.00    -0.131 C  
HETATM    2  C   UNL     1      -7.580   6.781  69.929  1.00  0.00    -0.100 C  
HETATM    3  C   UNL     1      -8.333   5.772  69.019  1.00  0.00    -0.101 C  
HETATM    4  C   UNL     1      -7.435   5.318  67.833  1.00  0.00    -0.076 C  
HETATM    5  C   UNL     1      -8.149   4.452  66.767  1.00  0.00    -0.102 C  
HETATM    6  C   UNL     1     -10.371   8.794  71.362  1.00  0.00    -0.278 C  
HETATM    7  C   UNL     1      -9.566   4.917  66.409  1.00  0.00    -0.177 C  
HETATM    8  C   UNL     1      -9.877   7.557  70.631  1.00  0.00    -0.179 C  
HETATM    9  C   UNL     1     -10.375   5.234  67.655  1.00  0.00    -0.208 C  
HETATM   10  C   UNL     1     -11.678   8.621  72.113  1.00  0.00    -0.442 C  
HETATM   11  O   UNL     1      -9.289   9.074  72.263  1.00  0.00    -0.333 OA 
HETATM   12  C   UNL     1      -9.634   6.339  68.419  1.00  0.00    -0.121 C  
HETATM   13  C   UNL     1      -8.124   8.599  71.707  1.00  0.00    -0.114 C  
HETATM   14  C   UNL     1     -10.582   7.148  69.347  1.00  0.00    -0.246 C  
HETATM   15  O   UNL     1      -7.021   8.724  72.199  1.00  0.00    -0.225 OA 
ENDROOT
BRANCH   5  16
HETATM   16  N   UNL     1      -7.357   4.397  65.551  1.00  0.00    -0.075 N  
HETATM   17  H   UNL     1      -6.710   5.161  65.351  1.00  0.00     0.000 HD 
HETATM   18  C   UNL     1      -7.447   3.366  64.669  1.00  0.00    -0.075 C  
HETATM   19  O   UNL     1      -8.104   2.351  64.834  1.00  0.00    -0.080 OA 
BRANCH  18  20
HETATM   20  O   UNL     1      -6.636   3.620  63.612  1.00  0.00    -0.032 OA 
BRANCH  20  21
HETATM   21  C   UNL     1      -7.330   3.855  62.381  1.00  0.00    -0.044 C  
HETATM   22  C   UNL     1      -8.305   4.999  62.601  1.00  0.00    -0.104 C  
ENDBRANCH  20  21
ENDBRANCH  18  20
ENDBRANCH   5  16
BRANCH  14  23
HETATM   23  C   UNL     1     -10.960   8.349  68.518  1.00  0.00     0.157 C  
HETATM   24  C   UNL     1     -10.308   8.868  67.470  1.00  0.00    -0.328 C  
BRANCH  24  25
HETATM   25  C   UNL     1     -10.592  10.253  67.065  1.00  0.00    -0.239 A  
HETATM   26  C   UNL     1      -9.872  12.297  66.071  1.00  0.00    -0.263 A  
HETATM   27  C   UNL     1      -9.788  10.906  66.149  1.00  0.00    -0.268 A  
HETATM   28  C   UNL     1     -10.720  13.020  66.925  1.00  0.00    -0.273 A  
HETATM   29  N   UNL     1     -11.532  10.904  67.796  1.00  0.00    -0.513 NA 
HETATM   30  C   UNL     1     -11.567  12.249  67.718  1.00  0.00    -0.351 A  
BRANCH  28  31
HETATM   31  C   UNL     1     -10.620  14.480  67.100  1.00  0.00    -0.274 A  
HETATM   32  C   UNL     1      -9.652  15.210  66.382  1.00  0.00    -0.309 A  
HETATM   33  C   UNL     1      -9.437  16.559  66.638  1.00  0.00    -0.258 A  
HETATM   34  C   UNL     1     -10.162  17.227  67.609  1.00  0.00    -0.333 A  
HETATM   35  F   UNL     1      -8.489  17.211  65.952  1.00  0.00    -0.284 F  
HETATM   36  C   UNL     1     -11.140  16.539  68.320  1.00  0.00    -0.321 A  
HETATM   37  C   UNL     1     -11.372  15.183  68.061  1.00  0.00    -0.346 A  
ENDBRANCH  28  31
ENDBRANCH  24  25
ENDBRANCH  14  23
TORSDOF 6
ENDMDL
MODEL       27
REMARK 921   NORMALIZED FREE ENERGY PREDICTED BY IDOCK:   -5.30 KCAL/MOL
REMARK 922        TOTAL FREE ENERGY PREDICTED BY IDOCK:   -8.52 KCAL/MOL
REMARK 923 INTER-LIGAND FREE ENERGY PREDICTED BY IDOCK:   -7.26 KCAL/MOL
REMARK 924 INTRA-LIGAND FREE ENERGY PREDICTED BY IDOCK:   -1.25 KCAL/MOL
REMARK 927      BINDING AFFINITY PREDICTED BY RF-SCORE:    0.00 PKD
ROOT
HETATM    1  C   UNL     1      -9.530   4.469  65.226  1.00  0.00    -0.175 C  
HETATM    2  C   UNL     1      -9.418   3.580  66.462  1.00  0.00    -0.172 C  
HETATM    3  C   UNL     1      -8.574   4.202  67.608  1.00  0.00    -0.108 C  
HETATM    4  C   UNL     1      -9.251   3.967  68.987  1.00  0.00    -0.217 C  
HETATM    5  C   UNL     1      -8.585   4.700  70.177  1.00  0.00    -0.078 C  
HETATM    6  C   UNL     1      -8.534   5.743  63.557  1.00  0.00     0.059 C  
HETATM    7  C   UNL     1      -8.139   6.136  69.874  1.00  0.00    -0.119 C  
HETATM    8  C   UNL     1      -8.254   5.247  64.966  1.00  0.00    -0.134 C  
HETATM    9  C   UNL     1      -7.403   6.219  68.548  1.00  0.00    -0.086 C  
HETATM   10  C   UNL     1      -7.322   6.253  62.801  1.00  0.00    -0.060 C  
HETATM   11  O   UNL     1      -9.087   4.578  62.924  1.00  0.00    -0.132 OA 
HETATM   12  C   UNL     1      -8.358   5.721  67.456  1.00  0.00    -0.104 C  
HETATM   13  C   UNL     1      -9.693   3.804  63.887  1.00  0.00    -0.164 C  
HETATM   14  C   UNL     1      -7.986   6.276  66.053  1.00  0.00    -0.114 C  
HETATM   15  O   UNL     1     -10.299   2.776  63.666  1.00  0.00    -0.169 OA 
ENDROOT
BRANCH   5  16
HETATM   16  N   UNL     1      -9.481   4.723  71.319  1.00  0.00    -0.148 N  
HETATM   17  H   UNL     1     -10.476   4.887  71.161  1.00  0.00     0.000 HD 
HETATM   18  C   UNL     1      -9.043   4.534  72.593  1.00  0.00    -0.122 C  
HETATM   19  O   UNL     1      -7.903   4.234  72.910  1.00  0.00    -0.079 OA 
BRANCH  18  20
HETATM   20  O   UNL     1     -10.091   4.666  73.442  1.00  0.00    -0.148 OA 
BRANCH  20  21
HETATM   21  C   UNL     1     -10.892   5.833  73.212  1.00  0.00    -0.272 C  
HETATM   22  C   UNL     1     -10.283   6.983  73.998  1.00  0.00    -0.346 C  
ENDBRANCH  20  21
ENDBRANCH  18  20
ENDBRANCH   5  16
BRANCH  14  23
HETATM   23  C   UNL     1      -8.872   7.487  65.898  1.00  0.00    -0.157 C  
HETATM   24  C   UNL     1      -8.504   8.759  65.702  1.00  0.00    -0.174 C  
BRANCH  24  25
HETATM   25  C   UNL     1      -9.467   9.833  65.992  1.00  0.00    -0.211 A  
HETATM   26  C   UNL     1     -10.006  12.156  66.044  1.00  0.00    -0.257 A  
HETATM   27  C   UNL     1      -9.296  11.102  65.467  1.00  0.00    -0.247 A  
HETATM   28  C   UNL     1     -10.842  11.943  67.153  1.00  0.00    -0.301 A  
HETATM   29  N   UNL     1     -10.379   9.567  66.960  1.00  0.00    -0.250 NA 
HETATM   30  C   UNL     1     -11.027  10.611  67.515  1.00  0.00    -0.310 A  
BRANCH  28  31
HETATM   31  C   UNL     1     -11.360  13.045  67.983  1.00  0.00    -0.327 A  
HETATM   32  C   UNL     1     -11.201  14.380  67.561  1.00  0.00    -0.329 A  
HETATM   33  C   UNL     1     -11.545  15.441  68.390  1.00  0.00    -0.354 A  
HETATM   34  C   UNL     1     -12.050  15.220  69.660  1.00  0.00    -0.342 A  
HETATM   35  F   UNL     1     -11.353  16.695  67.961  1.00  0.00    -0.334 F  
HETATM   36  C   UNL     1     -12.239  13.913  70.098  1.00  0.00    -0.425 A  
HETATM   37  C   UNL     1     -11.907  12.839  69.264  1.00  0.00    -0.358 A  
ENDBRANCH  28  31
ENDBRANCH  24  25
ENDBRANCH  14  23
TORSDOF 6
ENDMDL
MODEL       28
REMARK 921   NORMALIZED FREE ENERGY PREDICTED BY IDOCK:   -5.20 KCAL/MOL
REMARK 922        TOTAL FREE ENERGY PREDICTED BY IDOCK:   -8.38 KCAL/MOL
REMARK 923 INTER-LIGAND FREE ENERGY PREDICTED BY IDOCK:   -7.42 KCAL/MOL
REMARK 924 INTRA-LIGAND FREE ENERGY PREDICTED BY IDOCK:   -0.96 KCAL/MOL
REMARK 927      BINDING AFFINITY PREDICTED BY RF-SCORE:    0.00 PKD
ROOT
HETATM    1  C   UNL     1     -10.186   6.877  71.739  1.00  0.00    -0.206 C  
HETATM    2  C   UNL     1      -9.794   5.520  71.160  1.00  0.00    -0.235 C  
HETATM    3  C   UNL     1     -10.226   5.320  69.682  1.00  0.00    -0.348 C  
HETATM    4  C   UNL     1      -9.094   4.643  68.859  1.00  0.00    -0.163 C  
HETATM    5  C   UNL     1      -9.353   4.560  67.335  1.00  0.00    -0.147 C  
HETATM    6  C   UNL     1     -11.791   8.499  72.178  1.00  0.00    -0.379 C  
HETATM    7  C   UNL     1      -9.978   5.820  66.723  1.00  0.00    -0.207 C  
HETATM    8  C   UNL     1     -11.524   7.357  71.211  1.00  0.00    -0.297 C  
HETATM    9  C   UNL     1     -11.136   6.328  67.566  1.00  0.00    -0.379 C  
HETATM   10  C   UNL     1     -13.224   8.995  72.210  1.00  0.00    -0.519 C  
HETATM   11  O   UNL     1     -11.413   7.929  73.441  1.00  0.00    -0.211 OA 
HETATM   12  C   UNL     1     -10.590   6.636  68.965  1.00  0.00    -0.273 C  
HETATM   13  C   UNL     1     -10.454   6.968  73.216  1.00  0.00    -0.330 C  
HETATM   14  C   UNL     1     -11.468   7.669  69.724  1.00  0.00     0.140 C  
HETATM   15  O   UNL     1      -9.892   6.336  74.087  1.00  0.00    -0.197 OA 
ENDROOT
BRANCH   5  16
HETATM   16  N   UNL     1      -8.118   4.266  66.631  1.00  0.00    -0.101 N  
HETATM   17  H   UNL     1      -7.384   4.974  66.607  1.00  0.00     0.000 HD 
HETATM   18  C   UNL     1      -7.904   3.080  66.000  1.00  0.00    -0.081 C  
HETATM   19  O   UNL     1      -8.654   2.117  66.033  1.00  0.00    -0.101 OA 
BRANCH  18  20
HETATM   20  O   UNL     1      -6.695   3.119  65.389  1.00  0.00    -0.039 OA 
BRANCH  20  21
HETATM   21  C   UNL     1      -6.506   4.250  64.528  1.00  0.00    -0.042 C  
HETATM   22  C   UNL     1      -7.540   4.172  63.417  1.00  0.00    -0.062 C  
ENDBRANCH  20  21
ENDBRANCH  18  20
ENDBRANCH   5  16
BRANCH  14  23
HETATM   23  C   UNL     1     -10.782   8.987  69.462  1.00  0.00    -0.215 C  
HETATM   24  C   UNL     1     -11.344  10.177  69.218  1.00  0.00    -0.211 C  
BRANCH  24  25
HETATM   25  C   UNL     1     -10.539  11.231  68.583  1.00  0.00    -0.202 A  
HETATM   26  C   UNL     1      -8.452  12.356  68.328  1.00  0.00    -0.170 A  
HETATM   27  C   UNL     1      -9.157  11.186  68.613  1.00  0.00    -0.166 A  
HETATM   28  C   UNL     1      -9.126  13.559  68.057  1.00  0.00    -0.201 A  
HETATM   29  N   UNL     1     -11.218  12.333  68.175  1.00  0.00    -0.248 NA 
HETATM   30  C   UNL     1     -10.509  13.454  67.936  1.00  0.00    -0.240 A  
BRANCH  28  31
HETATM   31  C   UNL     1      -8.451  14.869  68.060  1.00  0.00    -0.151 A  
HETATM   32  C   UNL     1      -8.182  15.525  66.842  1.00  0.00    -0.287 A  
HETATM   33  C   UNL     1      -7.417  16.685  66.807  1.00  0.00    -0.254 A  
HETATM   34  C   UNL     1      -6.891  17.230  67.966  1.00  0.00    -0.178 A  
HETATM   35  F   UNL     1      -7.162  17.264  65.626  1.00  0.00    -0.269 F  
HETATM   36  C   UNL     1      -7.156  16.617  69.186  1.00  0.00    -0.226 A  
HETATM   37  C   UNL     1      -7.936  15.455  69.232  1.00  0.00    -0.229 A  
ENDBRANCH  28  31
ENDBRANCH  24  25
ENDBRANCH  14  23
TORSDOF 6
ENDMDL
MODEL       29
REMARK 921   NORMALIZED FREE ENERGY PREDICTED BY IDOCK:   -5.05 KCAL/MOL
REMARK 922        TOTAL FREE ENERGY PREDICTED BY IDOCK:   -8.18 KCAL/MOL
REMARK 923 INTER-LIGAND FREE ENERGY PREDICTED BY IDOCK:   -7.41 KCAL/MOL
REMARK 924 INTRA-LIGAND FREE ENERGY PREDICTED BY IDOCK:   -0.76 KCAL/MOL
REMARK 927      BINDING AFFINITY PREDICTED BY RF-SCORE:    0.00 PKD
ROOT
HETATM    1  C   UNL     1     -10.538  13.753  66.316  1.00  0.00    -0.289 C  
HETATM    2  C   UNL     1     -11.434  14.490  67.308  1.00  0.00    -0.381 C  
HETATM    3  C   UNL     1     -12.246  13.548  68.239  1.00  0.00    -0.148 C  
HETATM    4  C   UNL     1     -12.246  14.077  69.701  1.00  0.00    -0.383 C  
HETATM    5  C   UNL     1     -12.874  13.121  70.743  1.00  0.00    -0.095 C  
HETATM    6  C   UNL     1     -10.251  12.156  64.652  1.00  0.00    -0.284 C  
HETATM    7  C   UNL     1     -12.513  11.642  70.554  1.00  0.00    -0.344 C  
HETATM    8  C   UNL     1     -11.173  12.467  65.820  1.00  0.00    -0.356 C  
HETATM    9  C   UNL     1     -12.649  11.221  69.101  1.00  0.00     0.326 C  
HETATM   10  C   UNL     1     -10.784  11.136  63.664  1.00  0.00    -0.381 C  
HETATM   11  O   UNL     1     -10.091  13.442  64.033  1.00  0.00    -0.286 OA 
HETATM   12  C   UNL     1     -11.707  12.104  68.273  1.00  0.00    -0.401 C  
HETATM   13  C   UNL     1     -10.247  14.412  64.996  1.00  0.00    -0.374 C  
HETATM   14  C   UNL     1     -11.305  11.435  66.929  1.00  0.00    -0.284 C  
HETATM   15  O   UNL     1     -10.122  15.604  64.803  1.00  0.00    -0.326 OA 
ENDROOT
BRANCH   5  16
HETATM   16  N   UNL     1     -12.498  13.523  72.087  1.00  0.00     0.012 N  
HETATM   17  H   UNL     1     -11.619  13.180  72.474  1.00  0.00     0.000 HD 
HETATM   18  C   UNL     1     -13.276  14.339  72.847  1.00  0.00    -0.495 C  
HETATM   19  O   UNL     1     -14.297  14.893  72.472  1.00  0.00    -0.394 OA 
BRANCH  18  20
HETATM   20  O   UNL     1     -12.696  14.489  74.064  1.00  0.00    -0.431 OA 
BRANCH  20  21
HETATM   21  C   UNL     1     -12.533  15.852  74.475  1.00  0.00    -0.581 C  
HETATM   22  C   UNL     1     -11.922  16.622  73.316  1.00  0.00    -0.352 C  
ENDBRANCH  20  21
ENDBRANCH  18  20
ENDBRANCH   5  16
BRANCH  14  23
HETATM   23  C   UNL     1      -9.982  10.779  67.234  1.00  0.00    -0.219 C  
HETATM   24  C   UNL     1      -9.583   9.540  66.920  1.00  0.00    -0.217 C  
BRANCH  24  25
HETATM   25  C   UNL     1      -8.453   8.947  67.652  1.00  0.00    -0.121 A  
HETATM   26  C   UNL     1      -7.048   7.074  68.103  1.00  0.00    -0.085 A  
HETATM   27  C   UNL     1      -7.852   7.783  67.209  1.00  0.00    -0.117 A  
HETATM   28  C   UNL     1      -6.885   7.508  69.429  1.00  0.00    -0.048 A  
HETATM   29  N   UNL     1      -8.194   9.476  68.874  1.00  0.00    -0.112 NA 
HETATM   30  C   UNL     1      -7.437   8.752  69.723  1.00  0.00    -0.056 A  
BRANCH  28  31
HETATM   31  C   UNL     1      -6.316   6.651  70.484  1.00  0.00    -0.043 A  
HETATM   32  C   UNL     1      -6.655   5.284  70.541  1.00  0.00    -0.038 A  
HETATM   33  C   UNL     1      -6.254   4.489  71.607  1.00  0.00    -0.018 A  
HETATM   34  C   UNL     1      -5.511   5.014  72.651  1.00  0.00    -0.009 A  
HETATM   35  F   UNL     1      -6.620   3.201  71.636  1.00  0.00    -0.017 F  
HETATM   36  C   UNL     1      -5.142   6.355  72.614  1.00  0.00    -0.031 A  
HETATM   37  C   UNL     1      -5.531   7.160  71.537  1.00  0.00    -0.035 A  
ENDBRANCH  28  31
ENDBRANCH  24  25
ENDBRANCH  14  23
TORSDOF 6
ENDMDL
MODEL       30
REMARK 921   NORMALIZED FREE ENERGY PREDICTED BY IDOCK:   -5.02 KCAL/MOL
REMARK 922        TOTAL FREE ENERGY PREDICTED BY IDOCK:   -8.14 KCAL/MOL
REMARK 923 INTER-LIGAND FREE ENERGY PREDICTED BY IDOCK:   -7.36 KCAL/MOL
REMARK 924 INTRA-LIGAND FREE ENERGY PREDICTED BY IDOCK:   -0.78 KCAL/MOL
REMARK 927      BINDING AFFINITY PREDICTED BY RF-SCORE:    0.00 PKD
ROOT
HETATM    1  C   UNL     1      -8.004  11.898  67.484  1.00  0.00    -0.155 C  
HETATM    2  C   UNL     1      -8.156  13.276  68.123  1.00  0.00    -0.159 C  
HETATM    3  C   UNL     1      -9.591  13.861  68.017  1.00  0.00    -0.219 C  
HETATM    4  C   UNL     1     -10.018  14.528  69.354  1.00  0.00     0.026 C  
HETATM    5  C   UNL     1     -11.495  14.985  69.415  1.00  0.00    -0.300 C  
HETATM    6  C   UNL     1      -8.256  10.476  65.663  1.00  0.00    -0.161 C  
HETATM    7  C   UNL     1     -12.495  14.000  68.797  1.00  0.00     0.150 C  
HETATM    8  C   UNL     1      -8.852  11.751  66.235  1.00  0.00    -0.142 C  
HETATM    9  C   UNL     1     -12.012  13.495  67.448  1.00  0.00    -0.398 C  
HETATM   10  C   UNL     1      -8.590  10.204  64.208  1.00  0.00    -0.200 C  
HETATM   11  O   UNL     1      -6.846  10.688  65.839  1.00  0.00    -0.129 OA 
HETATM   12  C   UNL     1     -10.660  12.806  67.669  1.00  0.00    -0.230 C  
HETATM   13  C   UNL     1      -6.662  11.521  66.918  1.00  0.00    -0.139 C  
HETATM   14  C   UNL     1     -10.339  11.772  66.554  1.00  0.00    -0.258 C  
HETATM   15  O   UNL     1      -5.580  11.853  67.358  1.00  0.00    -0.081 OA 
ENDROOT
BRANCH   5  16
HETATM   16  N   UNL     1     -11.887  15.242  70.790  1.00  0.00    -0.307 N  
HETATM   17  H   UNL     1     -11.166  15.254  71.512  1.00  0.00     0.000 HD 
HETATM   18  C   UNL     1     -13.179  15.467  71.150  1.00  0.00    -0.513 C  
HETATM   19  O   UNL     1     -14.118  15.575  70.378  1.00  0.00     0.038 OA 
BRANCH  18  20
HETATM   20  O   UNL     1     -13.240  15.617  72.496  1.00  0.00    -0.423 OA 
BRANCH  20  21
HETATM   21  C   UNL     1     -11.982  15.917  73.113  1.00  0.00    -0.467 C  
HETATM   22  C   UNL     1     -12.254  16.373  74.537  1.00  0.00    -0.465 C  
ENDBRANCH  20  21
ENDBRANCH  18  20
ENDBRANCH   5  16
BRANCH  14  23
HETATM   23  C   UNL     1     -10.797  10.459  67.137  1.00  0.00    -0.301 C  
HETATM   24  C   UNL     1     -10.838  10.097  68.426  1.00  0.00    -0.284 C  
BRANCH  24  25
HETATM   25  C   UNL     1     -10.909   8.667  68.764  1.00  0.00     0.030 A  
HETATM   26  C   UNL     1     -10.959   6.940  70.408  1.00  0.00    -0.315 A  
HETATM   27  C   UNL     1     -11.252   8.254  70.039  1.00  0.00    -0.081 A  
HETATM   28  C   UNL     1     -10.300   6.071  69.523  1.00  0.00    -0.295 A  
HETATM   29  N   UNL     1     -10.413   7.812  67.835  1.00  0.00    -0.215 NA 
HETATM   30  C   UNL     1     -10.116   6.559  68.232  1.00  0.00    -0.159 A  
BRANCH  28  31
HETATM   31  C   UNL     1      -9.697   4.799  69.958  1.00  0.00    -0.280 A  
HETATM   32  C   UNL     1      -9.415   3.793  69.012  1.00  0.00    -0.233 A  
HETATM   33  C   UNL     1      -8.986   2.532  69.412  1.00  0.00    -0.108 A  
HETATM   34  C   UNL     1      -8.828   2.223  70.752  1.00  0.00    -0.131 A  
HETATM   35  F   UNL     1      -8.755   1.596  68.482  1.00  0.00    -0.074 F  
HETATM   36  C   UNL     1      -9.078   3.201  71.709  1.00  0.00    -0.163 A  
HETATM   37  C   UNL     1      -9.498   4.477  71.315  1.00  0.00    -0.222 A  
ENDBRANCH  28  31
ENDBRANCH  24  25
ENDBRANCH  14  23
TORSDOF 6
ENDMDL
MODEL       31
REMARK 921   NORMALIZED FREE ENERGY PREDICTED BY IDOCK:   -4.83 KCAL/MOL
REMARK 922        TOTAL FREE ENERGY PREDICTED BY IDOCK:   -7.88 KCAL/MOL
REMARK 923 INTER-LIGAND FREE ENERGY PREDICTED BY IDOCK:   -6.59 KCAL/MOL
REMARK 924 INTRA-LIGAND FREE ENERGY PREDICTED BY IDOCK:   -1.28 KCAL/MOL
REMARK 927      BINDING AFFINITY PREDICTED BY RF-SCORE:    0.00 PKD
ROOT
HETATM    1  C   UNL     1      -9.210   3.842  65.256  1.00  0.00    -0.151 C  
HETATM    2  C   UNL     1      -9.535   2.920  66.428  1.00  0.00     0.023 C  
HETATM    3  C   UNL     1      -8.692   3.205  67.702  1.00  0.00    -0.141 C  
HETATM    4  C   UNL     1      -9.578   3.145  68.978  1.00  0.00    -0.084 C  
HETATM    5  C   UNL     1      -8.875   3.590  70.283  1.00  0.00    -0.089 C  
HETATM    6  C   UNL     1      -7.668   4.797  63.803  1.00  0.00    -0.075 C  
HETATM    7  C   UNL     1      -7.975   4.823  70.137  1.00  0.00    -0.068 C  
HETATM    8  C   UNL     1      -7.735   4.189  65.194  1.00  0.00    -0.085 C  
HETATM    9  C   UNL     1      -7.087   4.717  68.909  1.00  0.00    -0.052 C  
HETATM   10  C   UNL     1      -6.273   4.927  63.223  1.00  0.00    -0.022 C  
HETATM   11  O   UNL     1      -8.467   3.888  63.030  1.00  0.00    -0.084 OA 
HETATM   12  C   UNL     1      -8.003   4.584  67.686  1.00  0.00    -0.096 C  
HETATM   13  C   UNL     1      -9.399   3.310  63.861  1.00  0.00    -0.125 C  
HETATM   14  C   UNL     1      -7.304   5.043  66.377  1.00  0.00    -0.085 C  
HETATM   15  O   UNL     1     -10.258   2.532  63.501  1.00  0.00    -0.140 OA 
ENDROOT
BRANCH   5  16
HETATM   16  N   UNL     1      -9.858   3.853  71.320  1.00  0.00    -0.177 N  
HETATM   17  H   UNL     1     -10.713   4.352  71.071  1.00  0.00     0.000 HD 
HETATM   18  C   UNL     1      -9.681   3.458  72.609  1.00  0.00    -0.138 C  
HETATM   19  O   UNL     1      -8.756   2.773  73.017  1.00  0.00    -0.077 OA 
BRANCH  18  20
HETATM   20  O   UNL     1     -10.731   3.891  73.349  1.00  0.00    -0.175 OA 
BRANCH  20  21
HETATM   21  C   UNL     1     -11.057   5.273  73.156  1.00  0.00    -0.324 C  
HETATM   22  C   UNL     1     -10.222   6.093  74.125  1.00  0.00    -0.320 C  
ENDBRANCH  20  21
ENDBRANCH  18  20
ENDBRANCH   5  16
BRANCH  14  23
HETATM   23  C   UNL     1      -7.747   6.475  66.214  1.00  0.00    -0.095 C  
HETATM   24  C   UNL     1      -7.442   7.526  66.985  1.00  0.00    -0.098 C  
BRANCH  24  25
HETATM   25  C   UNL     1      -8.287   8.729  66.919  1.00  0.00    -0.108 A  
HETATM   26  C   UNL     1     -10.388   9.746  66.430  1.00  0.00    -0.247 A  
HETATM   27  C   UNL     1      -9.664   8.628  66.849  1.00  0.00    -0.278 A  
HETATM   28  C   UNL     1      -9.734  10.930  66.051  1.00  0.00    -0.268 A  
HETATM   29  N   UNL     1      -7.635   9.901  66.709  1.00  0.00    -0.095 NA 
HETATM   30  C   UNL     1      -8.360  10.953  66.278  1.00  0.00    -0.164 A  
BRANCH  28  31
HETATM   31  C   UNL     1     -10.411  12.013  65.316  1.00  0.00    -0.311 A  
HETATM   32  C   UNL     1     -10.349  13.336  65.797  1.00  0.00    -0.290 A  
HETATM   33  C   UNL     1     -11.098  14.349  65.210  1.00  0.00    -0.342 A  
HETATM   34  C   UNL     1     -11.933  14.089  64.137  1.00  0.00    -0.439 A  
HETATM   35  F   UNL     1     -11.031  15.588  65.715  1.00  0.00    -0.320 F  
HETATM   36  C   UNL     1     -12.000  12.797  63.625  1.00  0.00    -0.616 A  
HETATM   37  C   UNL     1     -11.239  11.774  64.203  1.00  0.00    -0.437 A  
ENDBRANCH  28  31
ENDBRANCH  24  25
ENDBRANCH  14  23
TORSDOF 6
ENDMDL
MODEL       32
REMARK 921   NORMALIZED FREE ENERGY PREDICTED BY IDOCK:   -4.80 KCAL/MOL
REMARK 922        TOTAL FREE ENERGY PREDICTED BY IDOCK:   -7.84 KCAL/MOL
REMARK 923 INTER-LIGAND FREE ENERGY PREDICTED BY IDOCK:   -6.72 KCAL/MOL
REMARK 924 INTRA-LIGAND FREE ENERGY PREDICTED BY IDOCK:   -1.13 KCAL/MOL
REMARK 927      BINDING AFFINITY PREDICTED BY RF-SCORE:    0.00 PKD
ROOT
HETATM    1  C   UNL     1      -9.418   4.300  65.248  1.00  0.00    -0.173 C  
HETATM    2  C   UNL     1      -9.359   3.395  66.477  1.00  0.00    -0.173 C  
HETATM    3  C   UNL     1      -8.516   3.977  67.644  1.00  0.00    -0.104 C  
HETATM    4  C   UNL     1      -9.227   3.750  69.008  1.00  0.00    -0.221 C  
HETATM    5  C   UNL     1      -8.559   4.449  70.218  1.00  0.00    -0.076 C  
HETATM    6  C   UNL     1      -8.348   5.556  63.612  1.00  0.00    -0.073 C  
HETATM    7  C   UNL     1      -8.060   5.872  69.939  1.00  0.00    -0.116 C  
HETATM    8  C   UNL     1      -8.111   5.037  65.020  1.00  0.00    -0.113 C  
HETATM    9  C   UNL     1      -7.296   5.943  68.628  1.00  0.00    -0.085 C  
HETATM   10  C   UNL     1      -7.106   6.033  62.883  1.00  0.00    -0.050 C  
HETATM   11  O   UNL     1      -8.928   4.418  62.956  1.00  0.00    -0.117 OA 
HETATM   12  C   UNL     1      -8.247   5.489  67.513  1.00  0.00    -0.101 C  
HETATM   13  C   UNL     1      -9.578   3.655  63.899  1.00  0.00    -0.153 C  
HETATM   14  C   UNL     1      -7.830   6.046  66.123  1.00  0.00    -0.104 C  
HETATM   15  O   UNL     1     -10.213   2.650  63.656  1.00  0.00    -0.151 OA 
ENDROOT
BRANCH   5  16
HETATM   16  N   UNL     1      -9.475   4.490  71.344  1.00  0.00    -0.146 N  
HETATM   17  H   UNL     1     -10.478   4.524  71.160  1.00  0.00     0.000 HD 
HETATM   18  C   UNL     1      -9.045   4.486  72.634  1.00  0.00    -0.122 C  
HETATM   19  O   UNL     1      -7.885   4.352  72.991  1.00  0.00    -0.087 OA 
BRANCH  18  20
HETATM   20  O   UNL     1     -10.118   4.589  73.455  1.00  0.00    -0.144 OA 
BRANCH  20  21
HETATM   21  C   UNL     1     -11.017   5.654  73.121  1.00  0.00    -0.285 C  
HETATM   22  C   UNL     1     -10.475   6.935  73.731  1.00  0.00    -0.390 C  
ENDBRANCH  20  21
ENDBRANCH  18  20
ENDBRANCH   5  16
BRANCH  14  23
HETATM   23  C   UNL     1      -8.671   7.287  65.964  1.00  0.00    -0.168 C  
HETATM   24  C   UNL     1      -8.267   8.523  65.646  1.00  0.00    -0.130 C  
BRANCH  24  25
HETATM   25  C   UNL     1      -9.148   9.662  65.946  1.00  0.00    -0.178 A  
HETATM   26  C   UNL     1     -10.199  11.690  65.259  1.00  0.00    -0.316 A  
HETATM   27  C   UNL     1      -9.682  10.435  64.931  1.00  0.00    -0.372 A  
HETATM   28  C   UNL     1     -10.144  12.172  66.577  1.00  0.00    -0.229 A  
HETATM   29  N   UNL     1      -9.218  10.031  67.250  1.00  0.00    -0.141 NA 
HETATM   30  C   UNL     1      -9.697  11.260  67.530  1.00  0.00    -0.177 A  
BRANCH  28  31
HETATM   31  C   UNL     1     -10.383  13.586  66.919  1.00  0.00    -0.265 A  
HETATM   32  C   UNL     1     -11.161  13.916  68.046  1.00  0.00    -0.295 A  
HETATM   33  C   UNL     1     -11.525  15.232  68.306  1.00  0.00    -0.347 A  
HETATM   34  C   UNL     1     -11.140  16.260  67.462  1.00  0.00    -0.140 A  
HETATM   35  F   UNL     1     -12.288  15.501  69.373  1.00  0.00    -0.336 F  
HETATM   36  C   UNL     1     -10.353  15.969  66.352  1.00  0.00    -0.312 A  
HETATM   37  C   UNL     1      -9.971  14.648  66.090  1.00  0.00    -0.323 A  
ENDBRANCH  28  31
ENDBRANCH  24  25
ENDBRANCH  14  23
TORSDOF 6
ENDMDL
MODEL       33
REMARK 921   NORMALIZED FREE ENERGY PREDICTED BY IDOCK:   -4.73 KCAL/MOL
REMARK 922        TOTAL FREE ENERGY PREDICTED BY IDOCK:   -7.74 KCAL/MOL
REMARK 923 INTER-LIGAND FREE ENERGY PREDICTED BY IDOCK:   -6.93 KCAL/MOL
REMARK 924 INTRA-LIGAND FREE ENERGY PREDICTED BY IDOCK:   -0.81 KCAL/MOL
REMARK 927      BINDING AFFINITY PREDICTED BY RF-SCORE:    0.00 PKD
ROOT
HETATM    1  C   UNL     1      -9.587   4.494  65.727  1.00  0.00    -0.192 C  
HETATM    2  C   UNL     1      -9.501   3.518  66.897  1.00  0.00    -0.198 C  
HETATM    3  C   UNL     1      -8.565   3.993  68.042  1.00  0.00    -0.110 C  
HETATM    4  C   UNL     1      -9.206   3.719  69.432  1.00  0.00    -0.226 C  
HETATM    5  C   UNL     1      -8.437   4.316  70.636  1.00  0.00    -0.074 C  
HETATM    6  C   UNL     1      -8.555   5.795  64.101  1.00  0.00     0.099 C  
HETATM    7  C   UNL     1      -7.888   5.729  70.407  1.00  0.00    -0.104 C  
HETATM    8  C   UNL     1      -8.263   5.185  65.461  1.00  0.00    -0.121 C  
HETATM    9  C   UNL     1      -7.198   5.843  69.058  1.00  0.00    -0.082 C  
HETATM   10  C   UNL     1      -7.336   6.258  63.326  1.00  0.00    -0.064 C  
HETATM   11  O   UNL     1      -9.226   4.724  63.419  1.00  0.00    -0.096 OA 
HETATM   12  C   UNL     1      -8.232   5.497  67.979  1.00  0.00    -0.100 C  
HETATM   13  C   UNL     1      -9.856   3.937  64.355  1.00  0.00    -0.188 C  
HETATM   14  C   UNL     1      -7.870   6.114  66.600  1.00  0.00    -0.104 C  
HETATM   15  O   UNL     1     -10.551   2.977  64.096  1.00  0.00    -0.119 OA 
ENDROOT
BRANCH   5  16
HETATM   16  N   UNL     1      -9.284   4.332  71.815  1.00  0.00    -0.122 N  
HETATM   17  H   UNL     1      -8.998   3.792  72.633  1.00  0.00     0.000 HD 
HETATM   18  C   UNL     1     -10.443   5.041  71.871  1.00  0.00    -0.187 C  
HETATM   19  O   UNL     1     -10.848   5.800  71.005  1.00  0.00    -0.260 OA 
BRANCH  18  20
HETATM   20  O   UNL     1     -11.037   4.817  73.068  1.00  0.00    -0.257 OA 
BRANCH  20  21
HETATM   21  C   UNL     1     -10.625   3.606  73.714  1.00  0.00    -0.207 C  
HETATM   22  C   UNL     1     -11.658   2.535  73.408  1.00  0.00    -0.161 C  
ENDBRANCH  20  21
ENDBRANCH  18  20
ENDBRANCH   5  16
BRANCH  14  23
HETATM   23  C   UNL     1      -8.660   7.399  66.561  1.00  0.00    -0.134 C  
HETATM   24  C   UNL     1      -8.203   8.643  66.373  1.00  0.00    -0.111 C  
BRANCH  24  25
HETATM   25  C   UNL     1      -9.042   9.781  66.781  1.00  0.00    -0.146 A  
HETATM   26  C   UNL     1      -9.258  11.901  67.851  1.00  0.00    -0.187 A  
HETATM   27  C   UNL     1      -8.475  10.990  67.140  1.00  0.00    -0.137 A  
HETATM   28  C   UNL     1     -10.574  11.585  68.227  1.00  0.00    -0.228 A  
HETATM   29  N   UNL     1     -10.353   9.506  66.992  1.00  0.00    -0.250 NA 
HETATM   30  C   UNL     1     -11.074  10.394  67.706  1.00  0.00    -0.299 A  
BRANCH  28  31
HETATM   31  C   UNL     1     -11.325  12.362  69.227  1.00  0.00    -0.315 A  
HETATM   32  C   UNL     1     -11.968  11.703  70.294  1.00  0.00    -0.445 A  
HETATM   33  C   UNL     1     -12.804  12.393  71.164  1.00  0.00    -0.205 A  
HETATM   34  C   UNL     1     -13.036  13.749  71.008  1.00  0.00    -0.276 A  
HETATM   35  F   UNL     1     -13.417  11.723  72.149  1.00  0.00    -0.572 F  
HETATM   36  C   UNL     1     -12.399  14.432  69.977  1.00  0.00    -0.391 A  
HETATM   37  C   UNL     1     -11.546  13.748  69.104  1.00  0.00    -0.363 A  
ENDBRANCH  28  31
ENDBRANCH  24  25
ENDBRANCH  14  23
TORSDOF 6
ENDMDL
MODEL       34
REMARK 921   NORMALIZED FREE ENERGY PREDICTED BY IDOCK:   -4.48 KCAL/MOL
REMARK 922        TOTAL FREE ENERGY PREDICTED BY IDOCK:   -7.40 KCAL/MOL
REMARK 923 INTER-LIGAND FREE ENERGY PREDICTED BY IDOCK:   -6.05 KCAL/MOL
REMARK 924 INTRA-LIGAND FREE ENERGY PREDICTED BY IDOCK:   -1.35 KCAL/MOL
REMARK 927      BINDING AFFINITY PREDICTED BY RF-SCORE:    0.00 PKD
ROOT
HETATM    1  C   UNL     1      -8.593   9.886  65.432  1.00  0.00    -0.164 C  
HETATM    2  C   UNL     1      -9.515   8.841  66.053  1.00  0.00    -0.302 C  
HETATM    3  C   UNL     1      -8.860   8.033  67.206  1.00  0.00    -0.135 C  
HETATM    4  C   UNL     1      -9.851   7.852  68.390  1.00  0.00    -0.185 C  
HETATM    5  C   UNL     1      -9.241   7.217  69.663  1.00  0.00    -0.146 C  
HETATM    6  C   UNL     1      -6.569  10.464  64.446  1.00  0.00    -0.014 C  
HETATM    7  C   UNL     1      -7.838   7.723  70.022  1.00  0.00    -0.103 C  
HETATM    8  C   UNL     1      -7.152   9.416  65.379  1.00  0.00    -0.091 C  
HETATM    9  C   UNL     1      -6.935   7.759  68.801  1.00  0.00    -0.067 C  
HETATM   10  C   UNL     1      -5.220  10.117  63.847  1.00  0.00    -0.111 C  
HETATM   11  O   UNL     1      -7.577  10.567  63.428  1.00  0.00    -0.098 OA 
HETATM   12  C   UNL     1      -7.586   8.691  67.771  1.00  0.00    -0.098 C  
HETATM   13  C   UNL     1      -8.793  10.238  63.983  1.00  0.00    -0.221 C  
HETATM   14  C   UNL     1      -6.551   9.273  66.769  1.00  0.00    -0.068 C  
HETATM   15  O   UNL     1      -9.853  10.275  63.394  1.00  0.00    -0.267 OA 
ENDROOT
BRANCH   5  16
HETATM   16  N   UNL     1     -10.117   7.430  70.802  1.00  0.00    -0.190 N  
HETATM   17  H   UNL     1     -10.052   8.311  71.313  1.00  0.00     0.000 HD 
HETATM   18  C   UNL     1     -11.020   6.499  71.212  1.00  0.00    -0.262 C  
HETATM   19  O   UNL     1     -11.265   5.452  70.635  1.00  0.00    -0.051 OA 
BRANCH  18  20
HETATM   20  O   UNL     1     -11.646   6.956  72.324  1.00  0.00    -0.270 OA 
BRANCH  20  21
HETATM   21  C   UNL     1     -10.779   7.594  73.270  1.00  0.00    -0.350 C  
HETATM   22  C   UNL     1     -10.279   6.534  74.238  1.00  0.00    -0.373 C  
ENDBRANCH  20  21
ENDBRANCH  18  20
ENDBRANCH   5  16
BRANCH  14  23
HETATM   23  C   UNL     1      -6.194  10.615  67.356  1.00  0.00    -0.057 C  
HETATM   24  C   UNL     1      -6.895  11.346  68.232  1.00  0.00    -0.069 C  
BRANCH  24  25
HETATM   25  C   UNL     1      -6.601  12.782  68.361  1.00  0.00    -0.083 A  
HETATM   26  C   UNL     1      -6.594  14.772  69.674  1.00  0.00    -0.161 A  
HETATM   27  C   UNL     1      -6.513  13.381  69.604  1.00  0.00    -0.056 A  
HETATM   28  C   UNL     1      -6.799  15.543  68.517  1.00  0.00    -0.114 A  
HETATM   29  N   UNL     1      -6.644  13.502  67.212  1.00  0.00    -0.210 NA 
HETATM   30  C   UNL     1      -6.750  14.842  67.315  1.00  0.00     0.136 A  
BRANCH  28  31
HETATM   31  C   UNL     1      -7.200  16.961  68.565  1.00  0.00    -0.199 A  
HETATM   32  C   UNL     1      -6.359  17.910  69.180  1.00  0.00    -0.236 A  
HETATM   33  C   UNL     1      -6.777  19.221  69.372  1.00  0.00    -0.304 A  
HETATM   34  C   UNL     1      -8.035  19.636  68.968  1.00  0.00    -0.234 A  
HETATM   35  F   UNL     1      -5.958  20.085  69.985  1.00  0.00    -0.284 F  
HETATM   36  C   UNL     1      -8.880  18.728  68.338  1.00  0.00    -0.375 A  
HETATM   37  C   UNL     1      -8.462  17.409  68.131  1.00  0.00    -0.241 A  
ENDBRANCH  28  31
ENDBRANCH  24  25
ENDBRANCH  14  23
TORSDOF 6
ENDMDL
MODEL       35
REMARK 921   NORMALIZED FREE ENERGY PREDICTED BY IDOCK:   -4.34 KCAL/MOL
REMARK 922        TOTAL FREE ENERGY PREDICTED BY IDOCK:   -7.22 KCAL/MOL
REMARK 923 INTER-LIGAND FREE ENERGY PREDICTED BY IDOCK:   -6.16 KCAL/MOL
REMARK 924 INTRA-LIGAND FREE ENERGY PREDICTED BY IDOCK:   -1.06 KCAL/MOL
REMARK 927      BINDING AFFINITY PREDICTED BY RF-SCORE:    0.00 PKD
ROOT
HETATM    1  C   UNL     1      -7.409   6.360  71.757  1.00  0.00    -0.088 C  
HETATM    2  C   UNL     1      -6.825   5.281  70.849  1.00  0.00    -0.048 C  
HETATM    3  C   UNL     1      -7.874   4.607  69.923  1.00  0.00    -0.061 C  
HETATM    4  C   UNL     1      -7.306   4.417  68.488  1.00  0.00    -0.060 C  
HETATM    5  C   UNL     1      -8.331   3.918  67.440  1.00  0.00    -0.098 C  
HETATM    6  C   UNL     1      -8.975   7.046  73.331  1.00  0.00    -0.142 C  
HETATM    7  C   UNL     1      -9.718   4.564  67.543  1.00  0.00    -0.213 C  
HETATM    8  C   UNL     1      -8.808   6.013  72.230  1.00  0.00    -0.138 C  
HETATM    9  C   UNL     1     -10.205   4.600  68.982  1.00  0.00    -0.032 C  
HETATM   10  C   UNL     1     -10.111   6.778  74.300  1.00  0.00    -0.348 C  
HETATM   11  O   UNL     1      -7.704   6.998  73.997  1.00  0.00    -0.104 OA 
HETATM   12  C   UNL     1      -9.186   5.406  69.795  1.00  0.00    -0.169 C  
HETATM   13  C   UNL     1      -6.750   6.602  73.088  1.00  0.00    -0.068 C  
HETATM   14  C   UNL     1      -9.809   6.010  71.085  1.00  0.00    -0.214 C  
HETATM   15  O   UNL     1      -5.563   6.511  73.327  1.00  0.00    -0.037 OA 
ENDROOT
BRANCH   5  16
HETATM   16  N   UNL     1      -7.819   4.127  66.097  1.00  0.00    -0.094 N  
HETATM   17  H   UNL     1      -7.270   4.966  65.906  1.00  0.00     0.000 HD 
HETATM   18  C   UNL     1      -8.046   3.247  65.086  1.00  0.00    -0.090 C  
HETATM   19  O   UNL     1      -8.601   2.165  65.202  1.00  0.00    -0.099 OA 
BRANCH  18  20
HETATM   20  O   UNL     1      -7.498   3.736  63.947  1.00  0.00    -0.060 OA 
BRANCH  20  21
HETATM   21  C   UNL     1      -6.344   4.559  64.154  1.00  0.00    -0.030 C  
HETATM   22  C   UNL     1      -6.298   5.594  63.042  1.00  0.00    -0.021 C  
ENDBRANCH  20  21
ENDBRANCH  18  20
ENDBRANCH   5  16
BRANCH  14  23
HETATM   23  C   UNL     1     -10.189   7.412  70.680  1.00  0.00    -0.202 C  
HETATM   24  C   UNL     1     -10.778   7.813  69.547  1.00  0.00    -0.200 C  
BRANCH  24  25
HETATM   25  C   UNL     1     -10.686   9.229  69.156  1.00  0.00    -0.183 A  
HETATM   26  C   UNL     1     -11.674  11.395  69.017  1.00  0.00    -0.409 A  
HETATM   27  C   UNL     1     -11.561  10.167  69.672  1.00  0.00    -0.216 A  
HETATM   28  C   UNL     1     -10.948  11.657  67.843  1.00  0.00    -0.277 A  
HETATM   29  N   UNL     1      -9.859   9.504  68.117  1.00  0.00    -0.151 NA 
HETATM   30  C   UNL     1     -10.013  10.687  67.489  1.00  0.00    -0.171 A  
BRANCH  28  31
HETATM   31  C   UNL     1     -11.257  12.790  66.953  1.00  0.00    -0.339 A  
HETATM   32  C   UNL     1     -10.654  14.044  67.174  1.00  0.00    -0.274 A  
HETATM   33  C   UNL     1     -11.038  15.163  66.445  1.00  0.00    -0.312 A  
HETATM   34  C   UNL     1     -12.029  15.083  65.481  1.00  0.00     0.000 A  
HETATM   35  F   UNL     1     -10.459  16.343  66.705  1.00  0.00    -0.285 F  
HETATM   36  C   UNL     1     -12.628  13.854  65.224  1.00  0.00    -0.508 A  
HETATM   37  C   UNL     1     -12.239  12.719  65.946  1.00  0.00    -0.422 A  
ENDBRANCH  28  31
ENDBRANCH  24  25
ENDBRANCH  14  23
TORSDOF 6
ENDMDL
MODEL       36
REMARK 921   NORMALIZED FREE ENERGY PREDICTED BY IDOCK:   -4.27 KCAL/MOL
REMARK 922        TOTAL FREE ENERGY PREDICTED BY IDOCK:   -7.12 KCAL/MOL
REMARK 923 INTER-LIGAND FREE ENERGY PREDICTED BY IDOCK:   -6.78 KCAL/MOL
REMARK 924 INTRA-LIGAND FREE ENERGY PREDICTED BY IDOCK:   -0.34 KCAL/MOL
REMARK 927      BINDING AFFINITY PREDICTED BY RF-SCORE:    0.00 PKD
ROOT
HETATM    1  C   UNL     1     -11.189  11.453  69.777  1.00  0.00    -0.266 C  
HETATM    2  C   UNL     1     -11.139   9.960  70.088  1.00  0.00    -0.353 C  
HETATM    3  C   UNL     1     -10.505   9.105  68.956  1.00  0.00    -0.238 C  
HETATM    4  C   UNL     1      -9.550   8.028  69.544  1.00  0.00    -0.164 C  
HETATM    5  C   UNL     1      -8.729   7.239  68.495  1.00  0.00    -0.123 C  
HETATM    6  C   UNL     1     -11.779  13.205  68.368  1.00  0.00    -0.351 C  
HETATM    7  C   UNL     1      -8.170   8.091  67.348  1.00  0.00    -0.123 C  
HETATM    8  C   UNL     1     -11.456  11.722  68.308  1.00  0.00    -0.370 C  
HETATM    9  C   UNL     1      -9.227   9.031  66.793  1.00  0.00    -0.198 C  
HETATM   10  C   UNL     1     -12.469  13.765  67.139  1.00  0.00    -0.086 C  
HETATM   11  O   UNL     1     -12.629  13.290  69.522  1.00  0.00    -0.029 OA 
HETATM   12  C   UNL     1      -9.693   9.934  67.942  1.00  0.00    -0.162 C  
HETATM   13  C   UNL     1     -12.299  12.268  70.383  1.00  0.00    -0.228 C  
HETATM   14  C   UNL     1     -10.298  11.270  67.430  1.00  0.00    -0.233 C  
HETATM   15  O   UNL     1     -12.802  12.094  71.474  1.00  0.00    -0.374 OA 
ENDROOT
BRANCH   5  16
HETATM   16  N   UNL     1      -7.627   6.545  69.137  1.00  0.00    -0.098 N  
HETATM   17  H   UNL     1      -6.828   6.260  68.569  1.00  0.00     0.000 HD 
HETATM   18  C   UNL     1      -7.620   6.260  70.467  1.00  0.00    -0.096 C  
HETATM   19  O   UNL     1      -8.462   6.627  71.271  1.00  0.00    -0.124 OA 
BRANCH  18  20
HETATM   20  O   UNL     1      -6.496   5.562  70.761  1.00  0.00    -0.033 OA 
BRANCH  20  21
HETATM   21  C   UNL     1      -6.714   4.165  70.993  1.00  0.00    -0.031 C  
HETATM   22  C   UNL     1      -5.917   3.387  69.959  1.00  0.00    -0.022 C  
ENDBRANCH  20  21
ENDBRANCH  18  20
ENDBRANCH   5  16
BRANCH  14  23
HETATM   23  C   UNL     1      -9.144  12.238  67.498  1.00  0.00    -0.182 C  
HETATM   24  C   UNL     1      -8.097  12.218  68.333  1.00  0.00    -0.151 C  
BRANCH  24  25
HETATM   25  C   UNL     1      -7.314  13.449  68.527  1.00  0.00    -0.111 A  
HETATM   26  C   UNL     1      -6.311  15.041  69.992  1.00  0.00    -0.163 A  
HETATM   27  C   UNL     1      -6.723  13.730  69.745  1.00  0.00     0.027 A  
HETATM   28  C   UNL     1      -6.527  16.057  69.046  1.00  0.00    -0.146 A  
HETATM   29  N   UNL     1      -7.398  14.368  67.534  1.00  0.00    -0.184 NA 
HETATM   30  C   UNL     1      -7.018  15.631  67.814  1.00  0.00    -0.158 A  
BRANCH  28  31
HETATM   31  C   UNL     1      -6.402  17.488  69.371  1.00  0.00    -0.246 A  
HETATM   32  C   UNL     1      -6.979  18.456  68.525  1.00  0.00    -0.273 A  
HETATM   33  C   UNL     1      -6.750  19.812  68.726  1.00  0.00    -0.318 A  
HETATM   34  C   UNL     1      -5.944  20.256  69.760  1.00  0.00    -0.394 A  
HETATM   35  F   UNL     1      -7.295  20.699  67.882  1.00  0.00    -0.321 F  
HETATM   36  C   UNL     1      -5.377  19.326  70.626  1.00  0.00    -0.243 A  
HETATM   37  C   UNL     1      -5.612  17.959  70.439  1.00  0.00    -0.216 A  
ENDBRANCH  28  31
ENDBRANCH  24  25
ENDBRANCH  14  23
TORSDOF 6
ENDMDL
MODEL       37
REMARK 921   NORMALIZED FREE ENERGY PREDICTED BY IDOCK:   -4.02 KCAL/MOL
REMARK 922        TOTAL FREE ENERGY PREDICTED BY IDOCK:   -6.79 KCAL/MOL
REMARK 923 INTER-LIGAND FREE ENERGY PREDICTED BY IDOCK:   -6.51 KCAL/MOL
REMARK 924 INTRA-LIGAND FREE ENERGY PREDICTED BY IDOCK:   -0.27 KCAL/MOL
REMARK 927      BINDING AFFINITY PREDICTED BY RF-SCORE:    0.00 PKD
ROOT
HETATM    1  C   UNL     1      -7.554  11.069  66.525  1.00  0.00    -0.146 C  
HETATM    2  C   UNL     1      -7.886  12.558  66.486  1.00  0.00     0.402 C  
HETATM    3  C   UNL     1      -9.402  12.858  66.323  1.00  0.00    -0.148 C  
HETATM    4  C   UNL     1      -9.841  14.019  67.259  1.00  0.00    -0.242 C  
HETATM    5  C   UNL     1     -11.366  14.280  67.307  1.00  0.00    -0.334 C  
HETATM    6  C   UNL     1      -7.692   8.943  65.596  1.00  0.00    -0.087 C  
HETATM    7  C   UNL     1     -12.230  13.013  67.343  1.00  0.00    -0.155 C  
HETATM    8  C   UNL     1      -8.449  10.260  65.605  1.00  0.00    -0.165 C  
HETATM    9  C   UNL     1     -11.763  11.996  66.316  1.00  0.00    -0.319 C  
HETATM   10  C   UNL     1      -8.075   7.987  64.482  1.00  0.00    -0.132 C  
HETATM   11  O   UNL     1      -6.328   9.371  65.464  1.00  0.00    -0.063 OA 
HETATM   12  C   UNL     1     -10.305  11.649  66.638  1.00  0.00    -0.257 C  
HETATM   13  C   UNL     1      -6.210  10.627  66.013  1.00  0.00    -0.134 C  
HETATM   14  C   UNL     1      -9.895  10.258  66.079  1.00  0.00    -0.292 C  
HETATM   15  O   UNL     1      -5.170  11.247  66.104  1.00  0.00    -0.130 OA 
ENDROOT
BRANCH   5  16
HETATM   16  N   UNL     1     -11.700  15.102  68.456  1.00  0.00    -0.409 N  
HETATM   17  H   UNL     1     -11.487  16.100  68.425  1.00  0.00     0.000 HD 
HETATM   18  C   UNL     1     -12.286  14.592  69.572  1.00  0.00    -0.195 C  
HETATM   19  O   UNL     1     -12.680  13.443  69.701  1.00  0.00     0.014 OA 
BRANCH  18  20
HETATM   20  O   UNL     1     -12.422  15.582  70.488  1.00  0.00    -0.399 OA 
BRANCH  20  21
HETATM   21  C   UNL     1     -11.926  15.251  71.791  1.00  0.00    -0.385 C  
HETATM   22  C   UNL     1     -12.271  16.396  72.730  1.00  0.00    -0.516 C  
ENDBRANCH  20  21
ENDBRANCH  18  20
ENDBRANCH   5  16
BRANCH  14  23
HETATM   23  C   UNL     1     -10.091   9.327  67.249  1.00  0.00    -0.291 C  
HETATM   24  C   UNL     1     -10.566   9.619  68.466  1.00  0.00    -0.253 C  
BRANCH  24  25
HETATM   25  C   UNL     1     -10.293   8.697  69.579  1.00  0.00    -0.214 A  
HETATM   26  C   UNL     1      -9.611   8.338  71.836  1.00  0.00    -0.288 A  
HETATM   27  C   UNL     1     -10.216   9.157  70.881  1.00  0.00    -0.351 A  
HETATM   28  C   UNL     1      -9.058   7.097  71.478  1.00  0.00    -0.143 A  
HETATM   29  N   UNL     1      -9.910   7.443  69.231  1.00  0.00    -0.166 NA 
HETATM   30  C   UNL     1      -9.303   6.689  70.169  1.00  0.00    -0.158 A  
BRANCH  28  31
HETATM   31  C   UNL     1      -8.148   6.346  72.361  1.00  0.00    -0.103 A  
HETATM   32  C   UNL     1      -8.161   4.937  72.353  1.00  0.00    -0.119 A  
HETATM   33  C   UNL     1      -7.423   4.207  73.277  1.00  0.00    -0.076 A  
HETATM   34  C   UNL     1      -6.655   4.841  74.238  1.00  0.00    -0.065 A  
HETATM   35  F   UNL     1      -7.485   2.869  73.252  1.00  0.00    -0.041 F  
HETATM   36  C   UNL     1      -6.603   6.231  74.259  1.00  0.00    -0.075 A  
HETATM   37  C   UNL     1      -7.334   6.974  73.324  1.00  0.00    -0.075 A  
ENDBRANCH  28  31
ENDBRANCH  24  25
ENDBRANCH  14  23
TORSDOF 6
ENDMDL
MODEL       38
REMARK 921   NORMALIZED FREE ENERGY PREDICTED BY IDOCK:   -4.00 KCAL/MOL
REMARK 922        TOTAL FREE ENERGY PREDICTED BY IDOCK:   -6.76 KCAL/MOL
REMARK 923 INTER-LIGAND FREE ENERGY PREDICTED BY IDOCK:   -6.07 KCAL/MOL
REMARK 924 INTRA-LIGAND FREE ENERGY PREDICTED BY IDOCK:   -0.69 KCAL/MOL
REMARK 927      BINDING AFFINITY PREDICTED BY RF-SCORE:    0.00 PKD
ROOT
HETATM    1  C   UNL     1      -8.720   3.645  65.483  1.00  0.00    -0.119 C  
HETATM    2  C   UNL     1      -8.441   3.146  66.899  1.00  0.00    -0.105 C  
HETATM    3  C   UNL     1      -7.399   4.001  67.671  1.00  0.00    -0.068 C  
HETATM    4  C   UNL     1      -7.851   4.232  69.141  1.00  0.00    -0.057 C  
HETATM    5  C   UNL     1      -6.974   5.220  69.947  1.00  0.00    -0.057 C  
HETATM    6  C   UNL     1      -7.962   4.294  63.384  1.00  0.00    -0.084 C  
HETATM    7  C   UNL     1      -6.531   6.465  69.167  1.00  0.00    -0.043 C  
HETATM    8  C   UNL     1      -7.475   4.206  64.820  1.00  0.00    -0.073 C  
HETATM    9  C   UNL     1      -6.017   6.098  67.786  1.00  0.00    -0.017 C  
HETATM   10  C   UNL     1      -6.873   4.460  62.342  1.00  0.00    -0.031 C  
HETATM   11  O   UNL     1      -8.654   3.046  63.215  1.00  0.00    -0.085 OA 
HETATM   12  C   UNL     1      -7.155   5.388  67.043  1.00  0.00    -0.070 C  
HETATM   13  C   UNL     1      -9.123   2.638  64.442  1.00  0.00    -0.123 C  
HETATM   14  C   UNL     1      -6.997   5.479  65.500  1.00  0.00    -0.065 C  
HETATM   15  O   UNL     1      -9.794   1.643  64.629  1.00  0.00    -0.029 OA 
ENDROOT
BRANCH   5  16
HETATM   16  N   UNL     1      -7.670   5.648  71.147  1.00  0.00    -0.102 N  
HETATM   17  H   UNL     1      -7.277   5.403  72.057  1.00  0.00     0.000 HD 
HETATM   18  C   UNL     1      -8.827   6.362  71.104  1.00  0.00    -0.138 C  
HETATM   19  O   UNL     1      -9.348   6.801  70.090  1.00  0.00    -0.158 OA 
BRANCH  18  20
HETATM   20  O   UNL     1      -9.266   6.563  72.370  1.00  0.00    -0.138 OA 
BRANCH  20  21
HETATM   21  C   UNL     1      -9.502   5.359  73.110  1.00  0.00    -0.142 C  
HETATM   22  C   UNL     1     -10.648   4.615  72.446  1.00  0.00    -0.225 C  
ENDBRANCH  20  21
ENDBRANCH  18  20
ENDBRANCH   5  16
BRANCH  14  23
HETATM   23  C   UNL     1      -7.851   6.663  65.119  1.00  0.00    -0.115 C  
HETATM   24  C   UNL     1      -7.598   7.962  65.319  1.00  0.00    -0.090 C  
BRANCH  24  25
HETATM   25  C   UNL     1      -8.711   8.923  65.265  1.00  0.00    -0.186 A  
HETATM   26  C   UNL     1      -9.689  10.891  64.339  1.00  0.00    -0.342 A  
HETATM   27  C   UNL     1      -8.861   9.777  64.188  1.00  0.00    -0.260 A  
HETATM   28  C   UNL     1     -10.322  11.160  65.564  1.00  0.00    -0.326 A  
HETATM   29  N   UNL     1      -9.426   9.067  66.409  1.00  0.00    -0.206 NA 
HETATM   30  C   UNL     1     -10.194  10.168  66.533  1.00  0.00    -0.223 A  
BRANCH  28  31
HETATM   31  C   UNL     1     -10.942  12.461  65.871  1.00  0.00    -0.323 A  
HETATM   32  C   UNL     1     -10.778  13.546  64.987  1.00  0.00    -0.366 A  
HETATM   33  C   UNL     1     -11.223  14.819  65.323  1.00  0.00    -0.366 A  
HETATM   34  C   UNL     1     -11.839  15.063  66.539  1.00  0.00    -0.052 A  
HETATM   35  F   UNL     1     -11.023  15.829  64.466  1.00  0.00    -0.420 F  
HETATM   36  C   UNL     1     -12.035  14.008  67.425  1.00  0.00    -0.439 A  
HETATM   37  C   UNL     1     -11.601  12.720  67.089  1.00  0.00    -0.426 A  
ENDBRANCH  28  31
ENDBRANCH  24  25
ENDBRANCH  14  23
TORSDOF 6
ENDMDL
MODEL       39
REMARK 921   NORMALIZED FREE ENERGY PREDICTED BY IDOCK:   -3.98 KCAL/MOL
REMARK 922        TOTAL FREE ENERGY PREDICTED BY IDOCK:   -6.74 KCAL/MOL
REMARK 923 INTER-LIGAND FREE ENERGY PREDICTED BY IDOCK:   -6.52 KCAL/MOL
REMARK 924 INTRA-LIGAND FREE ENERGY PREDICTED BY IDOCK:   -0.22 KCAL/MOL
REMARK 927      BINDING AFFINITY PREDICTED BY RF-SCORE:    0.00 PKD
ROOT
HETATM    1  C   UNL     1     -10.646  13.602  66.495  1.00  0.00    -0.282 C  
HETATM    2  C   UNL     1     -10.658  15.031  65.959  1.00  0.00    -0.329 C  
HETATM    3  C   UNL     1     -10.105  16.081  66.960  1.00  0.00    -0.271 C  
HETATM    4  C   UNL     1      -9.184  17.105  66.238  1.00  0.00    -0.260 C  
HETATM    5  C   UNL     1      -8.439  18.087  67.174  1.00  0.00    -0.234 C  
HETATM    6  C   UNL     1     -11.197  12.058  68.143  1.00  0.00    -0.260 C  
HETATM    7  C   UNL     1      -7.878  17.453  68.453  1.00  0.00    -0.257 C  
HETATM    8  C   UNL     1     -10.949  13.548  67.981  1.00  0.00    -0.271 C  
HETATM    9  C   UNL     1      -8.906  16.553  69.119  1.00  0.00    -0.159 C  
HETATM   10  C   UNL     1     -11.900  11.656  69.425  1.00  0.00    -0.408 C  
HETATM   11  O   UNL     1     -12.002  11.752  66.993  1.00  0.00    -0.610 OA 
HETATM   12  C   UNL     1      -9.288  15.462  68.111  1.00  0.00    -0.197 C  
HETATM   13  C   UNL     1     -11.694  12.646  65.994  1.00  0.00    -0.417 C  
HETATM   14  C   UNL     1      -9.845  14.189  68.808  1.00  0.00    -0.168 C  
HETATM   15  O   UNL     1     -12.167  12.624  64.876  1.00  0.00    -0.422 OA 
ENDROOT
BRANCH   5  16
HETATM   16  N   UNL     1      -7.350  18.733  66.461  1.00  0.00    -0.226 N  
HETATM   17  H   UNL     1      -7.421  19.730  66.254  1.00  0.00     0.000 HD 
HETATM   18  C   UNL     1      -6.240  18.058  66.059  1.00  0.00    -0.242 C  
HETATM   19  O   UNL     1      -5.987  16.894  66.325  1.00  0.00    -0.290 OA 
BRANCH  18  20
HETATM   20  O   UNL     1      -5.434  18.906  65.375  1.00  0.00    -0.156 OA 
BRANCH  20  21
HETATM   21  C   UNL     1      -5.824  20.283  65.454  1.00  0.00    -0.193 C  
HETATM   22  C   UNL     1      -6.099  20.775  64.043  1.00  0.00    -0.352 C  
ENDBRANCH  20  21
ENDBRANCH  18  20
ENDBRANCH   5  16
BRANCH  14  23
HETATM   23  C   UNL     1      -8.643  13.285  68.920  1.00  0.00     0.261 C  
HETATM   24  C   UNL     1      -8.039  12.589  67.949  1.00  0.00    -0.163 C  
BRANCH  24  25
HETATM   25  C   UNL     1      -7.168  11.461  68.313  1.00  0.00    -0.082 A  
HETATM   26  C   UNL     1      -6.620   9.146  68.148  1.00  0.00    -0.060 A  
HETATM   27  C   UNL     1      -7.171  10.293  67.573  1.00  0.00    -0.088 A  
HETATM   28  C   UNL     1      -6.111   9.167  69.457  1.00  0.00    -0.036 A  
HETATM   29  N   UNL     1      -6.548  11.555  69.516  1.00  0.00    -0.119 NA 
HETATM   30  C   UNL     1      -6.051  10.424  70.056  1.00  0.00    -0.083 A  
BRANCH  28  31
HETATM   31  C   UNL     1      -5.810   7.940  70.215  1.00  0.00    -0.022 A  
HETATM   32  C   UNL     1      -5.792   6.693  69.558  1.00  0.00    -0.015 A  
HETATM   33  C   UNL     1      -5.659   5.508  70.272  1.00  0.00    -0.008 A  
HETATM   34  C   UNL     1      -5.546   5.514  71.652  1.00  0.00    -0.017 A  
HETATM   35  F   UNL     1      -5.674   4.343  69.612  1.00  0.00    -0.013 F  
HETATM   36  C   UNL     1      -5.539   6.730  72.328  1.00  0.00    -0.037 A  
HETATM   37  C   UNL     1      -5.660   7.929  71.615  1.00  0.00    -0.035 A  
ENDBRANCH  28  31
ENDBRANCH  24  25
ENDBRANCH  14  23
TORSDOF 6
ENDMDL
MODEL       40
REMARK 921   NORMALIZED FREE ENERGY PREDICTED BY IDOCK:   -3.94 KCAL/MOL
REMARK 922        TOTAL FREE ENERGY PREDICTED BY IDOCK:   -6.68 KCAL/MOL
REMARK 923 INTER-LIGAND FREE ENERGY PREDICTED BY IDOCK:   -5.61 KCAL/MOL
REMARK 924 INTRA-LIGAND FREE ENERGY PREDICTED BY IDOCK:   -1.07 KCAL/MOL
REMARK 927      BINDING AFFINITY PREDICTED BY RF-SCORE:    0.00 PKD
ROOT
HETATM    1  C   UNL     1      -8.298   4.559  66.263  1.00  0.00    -0.110 C  
HETATM    2  C   UNL     1      -8.119   3.317  67.133  1.00  0.00    -0.083 C  
HETATM    3  C   UNL     1      -7.003   3.458  68.204  1.00  0.00    -0.050 C  
HETATM    4  C   UNL     1      -7.463   2.864  69.566  1.00  0.00    -0.044 C  
HETATM    5  C   UNL     1      -6.496   3.113  70.748  1.00  0.00    -0.027 C  
HETATM    6  C   UNL     1      -7.412   6.193  64.868  1.00  0.00    -0.083 C  
HETATM    7  C   UNL     1      -5.887   4.520  70.791  1.00  0.00    -0.017 C  
HETATM    8  C   UNL     1      -6.978   5.250  65.978  1.00  0.00    -0.067 C  
HETATM    9  C   UNL     1      -5.384   4.946  69.422  1.00  0.00    -0.004 C  
HETATM   10  C   UNL     1      -6.283   6.795  64.054  1.00  0.00    -0.035 C  
HETATM   11  O   UNL     1      -8.244   5.350  64.054  1.00  0.00    -0.122 OA 
HETATM   12  C   UNL     1      -6.579   4.918  68.461  1.00  0.00    -0.049 C  
HETATM   13  C   UNL     1      -8.791   4.374  64.854  1.00  0.00    -0.143 C  
HETATM   14  C   UNL     1      -6.369   5.850  67.236  1.00  0.00    -0.042 C  
HETATM   15  O   UNL     1      -9.581   3.533  64.476  1.00  0.00    -0.149 OA 
ENDROOT
BRANCH   5  16
HETATM   16  N   UNL     1      -7.168   2.860  72.010  1.00  0.00    -0.038 N  
HETATM   17  H   UNL     1      -6.821   2.111  72.611  1.00  0.00     0.000 HD 
HETATM   18  C   UNL     1      -8.244   3.584  72.421  1.00  0.00    -0.083 C  
HETATM   19  O   UNL     1      -8.697   4.562  71.848  1.00  0.00    -0.114 OA 
BRANCH  18  20
HETATM   20  O   UNL     1      -8.686   3.083  73.601  1.00  0.00    -0.073 OA 
BRANCH  20  21
HETATM   21  C   UNL     1     -10.113   3.030  73.721  1.00  0.00    -0.117 C  
HETATM   22  C   UNL     1     -10.610   1.845  72.910  1.00  0.00    -0.235 C  
ENDBRANCH  20  21
ENDBRANCH  18  20
ENDBRANCH   5  16
BRANCH  14  23
HETATM   23  C   UNL     1      -7.064   7.128  67.631  1.00  0.00    -0.089 C  
HETATM   24  C   UNL     1      -7.853   7.345  68.691  1.00  0.00    -0.122 C  
BRANCH  24  25
HETATM   25  C   UNL     1      -8.760   8.503  68.682  1.00  0.00    -0.139 A  
HETATM   26  C   UNL     1     -10.826   9.495  68.024  1.00  0.00    -0.225 A  
HETATM   27  C   UNL     1     -10.100   8.355  68.372  1.00  0.00    -0.224 A  
HETATM   28  C   UNL     1     -10.207  10.754  67.954  1.00  0.00    -0.203 A  
HETATM   29  N   UNL     1      -8.168   9.721  68.773  1.00  0.00    -0.104 NA 
HETATM   30  C   UNL     1      -8.890  10.798  68.404  1.00  0.00    -0.146 A  
BRANCH  28  31
HETATM   31  C   UNL     1     -10.837  11.916  67.302  1.00  0.00    -0.294 A  
HETATM   32  C   UNL     1     -11.097  13.085  68.044  1.00  0.00    -0.288 A  
HETATM   33  C   UNL     1     -11.822  14.136  67.496  1.00  0.00    -0.401 A  
HETATM   34  C   UNL     1     -12.316  14.067  66.205  1.00  0.00    -0.491 A  
HETATM   35  F   UNL     1     -12.071  15.219  68.245  1.00  0.00    -0.329 F  
HETATM   36  C   UNL     1     -12.057  12.935  65.438  1.00  0.00    -0.501 A  
HETATM   37  C   UNL     1     -11.318  11.876  65.978  1.00  0.00    -0.375 A  
ENDBRANCH  28  31
ENDBRANCH  24  25
ENDBRANCH  14  23
TORSDOF 6
ENDMDL
MODEL       41
REMARK 921   NORMALIZED FREE ENERGY PREDICTED BY IDOCK:   -3.81 KCAL/MOL
REMARK 922        TOTAL FREE ENERGY PREDICTED BY IDOCK:   -6.50 KCAL/MOL
REMARK 923 INTER-LIGAND FREE ENERGY PREDICTED BY IDOCK:   -5.73 KCAL/MOL
REMARK 924 INTRA-LIGAND FREE ENERGY PREDICTED BY IDOCK:   -0.77 KCAL/MOL
REMARK 927      BINDING AFFINITY PREDICTED BY RF-SCORE:    0.00 PKD
ROOT
HETATM    1  C   UNL     1      -7.927   6.861  64.840  1.00  0.00    -0.124 C  
HETATM    2  C   UNL     1      -7.790   5.471  65.456  1.00  0.00    -0.099 C  
HETATM    3  C   UNL     1      -7.048   5.460  66.820  1.00  0.00    -0.069 C  
HETATM    4  C   UNL     1      -7.758   4.514  67.830  1.00  0.00    -0.081 C  
HETATM    5  C   UNL     1      -7.205   4.566  69.275  1.00  0.00    -0.052 C  
HETATM    6  C   UNL     1      -6.975   8.861  64.136  1.00  0.00    -0.089 C  
HETATM    7  C   UNL     1      -6.871   5.975  69.781  1.00  0.00    -0.064 C  
HETATM    8  C   UNL     1      -6.712   7.727  65.112  1.00  0.00    -0.051 C  
HETATM    9  C   UNL     1      -6.091   6.764  68.744  1.00  0.00    -0.026 C  
HETATM   10  C   UNL     1      -5.782   9.749  63.841  1.00  0.00    -0.105 C  
HETATM   11  O   UNL     1      -7.402   8.160  62.957  1.00  0.00    -0.093 OA 
HETATM   12  C   UNL     1      -6.956   6.849  67.480  1.00  0.00    -0.083 C  
HETATM   13  C   UNL     1      -7.979   6.971  63.341  1.00  0.00    -0.062 C  
HETATM   14  C   UNL     1      -6.576   8.064  66.589  1.00  0.00    -0.056 C  
HETATM   15  O   UNL     1      -8.486   6.172  62.580  1.00  0.00    -0.062 OA 
ENDROOT
BRANCH   5  16
HETATM   16  N   UNL     1      -8.145   3.953  70.196  1.00  0.00    -0.056 N  
HETATM   17  H   UNL     1      -7.880   3.085  70.663  1.00  0.00     0.000 HD 
HETATM   18  C   UNL     1      -9.366   4.492  70.458  1.00  0.00    -0.148 C  
HETATM   19  O   UNL     1      -9.766   5.568  70.044  1.00  0.00    -0.158 OA 
BRANCH  18  20
HETATM   20  O   UNL     1     -10.036   3.672  71.305  1.00  0.00    -0.170 OA 
BRANCH  20  21
HETATM   21  C   UNL     1     -10.431   4.291  72.535  1.00  0.00    -0.152 C  
HETATM   22  C   UNL     1     -10.847   3.194  73.501  1.00  0.00    -0.316 C  
ENDBRANCH  20  21
ENDBRANCH  18  20
ENDBRANCH   5  16
BRANCH  14  23
HETATM   23  C   UNL     1      -7.554   9.135  67.003  1.00  0.00    -0.091 C  
HETATM   24  C   UNL     1      -8.879   9.028  67.157  1.00  0.00    -0.130 C  
BRANCH  24  25
HETATM   25  C   UNL     1      -9.700  10.249  67.151  1.00  0.00    -0.173 A  
HETATM   26  C   UNL     1     -10.293  12.327  66.143  1.00  0.00    -0.269 A  
HETATM   27  C   UNL     1      -9.819  11.021  66.010  1.00  0.00    -0.273 A  
HETATM   28  C   UNL     1     -10.603  12.859  67.406  1.00  0.00    -0.242 A  
HETATM   29  N   UNL     1     -10.135  10.677  68.363  1.00  0.00    -0.160 NA 
HETATM   30  C   UNL     1     -10.560  11.953  68.463  1.00  0.00    -0.222 A  
BRANCH  28  31
HETATM   31  C   UNL     1     -10.803  14.301  67.636  1.00  0.00    -0.273 A  
HETATM   32  C   UNL     1     -10.117  15.242  66.843  1.00  0.00    -0.257 A  
HETATM   33  C   UNL     1     -10.171  16.600  67.135  1.00  0.00    -0.290 A  
HETATM   34  C   UNL     1     -10.897  17.071  68.216  1.00  0.00    -0.341 A  
HETATM   35  F   UNL     1      -9.482  17.460  66.373  1.00  0.00    -0.250 F  
HETATM   36  C   UNL     1     -11.603  16.168  69.005  1.00  0.00    -0.298 A  
HETATM   37  C   UNL     1     -11.564  14.800  68.711  1.00  0.00    -0.347 A  
ENDBRANCH  28  31
ENDBRANCH  24  25
ENDBRANCH  14  23
TORSDOF 6
ENDMDL
MODEL       42
REMARK 921   NORMALIZED FREE ENERGY PREDICTED BY IDOCK:   -3.76 KCAL/MOL
REMARK 922        TOTAL FREE ENERGY PREDICTED BY IDOCK:   -6.43 KCAL/MOL
REMARK 923 INTER-LIGAND FREE ENERGY PREDICTED BY IDOCK:   -5.26 KCAL/MOL
REMARK 924 INTRA-LIGAND FREE ENERGY PREDICTED BY IDOCK:   -1.18 KCAL/MOL
REMARK 927      BINDING AFFINITY PREDICTED BY RF-SCORE:    0.00 PKD
ROOT
HETATM    1  C   UNL     1     -10.365  14.753  68.453  1.00  0.00    -0.233 C  
HETATM    2  C   UNL     1     -11.082  14.353  69.739  1.00  0.00    -0.202 C  
HETATM    3  C   UNL     1     -11.963  13.081  69.597  1.00  0.00    -0.367 C  
HETATM    4  C   UNL     1     -11.794  12.149  70.830  1.00  0.00     0.082 C  
HETATM    5  C   UNL     1     -12.489  10.771  70.708  1.00  0.00    -0.387 C  
HETATM    6  C   UNL     1     -10.417  15.261  66.185  1.00  0.00    -0.309 C  
HETATM    7  C   UNL     1     -12.358  10.109  69.331  1.00  0.00     0.372 C  
HETATM    8  C   UNL     1     -11.209  14.482  67.221  1.00  0.00    -0.341 C  
HETATM    9  C   UNL     1     -12.643  11.096  68.212  1.00  0.00     1.516 C  
HETATM   10  C   UNL     1     -11.152  15.543  64.889  1.00  0.00    -0.428 C  
HETATM   11  O   UNL     1     -10.111  16.479  66.882  1.00  0.00    -0.265 OA 
HETATM   12  C   UNL     1     -11.637  12.246  68.343  1.00  0.00    -0.377 C  
HETATM   13  C   UNL     1     -10.065  16.210  68.231  1.00  0.00    -0.232 C  
HETATM   14  C   UNL     1     -11.421  12.992  66.997  1.00  0.00    -0.381 C  
HETATM   15  O   UNL     1      -9.780  17.022  69.088  1.00  0.00    -0.244 OA 
ENDROOT
BRANCH   5  16
HETATM   16  N   UNL     1     -11.976   9.858  71.713  1.00  0.00    -0.339 N  
HETATM   17  H   UNL     1     -10.989   9.911  71.967  1.00  0.00     0.000 HD 
HETATM   18  C   UNL     1     -12.763   8.935  72.329  1.00  0.00    -0.397 C  
HETATM   19  O   UNL     1     -13.971   8.832  72.189  1.00  0.00    -0.421 OA 
BRANCH  18  20
HETATM   20  O   UNL     1     -11.998   8.196  73.169  1.00  0.00    -0.192 OA 
BRANCH  20  21
HETATM   21  C   UNL     1     -10.957   7.455  72.520  1.00  0.00    -0.296 C  
HETATM   22  C   UNL     1     -10.206   6.670  73.584  1.00  0.00    -0.325 C  
ENDBRANCH  20  21
ENDBRANCH  18  20
ENDBRANCH   5  16
BRANCH  14  23
HETATM   23  C   UNL     1     -10.190  12.341  66.417  1.00  0.00    -0.247 C  
HETATM   24  C   UNL     1     -10.116  11.471  65.402  1.00  0.00    -0.304 C  
BRANCH  24  25
HETATM   25  C   UNL     1      -8.910  10.641  65.258  1.00  0.00    -0.189 A  
HETATM   26  C   UNL     1      -7.570   9.166  63.949  1.00  0.00    -0.113 A  
HETATM   27  C   UNL     1      -8.478  10.224  64.013  1.00  0.00    -0.177 A  
HETATM   28  C   UNL     1      -7.136   8.515  65.116  1.00  0.00    -0.075 A  
HETATM   29  N   UNL     1      -8.396  10.138  66.409  1.00  0.00    -0.123 NA 
HETATM   30  C   UNL     1      -7.543   9.099  66.313  1.00  0.00    -0.092 A  
BRANCH  28  31
HETATM   31  C   UNL     1      -6.437   7.218  65.091  1.00  0.00    -0.040 A  
HETATM   32  C   UNL     1      -6.611   6.345  63.998  1.00  0.00    -0.033 A  
HETATM   33  C   UNL     1      -6.085   5.058  64.017  1.00  0.00    -0.022 A  
HETATM   34  C   UNL     1      -5.379   4.591  65.112  1.00  0.00    -0.013 A  
HETATM   35  F   UNL     1      -6.296   4.251  62.969  1.00  0.00    -0.020 F  
HETATM   36  C   UNL     1      -5.172   5.436  66.198  1.00  0.00    -0.012 A  
HETATM   37  C   UNL     1      -5.687   6.737  66.182  1.00  0.00    -0.029 A  
ENDBRANCH  28  31
ENDBRANCH  24  25
ENDBRANCH  14  23
TORSDOF 6
ENDMDL
MODEL       43
REMARK 921   NORMALIZED FREE ENERGY PREDICTED BY IDOCK:   -3.34 KCAL/MOL
REMARK 922        TOTAL FREE ENERGY PREDICTED BY IDOCK:   -5.87 KCAL/MOL
REMARK 923 INTER-LIGAND FREE ENERGY PREDICTED BY IDOCK:   -5.38 KCAL/MOL
REMARK 924 INTRA-LIGAND FREE ENERGY PREDICTED BY IDOCK:   -0.49 KCAL/MOL
REMARK 927      BINDING AFFINITY PREDICTED BY RF-SCORE:    0.00 PKD
ROOT
HETATM    1  C   UNL     1      -7.669   7.123  64.965  1.00  0.00    -0.115 C  
HETATM    2  C   UNL     1      -7.203   5.740  65.411  1.00  0.00    -0.070 C  
HETATM    3  C   UNL     1      -6.234   5.766  66.625  1.00  0.00    -0.030 C  
HETATM    4  C   UNL     1      -6.589   4.646  67.643  1.00  0.00    -0.047 C  
HETATM    5  C   UNL     1      -5.799   4.696  68.973  1.00  0.00    -0.017 C  
HETATM    6  C   UNL     1      -7.192   9.301  64.308  1.00  0.00    -0.101 C  
HETATM    7  C   UNL     1      -5.607   6.104  69.550  1.00  0.00    -0.013 C  
HETATM    8  C   UNL     1      -6.578   8.168  65.112  1.00  0.00    -0.052 C  
HETATM    9  C   UNL     1      -5.164   7.086  68.478  1.00  0.00    -0.016 C  
HETATM   10  C   UNL     1      -6.229  10.401  63.905  1.00  0.00    -0.063 C  
HETATM   11  O   UNL     1      -7.708   8.618  63.155  1.00  0.00    -0.114 OA 
HETATM   12  C   UNL     1      -6.246   7.104  67.392  1.00  0.00    -0.045 C  
HETATM   13  C   UNL     1      -8.009   7.324  63.513  1.00  0.00    -0.066 C  
HETATM   14  C   UNL     1      -6.232   8.423  66.571  1.00  0.00    -0.054 C  
HETATM   15  O   UNL     1      -8.512   6.502  62.775  1.00  0.00     0.003 OA 
ENDROOT
BRANCH   5  16
HETATM   16  N   UNL     1      -6.446   3.868  69.975  1.00  0.00    -0.031 N  
HETATM   17  H   UNL     1      -6.020   2.975  70.224  1.00  0.00     0.000 HD 
HETATM   18  C   UNL     1      -7.600   4.239  70.592  1.00  0.00    -0.052 C  
HETATM   19  O   UNL     1      -8.158   5.317  70.458  1.00  0.00    -0.099 OA 
BRANCH  18  20
HETATM   20  O   UNL     1      -7.990   3.245  71.428  1.00  0.00    -0.057 OA 
BRANCH  20  21
HETATM   21  C   UNL     1      -8.705   3.695  72.585  1.00  0.00    -0.093 C  
HETATM   22  C   UNL     1     -10.106   4.089  72.148  1.00  0.00    -0.233 C  
ENDBRANCH  20  21
ENDBRANCH  18  20
ENDBRANCH   5  16
BRANCH  14  23
HETATM   23  C   UNL     1      -7.277   9.277  67.245  1.00  0.00    -0.087 C  
HETATM   24  C   UNL     1      -8.242   8.890  68.088  1.00  0.00    -0.114 C  
BRANCH  24  25
HETATM   25  C   UNL     1      -9.399   9.773  68.304  1.00  0.00    -0.129 A  
HETATM   26  C   UNL     1     -10.642  11.721  67.712  1.00  0.00    -0.232 A  
HETATM   27  C   UNL     1      -9.794  10.678  67.335  1.00  0.00    -0.198 A  
HETATM   28  C   UNL     1     -11.053  11.872  69.046  1.00  0.00    -0.300 A  
HETATM   29  N   UNL     1      -9.899   9.799  69.565  1.00  0.00    -0.201 NA 
HETATM   30  C   UNL     1     -10.692  10.835  69.904  1.00  0.00    -0.144 A  
BRANCH  28  31
HETATM   31  C   UNL     1     -11.679  13.106  69.552  1.00  0.00    -0.382 A  
HETATM   32  C   UNL     1     -11.564  14.305  68.821  1.00  0.00    -0.357 A  
HETATM   33  C   UNL     1     -12.014  15.511  69.345  1.00  0.00    -0.336 A  
HETATM   34  C   UNL     1     -12.585  15.574  70.604  1.00  0.00    -0.493 A  
HETATM   35  F   UNL     1     -11.861  16.633  68.628  1.00  0.00    -0.222 F  
HETATM   36  C   UNL     1     -12.733  14.404  71.342  1.00  0.00    -0.413 A  
HETATM   37  C   UNL     1     -12.293  13.183  70.817  1.00  0.00    -0.404 A  
ENDBRANCH  28  31
ENDBRANCH  24  25
ENDBRANCH  14  23
TORSDOF 6
ENDMDL
MODEL       44
REMARK 921   NORMALIZED FREE ENERGY PREDICTED BY IDOCK:   -3.33 KCAL/MOL
REMARK 922        TOTAL FREE ENERGY PREDICTED BY IDOCK:   -5.85 KCAL/MOL
REMARK 923 INTER-LIGAND FREE ENERGY PREDICTED BY IDOCK:   -6.55 KCAL/MOL
REMARK 924 INTRA-LIGAND FREE ENERGY PREDICTED BY IDOCK:    0.70 KCAL/MOL
REMARK 927      BINDING AFFINITY PREDICTED BY RF-SCORE:    0.00 PKD
ROOT
HETATM    1  C   UNL     1     -10.856  15.143  65.113  1.00  0.00    -0.437 C  
HETATM    2  C   UNL     1     -10.527  16.205  66.159  1.00  0.00    -0.334 C  
HETATM    3  C   UNL     1     -10.045  15.621  67.515  1.00  0.00    -0.253 C  
HETATM    4  C   UNL     1      -8.840  16.431  68.071  1.00  0.00    -0.184 C  
HETATM    5  C   UNL     1      -8.169  15.826  69.328  1.00  0.00    -0.247 C  
HETATM    6  C   UNL     1     -11.987  13.214  64.480  1.00  0.00    -0.389 C  
HETATM    7  C   UNL     1      -8.007  14.301  69.295  1.00  0.00     0.125 C  
HETATM    8  C   UNL     1     -11.478  13.906  65.733  1.00  0.00    -0.324 C  
HETATM    9  C   UNL     1      -9.283  13.619  68.831  1.00  0.00     0.164 C  
HETATM   10  C   UNL     1     -13.006  12.116  64.717  1.00  0.00     0.308 C  
HETATM   11  O   UNL     1     -12.563  14.302  63.738  1.00  0.00    -0.821 OA 
HETATM   12  C   UNL     1      -9.605  14.147  67.427  1.00  0.00    -0.229 C  
HETATM   13  C   UNL     1     -11.908  15.461  64.085  1.00  0.00    -0.104 C  
HETATM   14  C   UNL     1     -10.493  13.160  66.619  1.00  0.00    -0.280 C  
HETATM   15  O   UNL     1     -12.126  16.551  63.596  1.00  0.00    -0.578 OA 
ENDROOT
BRANCH   5  16
HETATM   16  N   UNL     1      -6.865  16.427  69.541  1.00  0.00    -0.222 N  
HETATM   17  H   UNL     1      -6.103  15.840  69.881  1.00  0.00     0.000 HD 
HETATM   18  C   UNL     1      -6.622  17.745  69.305  1.00  0.00    -0.239 C  
HETATM   19  O   UNL     1      -7.414  18.530  68.809  1.00  0.00    -0.290 OA 
BRANCH  18  20
HETATM   20  O   UNL     1      -5.341  18.023  69.647  1.00  0.00    -0.184 OA 
BRANCH  20  21
HETATM   21  C   UNL     1      -5.142  18.257  71.047  1.00  0.00    -0.260 C  
HETATM   22  C   UNL     1      -5.489  19.708  71.335  1.00  0.00    -0.351 C  
ENDBRANCH  20  21
ENDBRANCH  18  20
ENDBRANCH   5  16
BRANCH  14  23
HETATM   23  C   UNL     1      -9.502  12.371  65.800  1.00  0.00    -0.094 C  
HETATM   24  C   UNL     1      -9.751  11.519  64.798  1.00  0.00    -0.250 C  
BRANCH  24  25
HETATM   25  C   UNL     1      -8.716  10.547  64.412  1.00  0.00    -0.177 A  
HETATM   26  C   UNL     1      -7.924   8.867  62.917  1.00  0.00    -0.159 A  
HETATM   27  C   UNL     1      -8.672  10.026  63.132  1.00  0.00    -0.217 A  
HETATM   28  C   UNL     1      -7.266   8.224  63.978  1.00  0.00    -0.090 A  
HETATM   29  N   UNL     1      -7.970  10.041  65.426  1.00  0.00    -0.135 NA 
HETATM   30  C   UNL     1      -7.282   8.905  65.193  1.00  0.00    -0.087 A  
BRANCH  28  31
HETATM   31  C   UNL     1      -6.734   6.854  63.872  1.00  0.00    -0.049 A  
HETATM   32  C   UNL     1      -6.896   5.950  64.941  1.00  0.00    -0.048 A  
HETATM   33  C   UNL     1      -6.278   4.705  64.929  1.00  0.00    -0.034 A  
HETATM   34  C   UNL     1      -5.478   4.315  63.868  1.00  0.00    -0.013 A  
HETATM   35  F   UNL     1      -6.436   3.886  65.977  1.00  0.00    -0.033 F  
HETATM   36  C   UNL     1      -5.315   5.177  62.788  1.00  0.00    -0.013 A  
HETATM   37  C   UNL     1      -5.944   6.427  62.786  1.00  0.00    -0.027 A  
ENDBRANCH  28  31
ENDBRANCH  24  25
ENDBRANCH  14  23
TORSDOF 6
ENDMDL
MODEL       45
REMARK 921   NORMALIZED FREE ENERGY PREDICTED BY IDOCK:   -3.31 KCAL/MOL
REMARK 922        TOTAL FREE ENERGY PREDICTED BY IDOCK:   -5.83 KCAL/MOL
REMARK 923 INTER-LIGAND FREE ENERGY PREDICTED BY IDOCK:   -6.18 KCAL/MOL
REMARK 924 INTRA-LIGAND FREE ENERGY PREDICTED BY IDOCK:    0.35 KCAL/MOL
REMARK 927      BINDING AFFINITY PREDICTED BY RF-SCORE:    0.00 PKD
ROOT
HETATM    1  C   UNL     1      -8.134   7.175  65.990  1.00  0.00    -0.115 C  
HETATM    2  C   UNL     1      -8.038   6.064  67.033  1.00  0.00    -0.106 C  
HETATM    3  C   UNL     1      -7.435   6.527  68.387  1.00  0.00    -0.088 C  
HETATM    4  C   UNL     1      -8.226   5.923  69.582  1.00  0.00    -0.110 C  
HETATM    5  C   UNL     1      -7.820   6.463  70.975  1.00  0.00    -0.110 C  
HETATM    6  C   UNL     1      -7.150   8.886  64.763  1.00  0.00    -0.088 C  
HETATM    7  C   UNL     1      -7.561   7.974  71.025  1.00  0.00    -0.083 C  
HETATM    8  C   UNL     1      -6.967   8.140  66.074  1.00  0.00    -0.058 C  
HETATM    9  C   UNL     1      -6.694   8.425  69.861  1.00  0.00    -0.042 C  
HETATM   10  C   UNL     1      -5.948   9.688  64.304  1.00  0.00    -0.088 C  
HETATM   11  O   UNL     1      -7.446   7.824  63.842  1.00  0.00    -0.092 OA 
HETATM   12  C   UNL     1      -7.431   8.058  68.567  1.00  0.00    -0.102 C  
HETATM   13  C   UNL     1      -8.039   6.796  64.538  1.00  0.00    -0.070 C  
HETATM   14  C   UNL     1      -6.984   8.939  67.368  1.00  0.00    -0.075 C  
HETATM   15  O   UNL     1      -8.455   5.772  64.036  1.00  0.00    -0.085 OA 
ENDROOT
BRANCH   5  16
HETATM   16  N   UNL     1      -8.837   6.134  71.958  1.00  0.00    -0.139 N  
HETATM   17  H   UNL     1      -9.772   5.886  71.633  1.00  0.00     0.000 HD 
HETATM   18  C   UNL     1      -8.589   6.144  73.295  1.00  0.00    -0.123 C  
HETATM   19  O   UNL     1      -7.496   6.327  73.808  1.00  0.00    -0.090 OA 
BRANCH  18  20
HETATM   20  O   UNL     1      -9.735   5.853  73.957  1.00  0.00    -0.156 OA 
BRANCH  20  21
HETATM   21  C   UNL     1     -10.532   4.836  73.337  1.00  0.00    -0.209 C  
HETATM   22  C   UNL     1     -11.785   5.493  72.783  1.00  0.00    -0.240 C  
ENDBRANCH  20  21
ENDBRANCH  18  20
ENDBRANCH   5  16
BRANCH  14  23
HETATM   23  C   UNL     1      -8.015  10.039  67.323  1.00  0.00    -0.106 C  
HETATM   24  C   UNL     1      -8.273  10.889  66.322  1.00  0.00    -0.165 C  
BRANCH  24  25
HETATM   25  C   UNL     1      -9.003  12.133  66.611  1.00  0.00    -0.198 A  
HETATM   26  C   UNL     1     -10.187  14.053  65.838  1.00  0.00    -0.332 A  
HETATM   27  C   UNL     1      -9.814  12.721  65.657  1.00  0.00    -0.190 A  
HETATM   28  C   UNL     1      -9.721  14.792  66.939  1.00  0.00    -0.247 A  
HETATM   29  N   UNL     1      -8.662  12.768  67.761  1.00  0.00    -0.172 NA 
HETATM   30  C   UNL     1      -9.014  14.062  67.892  1.00  0.00    -0.188 A  
BRANCH  28  31
HETATM   31  C   UNL     1      -9.824  16.260  67.014  1.00  0.00    -0.247 A  
HETATM   32  C   UNL     1      -9.763  16.907  68.265  1.00  0.00    -0.256 A  
HETATM   33  C   UNL     1     -10.006  18.271  68.379  1.00  0.00    -0.382 A  
HETATM   34  C   UNL     1     -10.320  19.036  67.269  1.00  0.00    -0.505 A  
HETATM   35  F   UNL     1      -9.964  18.842  69.590  1.00  0.00    -0.240 F  
HETATM   36  C   UNL     1     -10.367  18.430  66.018  1.00  0.00    -0.397 A  
HETATM   37  C   UNL     1     -10.112  17.060  65.892  1.00  0.00    -0.281 A  
ENDBRANCH  28  31
ENDBRANCH  24  25
ENDBRANCH  14  23
TORSDOF 6
ENDMDL
MODEL       46
REMARK 921   NORMALIZED FREE ENERGY PREDICTED BY IDOCK:   -3.26 KCAL/MOL
REMARK 922        TOTAL FREE ENERGY PREDICTED BY IDOCK:   -5.76 KCAL/MOL
REMARK 923 INTER-LIGAND FREE ENERGY PREDICTED BY IDOCK:   -4.99 KCAL/MOL
REMARK 924 INTRA-LIGAND FREE ENERGY PREDICTED BY IDOCK:   -0.78 KCAL/MOL
REMARK 927      BINDING AFFINITY PREDICTED BY RF-SCORE:    0.00 PKD
ROOT
HETATM    1  C   UNL     1     -11.092   7.224  71.351  1.00  0.00    -0.268 C  
HETATM    2  C   UNL     1     -11.006   8.698  70.964  1.00  0.00    -0.314 C  
HETATM    3  C   UNL     1      -9.555   9.249  70.910  1.00  0.00    -0.339 C  
HETATM    4  C   UNL     1      -9.353  10.158  69.665  1.00  0.00    -0.215 C  
HETATM    5  C   UNL     1      -7.895  10.614  69.418  1.00  0.00    -0.121 C  
HETATM    6  C   UNL     1     -10.568   5.481  72.796  1.00  0.00    -0.225 C  
HETATM    7  C   UNL     1      -6.837   9.526  69.645  1.00  0.00    -0.063 C  
HETATM    8  C   UNL     1     -10.037   6.840  72.372  1.00  0.00    -0.188 C  
HETATM    9  C   UNL     1      -7.086   8.775  70.941  1.00  0.00    -0.076 C  
HETATM   10  C   UNL     1      -9.986   4.935  74.086  1.00  0.00    -0.211 C  
HETATM   11  O   UNL     1     -11.977   5.726  72.926  1.00  0.00    -0.128 OA 
HETATM   12  C   UNL     1      -8.481   8.145  70.850  1.00  0.00    -0.136 C  
HETATM   13  C   UNL     1     -12.322   6.751  72.076  1.00  0.00    -0.271 C  
HETATM   14  C   UNL     1      -8.633   6.918  71.792  1.00  0.00    -0.119 C  
HETATM   15  O   UNL     1     -13.452   7.163  71.914  1.00  0.00    -0.305 OA 
ENDROOT
BRANCH   5  16
HETATM   16  N   UNL     1      -7.750  11.128  68.067  1.00  0.00    -0.103 N  
HETATM   17  H   UNL     1      -7.550  12.120  67.938  1.00  0.00     0.000 HD 
HETATM   18  C   UNL     1      -7.871  10.334  66.969  1.00  0.00    -0.107 C  
HETATM   19  O   UNL     1      -8.011   9.122  66.986  1.00  0.00    -0.101 OA 
BRANCH  18  20
HETATM   20  O   UNL     1      -7.743  11.100  65.858  1.00  0.00    -0.072 OA 
BRANCH  20  21
HETATM   21  C   UNL     1      -8.824  10.973  64.926  1.00  0.00    -0.057 C  
HETATM   22  C   UNL     1     -10.085  11.492  65.595  1.00  0.00    -0.278 C  
ENDBRANCH  20  21
ENDBRANCH  18  20
ENDBRANCH   5  16
BRANCH  14  23
HETATM   23  C   UNL     1      -8.339   5.739  70.899  1.00  0.00    -0.125 C  
HETATM   24  C   UNL     1      -7.221   5.487  70.206  1.00  0.00    -0.067 C  
BRANCH  24  25
HETATM   25  C   UNL     1      -7.274   4.533  69.086  1.00  0.00    -0.052 A  
HETATM   26  C   UNL     1      -6.594   3.894  66.892  1.00  0.00    -0.046 A  
HETATM   27  C   UNL     1      -6.313   4.550  68.092  1.00  0.00    -0.037 A  
HETATM   28  C   UNL     1      -7.834   3.267  66.683  1.00  0.00    -0.080 A  
HETATM   29  N   UNL     1      -8.417   3.810  68.977  1.00  0.00    -0.072 NA 
HETATM   30  C   UNL     1      -8.670   3.212  67.796  1.00  0.00    -0.111 A  
BRANCH  28  31
HETATM   31  C   UNL     1      -8.296   2.840  65.351  1.00  0.00    -0.095 A  
HETATM   32  C   UNL     1      -9.648   3.005  64.988  1.00  0.00    -0.074 A  
HETATM   33  C   UNL     1     -10.142   2.477  63.801  1.00  0.00    -0.144 A  
HETATM   34  C   UNL     1      -9.322   1.769  62.938  1.00  0.00    -0.090 A  
HETATM   35  F   UNL     1     -11.439   2.633  63.506  1.00  0.00    -0.180 F  
HETATM   36  C   UNL     1      -7.977   1.608  63.258  1.00  0.00    -0.057 A  
HETATM   37  C   UNL     1      -7.470   2.147  64.446  1.00  0.00    -0.059 A  
ENDBRANCH  28  31
ENDBRANCH  24  25
ENDBRANCH  14  23
TORSDOF 6
ENDMDL
MODEL       47
REMARK 921   NORMALIZED FREE ENERGY PREDICTED BY IDOCK:   -3.16 KCAL/MOL
REMARK 922        TOTAL FREE ENERGY PREDICTED BY IDOCK:   -5.62 KCAL/MOL
REMARK 923 INTER-LIGAND FREE ENERGY PREDICTED BY IDOCK:   -6.31 KCAL/MOL
REMARK 924 INTRA-LIGAND FREE ENERGY PREDICTED BY IDOCK:    0.69 KCAL/MOL
REMARK 927      BINDING AFFINITY PREDICTED BY RF-SCORE:    0.00 PKD
ROOT
HETATM    1  C   UNL     1     -10.120  11.887  65.709  1.00  0.00    -0.272 C  
HETATM    2  C   UNL     1     -10.773  13.264  65.624  1.00  0.00    -0.292 C  
HETATM    3  C   UNL     1     -11.463  13.712  66.941  1.00  0.00    -0.369 C  
HETATM    4  C   UNL     1     -11.165  15.208  67.243  1.00  0.00    -0.324 C  
HETATM    5  C   UNL     1     -11.656  15.708  68.623  1.00  0.00    -0.382 C  
HETATM    6  C   UNL     1     -10.243   9.620  66.206  1.00  0.00    -0.216 C  
HETATM    7  C   UNL     1     -11.432  14.723  69.777  1.00  0.00    -0.330 C  
HETATM    8  C   UNL     1     -10.916  10.930  66.577  1.00  0.00    -0.187 C  
HETATM    9  C   UNL     1     -11.855  13.315  69.393  1.00  0.00    -0.386 C  
HETATM   10  C   UNL     1     -11.011   8.369  66.589  1.00  0.00     0.632 C  
HETATM   11  O   UNL     1     -10.114   9.731  64.780  1.00  0.00    -0.129 OA 
HETATM   12  C   UNL     1     -11.022  12.899  68.174  1.00  0.00    -0.273 C  
HETATM   13  C   UNL     1     -10.030  11.065  64.452  1.00  0.00    -0.312 C  
HETATM   14  C   UNL     1     -10.914  11.355  68.037  1.00  0.00    -0.290 C  
HETATM   15  O   UNL     1      -9.864  11.491  63.328  1.00  0.00    -0.352 OA 
ENDROOT
BRANCH   5  16
HETATM   16  N   UNL     1     -11.019  16.969  68.958  1.00  0.00    -0.284 N  
HETATM   17  H   UNL     1     -11.448  17.563  69.668  1.00  0.00     0.000 HD 
HETATM   18  C   UNL     1      -9.871  17.387  68.360  1.00  0.00    -0.316 C  
HETATM   19  O   UNL     1      -9.208  16.733  67.571  1.00  0.00    -0.213 OA 
BRANCH  18  20
HETATM   20  O   UNL     1      -9.551  18.616  68.834  1.00  0.00    -0.340 OA 
BRANCH  20  21
HETATM   21  C   UNL     1      -8.340  19.159  68.293  1.00  0.00    -0.335 C  
HETATM   22  C   UNL     1      -8.714  20.274  67.331  1.00  0.00    -0.428 C  
ENDBRANCH  20  21
ENDBRANCH  18  20
ENDBRANCH   5  16
BRANCH  14  23
HETATM   23  C   UNL     1      -9.603  11.024  68.706  1.00  0.00    -0.194 C  
HETATM   24  C   UNL     1      -8.445  10.679  68.128  1.00  0.00    -0.122 C  
BRANCH  24  25
HETATM   25  C   UNL     1      -7.420   9.999  68.934  1.00  0.00    -0.083 A  
HETATM   26  C   UNL     1      -6.079   8.074  69.361  1.00  0.00    -0.034 A  
HETATM   27  C   UNL     1      -6.759   8.884  68.451  1.00  0.00    -0.060 A  
HETATM   28  C   UNL     1      -6.096   8.359  70.736  1.00  0.00    -0.033 A  
HETATM   29  N   UNL     1      -7.329  10.388  70.231  1.00  0.00    -0.218 NA 
HETATM   30  C   UNL     1      -6.689   9.569  71.089  1.00  0.00    -0.001 A  
BRANCH  28  31
HETATM   31  C   UNL     1      -5.669   7.385  71.757  1.00  0.00    -0.036 A  
HETATM   32  C   UNL     1      -5.652   6.009  71.455  1.00  0.00    -0.022 A  
HETATM   33  C   UNL     1      -5.398   5.062  72.440  1.00  0.00    -0.008 A  
HETATM   34  C   UNL     1      -5.158   5.439  73.750  1.00  0.00    -0.021 A  
HETATM   35  F   UNL     1      -5.418   3.762  72.116  1.00  0.00     0.000 F  
HETATM   36  C   UNL     1      -5.146   6.792  74.076  1.00  0.00    -0.042 A  
HETATM   37  C   UNL     1      -5.389   7.753  73.088  1.00  0.00    -0.040 A  
ENDBRANCH  28  31
ENDBRANCH  24  25
ENDBRANCH  14  23
TORSDOF 6
ENDMDL
MODEL       48
REMARK 921   NORMALIZED FREE ENERGY PREDICTED BY IDOCK:   -2.88 KCAL/MOL
REMARK 922        TOTAL FREE ENERGY PREDICTED BY IDOCK:   -5.24 KCAL/MOL
REMARK 923 INTER-LIGAND FREE ENERGY PREDICTED BY IDOCK:   -6.27 KCAL/MOL
REMARK 924 INTRA-LIGAND FREE ENERGY PREDICTED BY IDOCK:    1.02 KCAL/MOL
REMARK 927      BINDING AFFINITY PREDICTED BY RF-SCORE:    0.00 PKD
ROOT
HETATM    1  C   UNL     1     -10.709  14.391  66.123  1.00  0.00    -0.304 C  
HETATM    2  C   UNL     1     -11.591  15.124  67.131  1.00  0.00    -0.206 C  
HETATM    3  C   UNL     1     -12.284  14.186  68.157  1.00  0.00    -0.179 C  
HETATM    4  C   UNL     1     -12.230  14.793  69.587  1.00  0.00    -0.310 C  
HETATM    5  C   UNL     1     -12.733  13.858  70.714  1.00  0.00    -0.313 C  
HETATM    6  C   UNL     1     -10.420  12.727  64.527  1.00  0.00    -0.368 C  
HETATM    7  C   UNL     1     -12.289  12.397  70.578  1.00  0.00    -0.346 C  
HETATM    8  C   UNL     1     -11.288  13.044  65.733  1.00  0.00    -0.331 C  
HETATM    9  C   UNL     1     -12.484  11.889  69.159  1.00  0.00     0.263 C  
HETATM   10  C   UNL     1     -10.943  11.624  63.627  1.00  0.00    -0.507 C  
HETATM   11  O   UNL     1     -10.380  13.984  63.835  1.00  0.00     0.292 OA 
HETATM   12  C   UNL     1     -11.652  12.782  68.230  1.00  0.00    -0.375 C  
HETATM   13  C   UNL     1     -10.541  14.994  64.756  1.00  0.00    -0.291 C  
HETATM   14  C   UNL     1     -11.288  12.068  66.899  1.00  0.00    -0.400 C  
HETATM   15  O   UNL     1     -10.504  16.179  64.495  1.00  0.00    -0.399 OA 
ENDROOT
BRANCH   5  16
HETATM   16  N   UNL     1     -12.305  14.355  72.009  1.00  0.00    -0.293 N  
HETATM   17  H   UNL     1     -11.424  14.866  72.073  1.00  0.00     0.000 HD 
HETATM   18  C   UNL     1     -13.035  14.164  73.141  1.00  0.00    -0.203 C  
HETATM   19  O   UNL     1     -14.145  13.658  73.188  1.00  0.00    -0.060 OA 
BRANCH  18  20
HETATM   20  O   UNL     1     -12.358  14.686  74.193  1.00  0.00    -0.482 OA 
BRANCH  20  21
HETATM   21  C   UNL     1     -12.339  16.119  74.229  1.00  0.00    -0.551 C  
HETATM   22  C   UNL     1     -11.598  16.610  72.997  1.00  0.00     0.091 C  
ENDBRANCH  20  21
ENDBRANCH  18  20
ENDBRANCH   5  16
BRANCH  14  23
HETATM   23  C   UNL     1      -9.910  11.512  67.153  1.00  0.00    -0.210 C  
HETATM   24  C   UNL     1      -8.970  11.192  66.255  1.00  0.00    -0.202 C  
BRANCH  24  25
HETATM   25  C   UNL     1      -7.878  10.289  66.654  1.00  0.00    -0.116 A  
HETATM   26  C   UNL     1      -6.368   8.523  66.119  1.00  0.00    -0.053 A  
HETATM   27  C   UNL     1      -7.128   9.618  65.705  1.00  0.00    -0.099 A  
HETATM   28  C   UNL     1      -6.392   8.089  67.455  1.00  0.00    -0.056 A  
HETATM   29  N   UNL     1      -7.805   9.994  67.976  1.00  0.00    -0.089 NA 
HETATM   30  C   UNL     1      -7.085   8.914  68.339  1.00  0.00    -0.077 A  
BRANCH  28  31
HETATM   31  C   UNL     1      -5.868   6.778  67.877  1.00  0.00    -0.020 A  
HETATM   32  C   UNL     1      -5.877   5.693  66.977  1.00  0.00    -0.018 A  
HETATM   33  C   UNL     1      -5.529   4.414  67.393  1.00  0.00    -0.013 A  
HETATM   34  C   UNL     1      -5.167   4.163  68.706  1.00  0.00    -0.011 A  
HETATM   35  F   UNL     1      -5.576   3.405  66.513  1.00  0.00    -0.018 F  
HETATM   36  C   UNL     1      -5.128   5.217  69.613  1.00  0.00     0.000 A  
HETATM   37  C   UNL     1      -5.465   6.511  69.200  1.00  0.00    -0.013 A  
ENDBRANCH  28  31
ENDBRANCH  24  25
ENDBRANCH  14  23
TORSDOF 6
ENDMDL
MODEL       49
REMARK 921   NORMALIZED FREE ENERGY PREDICTED BY IDOCK:   -2.68 KCAL/MOL
REMARK 922        TOTAL FREE ENERGY PREDICTED BY IDOCK:   -4.98 KCAL/MOL
REMARK 923 INTER-LIGAND FREE ENERGY PREDICTED BY IDOCK:   -4.88 KCAL/MOL
REMARK 924 INTRA-LIGAND FREE ENERGY PREDICTED BY IDOCK:   -0.11 KCAL/MOL
REMARK 927      BINDING AFFINITY PREDICTED BY RF-SCORE:    0.00 PKD
ROOT
HETATM    1  C   UNL     1     -10.975  15.426  65.186  1.00  0.00    -0.430 C  
HETATM    2  C   UNL     1     -10.644  16.783  65.801  1.00  0.00    -0.259 C  
HETATM    3  C   UNL     1     -10.073  16.695  67.243  1.00  0.00    -0.279 C  
HETATM    4  C   UNL     1      -8.881  17.675  67.429  1.00  0.00    -0.235 C  
HETATM    5  C   UNL     1      -8.125  17.539  68.773  1.00  0.00    -0.232 C  
HETATM    6  C   UNL     1     -12.048  13.367  65.292  1.00  0.00    -0.413 C  
HETATM    7  C   UNL     1      -7.896  16.095  69.235  1.00  0.00    -0.203 C  
HETATM    8  C   UNL     1     -11.511  14.449  66.215  1.00  0.00    -0.361 C  
HETATM    9  C   UNL     1      -9.161  15.264  69.098  1.00  0.00    -0.236 C  
HETATM   10  C   UNL     1     -13.004  12.384  65.939  1.00  0.00     1.667 C  
HETATM   11  O   UNL     1     -12.705  14.132  64.269  1.00  0.00    -0.660 OA 
HETATM   12  C   UNL     1      -9.572  15.287  67.621  1.00  0.00    -0.206 C  
HETATM   13  C   UNL     1     -12.087  15.357  64.175  1.00  0.00    -0.088 C  
HETATM   14  C   UNL     1     -10.452  14.065  67.237  1.00  0.00    -0.268 C  
HETATM   15  O   UNL     1     -12.376  16.217  63.368  1.00  0.00     0.002 OA 
ENDROOT
BRANCH   5  16
HETATM   16  N   UNL     1      -6.840  18.212  68.698  1.00  0.00    -0.241 N  
HETATM   17  H   UNL     1      -6.036  17.696  68.339  1.00  0.00     0.000 HD 
HETATM   18  C   UNL     1      -6.669  19.503  69.090  1.00  0.00    -0.338 C  
HETATM   19  O   UNL     1      -7.561  20.257  69.445  1.00  0.00     0.104 OA 
BRANCH  18  20
HETATM   20  O   UNL     1      -5.361  19.832  68.958  1.00  0.00    -0.193 OA 
BRANCH  20  21
HETATM   21  C   UNL     1      -5.132  21.079  68.289  1.00  0.00    -0.275 C  
HETATM   22  C   UNL     1      -5.255  20.840  66.794  1.00  0.00    -0.211 C  
ENDBRANCH  20  21
ENDBRANCH  18  20
ENDBRANCH   5  16
BRANCH  14  23
HETATM   23  C   UNL     1      -9.467  13.076  66.667  1.00  0.00    -0.256 C  
HETATM   24  C   UNL     1      -9.725  11.915  66.052  1.00  0.00    -0.257 C  
BRANCH  24  25
HETATM   25  C   UNL     1      -8.656  10.910  65.946  1.00  0.00    -0.176 A  
HETATM   26  C   UNL     1      -7.455   9.310  64.648  1.00  0.00    -0.102 A  
HETATM   27  C   UNL     1      -8.188  10.496  64.712  1.00  0.00    -0.100 A  
HETATM   28  C   UNL     1      -7.230   8.536  65.799  1.00  0.00    -0.076 A  
HETATM   29  N   UNL     1      -8.327  10.270  67.097  1.00  0.00    -0.121 NA 
HETATM   30  C   UNL     1      -7.642   9.113  66.997  1.00  0.00    -0.091 A  
BRANCH  28  31
HETATM   31  C   UNL     1      -6.743   7.146  65.741  1.00  0.00    -0.052 A  
HETATM   32  C   UNL     1      -7.539   6.145  65.149  1.00  0.00    -0.090 A  
HETATM   33  C   UNL     1      -7.173   4.806  65.214  1.00  0.00    -0.068 A  
HETATM   34  C   UNL     1      -6.017   4.412  65.866  1.00  0.00    -0.023 A  
HETATM   35  F   UNL     1      -7.972   3.883  64.662  1.00  0.00    -0.082 F  
HETATM   36  C   UNL     1      -5.199   5.379  66.442  1.00  0.00    -0.008 A  
HETATM   37  C   UNL     1      -5.554   6.731  66.371  1.00  0.00    -0.018 A  
ENDBRANCH  28  31
ENDBRANCH  24  25
ENDBRANCH  14  23
TORSDOF 6
ENDMDL
MODEL       50
REMARK 921   NORMALIZED FREE ENERGY PREDICTED BY IDOCK:   -2.63 KCAL/MOL
REMARK 922        TOTAL FREE ENERGY PREDICTED BY IDOCK:   -4.91 KCAL/MOL
REMARK 923 INTER-LIGAND FREE ENERGY PREDICTED BY IDOCK:   -4.33 KCAL/MOL
REMARK 924 INTRA-LIGAND FREE ENERGY PREDICTED BY IDOCK:   -0.58 KCAL/MOL
REMARK 927      BINDING AFFINITY PREDICTED BY RF-SCORE:    0.00 PKD
ROOT
HETATM    1  C   UNL     1     -12.218  15.132  69.750  1.00  0.00    -0.325 C  
HETATM    2  C   UNL     1     -11.593  16.524  69.726  1.00  0.00     0.163 C  
HETATM    3  C   UNL     1     -10.047  16.515  69.575  1.00  0.00    -0.165 C  
HETATM    4  C   UNL     1      -9.581  17.609  68.574  1.00  0.00    -0.315 C  
HETATM    5  C   UNL     1      -8.076  17.568  68.213  1.00  0.00    -0.268 C  
HETATM    6  C   UNL     1     -12.326  12.980  70.620  1.00  0.00    -0.310 C  
HETATM    7  C   UNL     1      -7.509  16.160  67.994  1.00  0.00    -0.141 C  
HETATM    8  C   UNL     1     -11.337  14.123  70.462  1.00  0.00    -0.002 C  
HETATM    9  C   UNL     1      -7.954  15.208  69.091  1.00  0.00    -0.205 C  
HETATM   10  C   UNL     1     -11.927  11.918  71.627  1.00  0.00     1.064 C  
HETATM   11  O   UNL     1     -13.522  13.661  71.033  1.00  0.00    -0.134 OA 
HETATM   12  C   UNL     1      -9.487  15.168  69.075  1.00  0.00    -0.221 C  
HETATM   13  C   UNL     1     -13.493  14.939  70.525  1.00  0.00    -0.007 C  
HETATM   14  C   UNL     1     -10.047  13.860  69.700  1.00  0.00     0.601 C  
HETATM   15  O   UNL     1     -14.384  15.754  70.654  1.00  0.00     0.021 OA 
ENDROOT
BRANCH   5  16
HETATM   16  N   UNL     1      -7.821  18.362  67.024  1.00  0.00    -0.223 N  
HETATM   17  H   UNL     1      -7.890  17.913  66.110  1.00  0.00     0.000 HD 
HETATM   18  C   UNL     1      -7.494  19.681  67.084  1.00  0.00    -0.231 C  
HETATM   19  O   UNL     1      -7.474  20.357  68.100  1.00  0.00    -0.238 OA 
BRANCH  18  20
HETATM   20  O   UNL     1      -7.262  20.133  65.828  1.00  0.00    -0.295 OA 
BRANCH  20  21
HETATM   21  C   UNL     1      -5.915  19.949  65.374  1.00  0.00    -0.195 C  
HETATM   22  C   UNL     1      -5.755  20.697  64.061  1.00  0.00    -0.305 C  
ENDBRANCH  20  21
ENDBRANCH  18  20
ENDBRANCH   5  16
BRANCH  14  23
HETATM   23  C   UNL     1     -10.281  12.963  68.510  1.00  0.00    -0.210 C  
HETATM   24  C   UNL     1     -10.461  11.637  68.499  1.00  0.00    -0.236 C  
BRANCH  24  25
HETATM   25  C   UNL     1     -10.256  10.898  67.243  1.00  0.00    -0.205 A  
HETATM   26  C   UNL     1      -9.838   8.844  66.107  1.00  0.00    -0.326 A  
HETATM   27  C   UNL     1     -10.384   9.522  67.198  1.00  0.00    -0.320 A  
HETATM   28  C   UNL     1      -9.142   9.534  65.101  1.00  0.00    -0.281 A  
HETATM   29  N   UNL     1      -9.727  11.610  66.216  1.00  0.00    -0.212 NA 
HETATM   30  C   UNL     1      -9.183  10.924  65.192  1.00  0.00    -0.214 A  
BRANCH  28  31
HETATM   31  C   UNL     1      -8.291   8.853  64.109  1.00  0.00    -0.168 A  
HETATM   32  C   UNL     1      -8.110   7.457  64.177  1.00  0.00    -0.046 A  
HETATM   33  C   UNL     1      -7.199   6.811  63.350  1.00  0.00    -0.065 A  
HETATM   34  C   UNL     1      -6.436   7.519  62.437  1.00  0.00    -0.071 A  
HETATM   35  F   UNL     1      -7.037   5.486  63.466  1.00  0.00    -0.042 F  
HETATM   36  C   UNL     1      -6.607   8.895  62.331  1.00  0.00    -0.094 A  
HETATM   37  C   UNL     1      -7.532   9.552  63.151  1.00  0.00    -0.110 A  
ENDBRANCH  28  31
ENDBRANCH  24  25
ENDBRANCH  14  23
TORSDOF 6
ENDMDL
MODEL       51
REMARK 921   NORMALIZED FREE ENERGY PREDICTED BY IDOCK:   -2.52 KCAL/MOL
REMARK 922        TOTAL FREE ENERGY PREDICTED BY IDOCK:   -4.76 KCAL/MOL
REMARK 923 INTER-LIGAND FREE ENERGY PREDICTED BY IDOCK:   -3.90 KCAL/MOL
REMARK 924 INTRA-LIGAND FREE ENERGY PREDICTED BY IDOCK:   -0.86 KCAL/MOL
REMARK 927      BINDING AFFINITY PREDICTED BY RF-SCORE:    0.00 PKD
ROOT
HETATM    1  C   UNL     1     -10.722   6.866  71.800  1.00  0.00    -0.247 C  
HETATM    2  C   UNL     1     -10.025   8.223  71.867  1.00  0.00    -0.299 C  
HETATM    3  C   UNL     1      -8.500   8.131  72.147  1.00  0.00    -0.216 C  
HETATM    4  C   UNL     1      -7.711   9.126  71.250  1.00  0.00    -0.065 C  
HETATM    5  C   UNL     1      -6.171   8.989  71.320  1.00  0.00    -0.065 C  
HETATM    6  C   UNL     1     -11.200   4.792  72.733  1.00  0.00    -0.135 C  
HETATM    7  C   UNL     1      -5.657   7.544  71.348  1.00  0.00    -0.035 C  
HETATM    8  C   UNL     1     -10.134   5.873  72.784  1.00  0.00    -0.203 C  
HETATM    9  C   UNL     1      -6.443   6.698  72.335  1.00  0.00    -0.058 C  
HETATM   10  C   UNL     1     -11.158   3.790  73.870  1.00  0.00    -0.231 C  
HETATM   11  O   UNL     1     -12.416   5.555  72.759  1.00  0.00    -0.008 OA 
HETATM   12  C   UNL     1      -7.914   6.727  71.900  1.00  0.00    -0.101 C  
HETATM   13  C   UNL     1     -12.169   6.790  72.205  1.00  0.00    -0.222 C  
HETATM   14  C   UNL     1      -8.705   5.496  72.423  1.00  0.00    -0.128 C  
HETATM   15  O   UNL     1     -13.007   7.652  72.035  1.00  0.00    -0.278 OA 
ENDROOT
BRANCH   5  16
HETATM   16  N   UNL     1      -5.553   9.679  70.202  1.00  0.00    -0.039 N  
HETATM   17  H   UNL     1      -4.838  10.382  70.393  1.00  0.00     0.000 HD 
HETATM   18  C   UNL     1      -5.892   9.424  68.910  1.00  0.00    -0.039 C  
HETATM   19  O   UNL     1      -6.656   8.546  68.541  1.00  0.00    -0.057 OA 
BRANCH  18  20
HETATM   20  O   UNL     1      -5.193  10.256  68.099  1.00  0.00    -0.036 OA 
BRANCH  20  21
HETATM   21  C   UNL     1      -5.693  11.599  68.062  1.00  0.00    -0.044 C  
HETATM   22  C   UNL     1      -6.592  11.731  66.843  1.00  0.00    -0.114 C  
ENDBRANCH  20  21
ENDBRANCH  18  20
ENDBRANCH   5  16
BRANCH  14  23
HETATM   23  C   UNL     1      -8.666   4.525  71.270  1.00  0.00    -0.137 C  
HETATM   24  C   UNL     1      -8.047   4.668  70.091  1.00  0.00    -0.068 C  
BRANCH  24  25
HETATM   25  C   UNL     1      -8.462   3.823  68.960  1.00  0.00    -0.073 A  
HETATM   26  C   UNL     1      -8.089   1.930  67.559  1.00  0.00    -0.067 A  
HETATM   27  C   UNL     1      -7.959   2.544  68.806  1.00  0.00    -0.062 A  
HETATM   28  C   UNL     1      -8.681   2.605  66.479  1.00  0.00    -0.127 A  
HETATM   29  N   UNL     1      -9.173   4.444  67.986  1.00  0.00    -0.128 NA 
HETATM   30  C   UNL     1      -9.256   3.835  66.786  1.00  0.00    -0.177 A  
BRANCH  28  31
HETATM   31  C   UNL     1      -8.565   2.135  65.087  1.00  0.00    -0.110 A  
HETATM   32  C   UNL     1      -7.293   1.948  64.509  1.00  0.00    -0.057 A  
HETATM   33  C   UNL     1      -7.156   1.651  63.159  1.00  0.00    -0.034 A  
HETATM   34  C   UNL     1      -8.263   1.535  62.336  1.00  0.00    -0.056 A  
HETATM   35  F   UNL     1      -5.928   1.508  62.643  1.00  0.00    -0.006 F  
HETATM   36  C   UNL     1      -9.533   1.693  62.880  1.00  0.00    -0.090 A  
HETATM   37  C   UNL     1      -9.682   1.980  64.242  1.00  0.00    -0.091 A  
ENDBRANCH  28  31
ENDBRANCH  24  25
ENDBRANCH  14  23
TORSDOF 6
ENDMDL
MODEL       52
REMARK 921   NORMALIZED FREE ENERGY PREDICTED BY IDOCK:   -2.30 KCAL/MOL
REMARK 922        TOTAL FREE ENERGY PREDICTED BY IDOCK:   -4.46 KCAL/MOL
REMARK 923 INTER-LIGAND FREE ENERGY PREDICTED BY IDOCK:   -3.61 KCAL/MOL
REMARK 924 INTRA-LIGAND FREE ENERGY PREDICTED BY IDOCK:   -0.85 KCAL/MOL
REMARK 927      BINDING AFFINITY PREDICTED BY RF-SCORE:    0.00 PKD
ROOT
HETATM    1  C   UNL     1      -8.705  10.448  65.542  1.00  0.00    -0.190 C  
HETATM    2  C   UNL     1      -8.841  11.418  64.372  1.00  0.00     0.298 C  
HETATM    3  C   UNL     1     -10.292  11.919  64.139  1.00  0.00    -0.377 C  
HETATM    4  C   UNL     1     -10.310  13.444  63.833  1.00  0.00     0.330 C  
HETATM    5  C   UNL     1     -11.719  14.080  63.762  1.00  0.00    -0.027 C  
HETATM    6  C   UNL     1      -9.360   8.512  66.648  1.00  0.00    -0.189 C  
HETATM    7  C   UNL     1     -12.697  13.591  64.837  1.00  0.00    -0.342 C  
HETATM    8  C   UNL     1      -9.911   9.537  65.671  1.00  0.00    -0.269 C  
HETATM    9  C   UNL     1     -12.659  12.078  64.971  1.00  0.00     0.247 C  
HETATM   10  C   UNL     1     -10.148   7.219  66.739  1.00  0.00    -0.291 C  
HETATM   11  O   UNL     1      -8.038   8.277  66.139  1.00  0.00    -0.103 OA 
HETATM   12  C   UNL     1     -11.225  11.682  65.343  1.00  0.00    -0.262 C  
HETATM   13  C   UNL     1      -7.616   9.411  65.483  1.00  0.00    -0.099 C  
HETATM   14  C   UNL     1     -11.163  10.307  66.063  1.00  0.00     0.674 C  
HETATM   15  O   UNL     1      -6.520   9.552  64.982  1.00  0.00    -0.077 OA 
ENDROOT
BRANCH   5  16
HETATM   16  N   UNL     1     -11.623  15.527  63.846  1.00  0.00    -0.740 N  
HETATM   17  H   UNL     1     -11.985  16.089  63.075  1.00  0.00     0.000 HD 
HETATM   18  C   UNL     1     -11.069  16.160  64.915  1.00  0.00    -0.325 C  
HETATM   19  O   UNL     1     -10.689  15.614  65.939  1.00  0.00    -0.322 OA 
BRANCH  18  20
HETATM   20  O   UNL     1     -11.069  17.495  64.683  1.00  0.00    -0.978 OA 
BRANCH  20  21
HETATM   21  C   UNL     1     -10.455  18.273  65.718  1.00  0.00    -0.213 C  
HETATM   22  C   UNL     1     -10.835  19.728  65.500  1.00  0.00    -0.254 C  
ENDBRANCH  20  21
ENDBRANCH  18  20
ENDBRANCH   5  16
BRANCH  14  23
HETATM   23  C   UNL     1     -11.155  10.666  67.527  1.00  0.00    -0.367 C  
HETATM   24  C   UNL     1     -12.204  10.827  68.344  1.00  0.00     0.421 C  
BRANCH  24  25
HETATM   25  C   UNL     1     -12.024  11.573  69.599  1.00  0.00    -0.339 A  
HETATM   26  C   UNL     1     -12.904  12.359  71.671  1.00  0.00    -0.375 A  
HETATM   27  C   UNL     1     -12.890  11.394  70.663  1.00  0.00    -0.189 A  
HETATM   28  C   UNL     1     -12.091  13.501  71.591  1.00  0.00     0.282 A  
HETATM   29  N   UNL     1     -11.118  12.581  69.565  1.00  0.00    -0.082 NA 
HETATM   30  C   UNL     1     -11.178  13.512  70.539  1.00  0.00     0.707 A  
BRANCH  28  31
HETATM   31  C   UNL     1     -12.289  14.683  72.449  1.00  0.00    -0.357 A  
HETATM   32  C   UNL     1     -11.695  15.913  72.103  1.00  0.00    -0.586 A  
HETATM   33  C   UNL     1     -11.741  17.000  72.968  1.00  0.00     0.403 A  
HETATM   34  C   UNL     1     -12.368  16.908  74.199  1.00  0.00    -0.147 A  
HETATM   35  F   UNL     1     -11.140  18.143  72.612  1.00  0.00     0.477 F  
HETATM   36  C   UNL     1     -12.983  15.713  74.560  1.00  0.00     0.204 A  
HETATM   37  C   UNL     1     -12.952  14.617  73.690  1.00  0.00    -0.157 A  
ENDBRANCH  28  31
ENDBRANCH  24  25
ENDBRANCH  14  23
TORSDOF 6
ENDMDL
MODEL       53
REMARK 921   NORMALIZED FREE ENERGY PREDICTED BY IDOCK:   -1.96 KCAL/MOL
REMARK 922        TOTAL FREE ENERGY PREDICTED BY IDOCK:   -4.01 KCAL/MOL
REMARK 923 INTER-LIGAND FREE ENERGY PREDICTED BY IDOCK:   -3.27 KCAL/MOL
REMARK 924 INTRA-LIGAND FREE ENERGY PREDICTED BY IDOCK:   -0.74 KCAL/MOL
REMARK 927      BINDING AFFINITY PREDICTED BY RF-SCORE:    0.00 PKD
ROOT
HETATM    1  C   UNL     1     -11.220  13.654  69.990  1.00  0.00     0.054 C  
HETATM    2  C   UNL     1     -11.931  13.052  71.199  1.00  0.00     0.282 C  
HETATM    3  C   UNL     1     -12.607  11.683  70.911  1.00  0.00    -0.409 C  
HETATM    4  C   UNL     1     -12.363  10.687  72.079  1.00  0.00     0.160 C  
HETATM    5  C   UNL     1     -12.841   9.239  71.815  1.00  0.00    -0.382 C  
HETATM    6  C   UNL     1     -11.237  14.333  67.767  1.00  0.00    -0.291 C  
HETATM    7  C   UNL     1     -12.548   8.716  70.403  1.00  0.00     0.644 C  
HETATM    8  C   UNL     1     -11.954  13.366  68.694  1.00  0.00    -0.362 C  
HETATM    9  C   UNL     1     -12.921   9.741  69.346  1.00  0.00     2.114 C  
HETATM   10  C   UNL     1     -11.943  14.612  66.454  1.00  0.00    -0.274 C  
HETATM   11  O   UNL     1     -11.147  15.521  68.569  1.00  0.00    -0.273 OA 
HETATM   12  C   UNL     1     -12.102  11.008  69.620  1.00  0.00    -0.411 C  
HETATM   13  C   UNL     1     -11.126  15.152  69.894  1.00  0.00    -0.284 C  
HETATM   14  C   UNL     1     -11.934  11.885  68.348  1.00  0.00    -0.246 C  
HETATM   15  O   UNL     1     -11.005  15.923  70.824  1.00  0.00    -0.320 OA 
ENDROOT
BRANCH   5  16
HETATM   16  N   UNL     1     -12.248   8.329  72.779  1.00  0.00    -0.580 N  
HETATM   17  H   UNL     1     -12.844   7.918  73.498  1.00  0.00     0.000 HD 
HETATM   18  C   UNL     1     -10.927   8.005  72.758  1.00  0.00    -0.382 C  
HETATM   19  O   UNL     1     -10.129   8.347  71.900  1.00  0.00    -0.215 OA 
BRANCH  18  20
HETATM   20  O   UNL     1     -10.659   7.188  73.806  1.00  0.00    -0.377 OA 
BRANCH  20  21
HETATM   21  C   UNL     1     -10.974   5.809  73.574  1.00  0.00    -0.168 C  
HETATM   22  C   UNL     1      -9.712   5.113  73.092  1.00  0.00    -0.165 C  
ENDBRANCH  20  21
ENDBRANCH  18  20
ENDBRANCH   5  16
BRANCH  14  23
HETATM   23  C   UNL     1     -10.594  11.466  67.796  1.00  0.00    -0.231 C  
HETATM   24  C   UNL     1     -10.322  10.953  66.589  1.00  0.00    -0.289 C  
BRANCH  24  25
HETATM   25  C   UNL     1      -9.058  10.228  66.389  1.00  0.00    -0.152 A  
HETATM   26  C   UNL     1      -7.494   9.181  64.925  1.00  0.00    -0.105 A  
HETATM   27  C   UNL     1      -8.469  10.157  65.140  1.00  0.00    -0.167 A  
HETATM   28  C   UNL     1      -7.146   8.271  65.937  1.00  0.00    -0.071 A  
HETATM   29  N   UNL     1      -8.638   9.469  67.432  1.00  0.00    -0.125 NA 
HETATM   30  C   UNL     1      -7.716   8.517  67.184  1.00  0.00    -0.097 A  
BRANCH  28  31
HETATM   31  C   UNL     1      -6.368   7.047  65.675  1.00  0.00    -0.046 A  
HETATM   32  C   UNL     1      -6.346   6.490  64.380  1.00  0.00    -0.037 A  
HETATM   33  C   UNL     1      -5.745   5.260  64.139  1.00  0.00    -0.017 A  
HETATM   34  C   UNL     1      -5.154   4.540  65.163  1.00  0.00    -0.009 A  
HETATM   35  F   UNL     1      -5.769   4.754  62.900  1.00  0.00    -0.012 F  
HETATM   36  C   UNL     1      -5.141   5.073  66.449  1.00  0.00    -0.008 A  
HETATM   37  C   UNL     1      -5.733   6.317  66.698  1.00  0.00    -0.016 A  
ENDBRANCH  28  31
ENDBRANCH  24  25
ENDBRANCH  14  23
TORSDOF 6
ENDMDL
MODEL       54
REMARK 921   NORMALIZED FREE ENERGY PREDICTED BY IDOCK:   -1.78 KCAL/MOL
REMARK 922        TOTAL FREE ENERGY PREDICTED BY IDOCK:   -3.75 KCAL/MOL
REMARK 923 INTER-LIGAND FREE ENERGY PREDICTED BY IDOCK:   -2.78 KCAL/MOL
REMARK 924 INTRA-LIGAND FREE ENERGY PREDICTED BY IDOCK:   -0.97 KCAL/MOL
REMARK 927      BINDING AFFINITY PREDICTED BY RF-SCORE:    0.00 PKD
ROOT
HETATM    1  C   UNL     1      -7.588   8.909  70.853  1.00  0.00    -0.122 C  
HETATM    2  C   UNL     1      -7.596  10.435  70.857  1.00  0.00     1.420 C  
HETATM    3  C   UNL     1      -6.771  11.070  69.704  1.00  0.00    -0.137 C  
HETATM    4  C   UNL     1      -7.529  12.272  69.075  1.00  0.00     0.058 C  
HETATM    5  C   UNL     1      -6.877  12.864  67.803  1.00  0.00    -0.138 C  
HETATM    6  C   UNL     1      -6.428   6.895  70.816  1.00  0.00    -0.048 C  
HETATM    7  C   UNL     1      -6.323  11.821  66.823  1.00  0.00    -0.083 C  
HETATM    8  C   UNL     1      -6.252   8.347  70.404  1.00  0.00    -0.035 C  
HETATM    9  C   UNL     1      -5.517  10.756  67.548  1.00  0.00    -0.043 C  
HETATM   10  C   UNL     1      -5.150   6.081  70.872  1.00  0.00    -0.013 C  
HETATM   11  O   UNL     1      -7.025   7.013  72.117  1.00  0.00    -0.064 OA 
HETATM   12  C   UNL     1      -6.448  10.083  68.564  1.00  0.00    -0.049 C  
HETATM   13  C   UNL     1      -7.728   8.194  72.169  1.00  0.00    -0.118 C  
HETATM   14  C   UNL     1      -5.971   8.653  68.941  1.00  0.00    -0.044 C  
HETATM   15  O   UNL     1      -8.388   8.564  73.118  1.00  0.00    -0.369 OA 
ENDROOT
BRANCH   5  16
HETATM   16  N   UNL     1      -7.825  13.707  67.096  1.00  0.00    -0.366 N  
HETATM   17  H   UNL     1      -8.619  13.268  66.629  1.00  0.00     0.000 HD 
HETATM   18  C   UNL     1      -7.692  15.059  67.032  1.00  0.00    -0.084 C  
HETATM   19  O   UNL     1      -6.847  15.713  67.623  1.00  0.00    -0.143 OA 
BRANCH  18  20
HETATM   20  O   UNL     1      -8.688  15.562  66.263  1.00  0.00    -0.304 OA 
BRANCH  20  21
HETATM   21  C   UNL     1      -9.679  14.601  65.878  1.00  0.00    -0.310 C  
HETATM   22  C   UNL     1     -11.042  15.152  66.262  1.00  0.00    -0.309 C  
ENDBRANCH  20  21
ENDBRANCH  18  20
ENDBRANCH   5  16
BRANCH  14  23
HETATM   23  C   UNL     1      -6.766   7.756  68.027  1.00  0.00    -0.063 C  
HETATM   24  C   UNL     1      -8.090   7.557  68.011  1.00  0.00    -0.124 C  
BRANCH  24  25
HETATM   25  C   UNL     1      -8.625   6.357  67.349  1.00  0.00    -0.107 A  
HETATM   26  C   UNL     1      -8.316   4.123  66.573  1.00  0.00    -0.104 A  
HETATM   27  C   UNL     1      -7.999   5.131  67.485  1.00  0.00    -0.100 A  
HETATM   28  C   UNL     1      -9.217   4.357  65.521  1.00  0.00    -0.150 A  
HETATM   29  N   UNL     1      -9.611   6.569  66.442  1.00  0.00    -0.142 NA 
HETATM   30  C   UNL     1      -9.873   5.586  65.558  1.00  0.00     0.258 A  
BRANCH  28  31
HETATM   31  C   UNL     1      -9.349   3.450  64.368  1.00  0.00    -0.140 A  
HETATM   32  C   UNL     1     -10.626   3.047  63.929  1.00  0.00    -0.143 A  
HETATM   33  C   UNL     1     -10.775   2.079  62.944  1.00  0.00    -0.176 A  
HETATM   34  C   UNL     1      -9.672   1.475  62.364  1.00  0.00    -0.088 A  
HETATM   35  F   UNL     1     -12.007   1.706  62.575  1.00  0.00    -0.250 F  
HETATM   36  C   UNL     1      -8.397   1.866  62.759  1.00  0.00    -0.068 A  
HETATM   37  C   UNL     1      -8.238   2.849  63.743  1.00  0.00    -0.086 A  
ENDBRANCH  28  31
ENDBRANCH  24  25
ENDBRANCH  14  23
TORSDOF 6
ENDMDL
MODEL       55
REMARK 921   NORMALIZED FREE ENERGY PREDICTED BY IDOCK:   -1.65 KCAL/MOL
REMARK 922        TOTAL FREE ENERGY PREDICTED BY IDOCK:   -3.59 KCAL/MOL
REMARK 923 INTER-LIGAND FREE ENERGY PREDICTED BY IDOCK:   -3.65 KCAL/MOL
REMARK 924 INTRA-LIGAND FREE ENERGY PREDICTED BY IDOCK:    0.05 KCAL/MOL
REMARK 927      BINDING AFFINITY PREDICTED BY RF-SCORE:    0.00 PKD
ROOT
HETATM    1  C   UNL     1      -9.998  15.342  66.811  1.00  0.00    -0.256 C  
HETATM    2  C   UNL     1     -10.846  16.165  67.778  1.00  0.00    -0.318 C  
HETATM    3  C   UNL     1     -11.941  15.340  68.509  1.00  0.00    -0.228 C  
HETATM    4  C   UNL     1     -12.017  15.730  70.012  1.00  0.00    -0.352 C  
HETATM    5  C   UNL     1     -12.951  14.843  70.871  1.00  0.00    -0.380 C  
HETATM    6  C   UNL     1      -9.831  13.869  65.021  1.00  0.00    -0.046 C  
HETATM    7  C   UNL     1     -12.872  13.343  70.561  1.00  0.00    -0.094 C  
HETATM    8  C   UNL     1     -10.810  14.268  66.113  1.00  0.00    -0.310 C  
HETATM    9  C   UNL     1     -12.906  13.086  69.064  1.00  0.00     1.250 C  
HETATM   10  C   UNL     1     -10.429  13.074  63.877  1.00  0.00    -0.241 C  
HETATM   11  O   UNL     1      -9.340  15.140  64.567  1.00  0.00     1.045 OA 
HETATM   12  C   UNL     1     -11.710  13.817  68.442  1.00  0.00    -0.393 C  
HETATM   13  C   UNL     1      -9.418  16.036  65.609  1.00  0.00    -0.140 C  
HETATM   14  C   UNL     1     -11.285  13.196  67.082  1.00  0.00    -0.326 C  
HETATM   15  O   UNL     1      -9.033  17.186  65.562  1.00  0.00    -0.311 OA 
ENDROOT
BRANCH   5  16
HETATM   16  N   UNL     1     -12.673  15.040  72.283  1.00  0.00    -0.321 N  
HETATM   17  H   UNL     1     -12.009  15.764  72.557  1.00  0.00     0.000 HD 
HETATM   18  C   UNL     1     -13.267  14.295  73.254  1.00  0.00    -0.035 C  
HETATM   19  O   UNL     1     -14.147  13.468  73.070  1.00  0.00    -0.369 OA 
BRANCH  18  20
HETATM   20  O   UNL     1     -12.771  14.667  74.459  1.00  0.00    -0.142 OA 
BRANCH  20  21
HETATM   21  C   UNL     1     -11.796  15.715  74.396  1.00  0.00     0.098 C  
HETATM   22  C   UNL     1     -12.532  17.045  74.412  1.00  0.00     0.096 C  
ENDBRANCH  20  21
ENDBRANCH  18  20
ENDBRANCH   5  16
BRANCH  14  23
HETATM   23  C   UNL     1     -10.169  12.251  67.451  1.00  0.00    -0.213 C  
HETATM   24  C   UNL     1      -9.817  11.112  66.842  1.00  0.00    -0.223 C  
BRANCH  24  25
HETATM   25  C   UNL     1      -8.999  10.134  67.576  1.00  0.00    -0.131 A  
HETATM   26  C   UNL     1      -8.658   7.905  68.354  1.00  0.00    -0.128 A  
HETATM   27  C   UNL     1      -9.185   8.775  67.397  1.00  0.00    -0.158 A  
HETATM   28  C   UNL     1      -7.991   8.397  69.488  1.00  0.00    -0.111 A  
HETATM   29  N   UNL     1      -8.229  10.634  68.575  1.00  0.00    -0.121 NA 
HETATM   30  C   UNL     1      -7.760   9.770  69.497  1.00  0.00    -0.120 A  
BRANCH  28  31
HETATM   31  C   UNL     1      -7.696   7.559  70.664  1.00  0.00    -0.090 A  
HETATM   32  C   UNL     1      -8.450   6.393  70.906  1.00  0.00    -0.131 A  
HETATM   33  C   UNL     1      -8.294   5.669  72.081  1.00  0.00    -0.115 A  
HETATM   34  C   UNL     1      -7.396   6.072  73.055  1.00  0.00    -0.093 A  
HETATM   35  F   UNL     1      -9.049   4.581  72.284  1.00  0.00    -0.125 F  
HETATM   36  C   UNL     1      -6.622   7.207  72.837  1.00  0.00    -0.064 A  
HETATM   37  C   UNL     1      -6.764   7.935  71.651  1.00  0.00    -0.052 A  
ENDBRANCH  28  31
ENDBRANCH  24  25
ENDBRANCH  14  23
TORSDOF 6
ENDMDL
MODEL       56
REMARK 921   NORMALIZED FREE ENERGY PREDICTED BY IDOCK:   -1.35 KCAL/MOL
REMARK 922        TOTAL FREE ENERGY PREDICTED BY IDOCK:   -3.18 KCAL/MOL
REMARK 923 INTER-LIGAND FREE ENERGY PREDICTED BY IDOCK:   -2.81 KCAL/MOL
REMARK 924 INTRA-LIGAND FREE ENERGY PREDICTED BY IDOCK:   -0.37 KCAL/MOL
REMARK 927      BINDING AFFINITY PREDICTED BY RF-SCORE:    0.00 PKD
ROOT
HETATM    1  C   UNL     1      -9.548  18.618  68.796  1.00  0.00    -0.383 C  
HETATM    2  C   UNL     1     -10.722  18.438  67.837  1.00  0.00    -0.334 C  
HETATM    3  C   UNL     1     -10.354  17.683  66.531  1.00  0.00    -0.337 C  
HETATM    4  C   UNL     1     -11.458  16.653  66.157  1.00  0.00     0.907 C  
HETATM    5  C   UNL     1     -11.108  15.721  64.972  1.00  0.00    -0.370 C  
HETATM    6  C   UNL     1      -7.371  19.316  69.216  1.00  0.00    -0.247 C  
HETATM    7  C   UNL     1      -9.665  15.202  64.970  1.00  0.00     0.102 C  
HETATM    8  C   UNL     1      -8.241  18.851  68.061  1.00  0.00    -0.323 C  
HETATM    9  C   UNL     1      -8.675  16.320  65.249  1.00  0.00     1.774 C  
HETATM   10  C   UNL     1      -6.082  20.008  68.816  1.00  0.00    -0.315 C  
HETATM   11  O   UNL     1      -8.244  20.214  69.919  1.00  0.00     0.490 OA 
HETATM   12  C   UNL     1      -9.021  16.914  66.620  1.00  0.00    -0.279 C  
HETATM   13  C   UNL     1      -9.544  19.822  69.697  1.00  0.00     0.208 C  
HETATM   14  C   UNL     1      -7.805  17.623  67.277  1.00  0.00    -0.222 C  
HETATM   15  O   UNL     1     -10.519  20.349  70.194  1.00  0.00     0.247 OA 
ENDROOT
BRANCH   5  16
HETATM   16  N   UNL     1     -12.010  14.584  64.942  1.00  0.00    -0.410 N  
HETATM   17  H   UNL     1     -12.811  14.608  64.310  1.00  0.00     0.000 HD 
HETATM   18  C   UNL     1     -11.827  13.488  65.726  1.00  0.00    -0.372 C  
HETATM   19  O   UNL     1     -10.864  13.290  66.450  1.00  0.00    -0.285 OA 
BRANCH  18  20
HETATM   20  O   UNL     1     -12.852  12.625  65.521  1.00  0.00    -0.513 OA 
BRANCH  20  21
HETATM   21  C   UNL     1     -13.113  12.336  64.142  1.00  0.00    -0.034 C  
HETATM   22  C   UNL     1     -11.815  11.866  63.506  1.00  0.00    -0.560 C  
ENDBRANCH  20  21
ENDBRANCH  18  20
ENDBRANCH   5  16
BRANCH  14  23
HETATM   23  C   UNL     1      -7.219  16.570  68.183  1.00  0.00    -0.156 C  
HETATM   24  C   UNL     1      -5.938  16.199  68.299  1.00  0.00    -0.112 C  
BRANCH  24  25
HETATM   25  C   UNL     1      -5.623  14.897  68.908  1.00  0.00    -0.087 A  
HETATM   26  C   UNL     1      -5.203  12.562  68.673  1.00  0.00    -0.059 A  
HETATM   27  C   UNL     1      -5.143  13.851  68.141  1.00  0.00    -0.112 A  
HETATM   28  C   UNL     1      -5.771  12.326  69.936  1.00  0.00    -0.125 A  
HETATM   29  N   UNL     1      -6.035  14.726  70.189  1.00  0.00    -0.137 NA 
HETATM   30  C   UNL     1      -6.107  13.466  70.662  1.00  0.00    -0.028 A  
BRANCH  28  31
HETATM   31  C   UNL     1      -6.139  10.978  70.405  1.00  0.00    -0.131 A  
HETATM   32  C   UNL     1      -7.324  10.371  69.942  1.00  0.00    -0.149 A  
HETATM   33  C   UNL     1      -7.771   9.170  70.478  1.00  0.00    -0.134 A  
HETATM   34  C   UNL     1      -7.070   8.533  71.488  1.00  0.00    -0.096 A  
HETATM   35  F   UNL     1      -8.916   8.640  70.029  1.00  0.00    -0.134 F  
HETATM   36  C   UNL     1      -5.885   9.096  71.952  1.00  0.00    -0.069 A  
HETATM   37  C   UNL     1      -5.421  10.300  71.408  1.00  0.00    -0.025 A  
ENDBRANCH  28  31
ENDBRANCH  24  25
ENDBRANCH  14  23
TORSDOF 6
ENDMDL
MODEL       57
REMARK 921   NORMALIZED FREE ENERGY PREDICTED BY IDOCK:   -1.12 KCAL/MOL
REMARK 922        TOTAL FREE ENERGY PREDICTED BY IDOCK:   -2.86 KCAL/MOL
REMARK 923 INTER-LIGAND FREE ENERGY PREDICTED BY IDOCK:   -4.21 KCAL/MOL
REMARK 924 INTRA-LIGAND FREE ENERGY PREDICTED BY IDOCK:    1.35 KCAL/MOL
REMARK 927      BINDING AFFINITY PREDICTED BY RF-SCORE:    0.00 PKD
ROOT
HETATM    1  C   UNL     1     -10.789  16.005  65.241  1.00  0.00    -0.376 C  
HETATM    2  C   UNL     1     -10.570  17.503  65.440  1.00  0.00    -0.005 C  
HETATM    3  C   UNL     1     -10.211  17.895  66.899  1.00  0.00    -0.358 C  
HETATM    4  C   UNL     1      -9.072  18.954  66.924  1.00  0.00    -0.314 C  
HETATM    5  C   UNL     1      -8.515  19.282  68.330  1.00  0.00    -0.351 C  
HETATM    6  C   UNL     1     -11.834  14.019  65.843  1.00  0.00    -0.383 C  
HETATM    7  C   UNL     1      -8.332  18.065  69.246  1.00  0.00     0.258 C  
HETATM    8  C   UNL     1     -11.452  15.361  66.444  1.00  0.00     0.001 C  
HETATM    9  C   UNL     1      -9.551  17.159  69.211  1.00  0.00    -0.013 C  
HETATM   10  C   UNL     1     -12.858  13.226  66.633  1.00  0.00     0.697 C  
HETATM   11  O   UNL     1     -12.350  14.392  64.556  1.00  0.00    -0.535 OA 
HETATM   12  C   UNL     1      -9.748  16.703  67.759  1.00  0.00    -0.240 C  
HETATM   13  C   UNL     1     -11.744  15.564  64.166  1.00  0.00    -0.086 C  
HETATM   14  C   UNL     1     -10.545  15.373  67.665  1.00  0.00    -0.280 C  
HETATM   15  O   UNL     1     -11.927  16.115  63.100  1.00  0.00     0.899 OA 
ENDROOT
BRANCH   5  16
HETATM   16  N   UNL     1      -7.242  19.973  68.219  1.00  0.00    -0.294 N  
HETATM   17  H   UNL     1      -7.173  20.932  68.562  1.00  0.00     0.000 HD 
HETATM   18  C   UNL     1      -6.141  19.390  67.674  1.00  0.00    -0.202 C  
HETATM   19  O   UNL     1      -6.063  18.226  67.317  1.00  0.00    -0.157 OA 
BRANCH  18  20
HETATM   20  O   UNL     1      -5.130  20.293  67.655  1.00  0.00    -0.175 OA 
BRANCH  20  21
HETATM   21  C   UNL     1      -5.135  21.206  68.760  1.00  0.00    -0.232 C  
HETATM   22  C   UNL     1      -5.442  20.416  70.021  1.00  0.00    -0.348 C  
ENDBRANCH  20  21
ENDBRANCH  18  20
ENDBRANCH   5  16
BRANCH  14  23
HETATM   23  C   UNL     1      -9.473  14.316  67.566  1.00  0.00    -0.209 C  
HETATM   24  C   UNL     1      -9.301  13.402  66.604  1.00  0.00    -0.248 C  
BRANCH  24  25
HETATM   25  C   UNL     1      -8.478  12.215  66.885  1.00  0.00    -0.173 A  
HETATM   26  C   UNL     1      -8.112   9.868  66.679  1.00  0.00    -0.117 A  
HETATM   27  C   UNL     1      -8.637  11.051  66.156  1.00  0.00    -0.175 A  
HETATM   28  C   UNL     1      -7.473   9.851  67.930  1.00  0.00    -0.089 A  
HETATM   29  N   UNL     1      -7.735  12.263  68.019  1.00  0.00    -0.121 NA 
HETATM   30  C   UNL     1      -7.266  11.099  68.512  1.00  0.00    -0.088 A  
BRANCH  28  31
HETATM   31  C   UNL     1      -7.184   8.604  68.660  1.00  0.00    -0.076 A  
HETATM   32  C   UNL     1      -8.033   8.186  69.704  1.00  0.00    -0.115 A  
HETATM   33  C   UNL     1      -7.703   7.099  70.505  1.00  0.00    -0.094 A  
HETATM   34  C   UNL     1      -6.528   6.395  70.305  1.00  0.00    -0.040 A  
HETATM   35  F   UNL     1      -8.524   6.751  71.504  1.00  0.00    -0.117 F  
HETATM   36  C   UNL     1      -5.679   6.769  69.268  1.00  0.00    -0.018 A  
HETATM   37  C   UNL     1      -6.010   7.855  68.450  1.00  0.00    -0.036 A  
ENDBRANCH  28  31
ENDBRANCH  24  25
ENDBRANCH  14  23
TORSDOF 6
ENDMDL
MODEL       58
REMARK 921   NORMALIZED FREE ENERGY PREDICTED BY IDOCK:   -0.90 KCAL/MOL
REMARK 922        TOTAL FREE ENERGY PREDICTED BY IDOCK:   -2.57 KCAL/MOL
REMARK 923 INTER-LIGAND FREE ENERGY PREDICTED BY IDOCK:   -2.36 KCAL/MOL
REMARK 924 INTRA-LIGAND FREE ENERGY PREDICTED BY IDOCK:   -0.20 KCAL/MOL
REMARK 927      BINDING AFFINITY PREDICTED BY RF-SCORE:    0.00 PKD
ROOT
HETATM    1  C   UNL     1      -9.027   8.350  71.421  1.00  0.00    -0.237 C  
HETATM    2  C   UNL     1      -8.462   6.945  71.225  1.00  0.00    -0.120 C  
HETATM    3  C   UNL     1      -9.063   6.191  70.008  1.00  0.00    -0.151 C  
HETATM    4  C   UNL     1      -7.955   5.437  69.220  1.00  0.00    -0.093 C  
HETATM    5  C   UNL     1      -8.418   4.801  67.887  1.00  0.00    -0.103 C  
HETATM    6  C   UNL     1     -10.842   9.782  71.657  1.00  0.00     0.189 C  
HETATM    7  C   UNL     1      -9.369   5.673  67.058  1.00  0.00    -0.119 C  
HETATM    8  C   UNL     1     -10.499   8.427  71.061  1.00  0.00    -0.251 C  
HETATM    9  C   UNL     1     -10.465   6.272  67.922  1.00  0.00    -0.285 C  
HETATM   10  C   UNL     1     -12.324  10.054  71.831  1.00  0.00    -0.348 C  
HETATM   11  O   UNL     1     -10.170   9.741  72.926  1.00  0.00     2.885 OA 
HETATM   12  C   UNL     1      -9.787   7.116  69.009  1.00  0.00    -0.156 C  
HETATM   13  C   UNL     1      -9.083   8.905  72.817  1.00  0.00     0.487 C  
HETATM   14  C   UNL     1     -10.731   8.214  69.573  1.00  0.00    -0.180 C  
HETATM   15  O   UNL     1      -8.281   8.696  73.704  1.00  0.00    -0.395 OA 
ENDROOT
BRANCH   5  16
HETATM   16  N   UNL     1      -7.269   4.457  67.068  1.00  0.00    -0.068 N  
HETATM   17  H   UNL     1      -6.954   3.487  67.046  1.00  0.00     0.000 HD 
HETATM   18  C   UNL     1      -6.599   5.381  66.328  1.00  0.00    -0.052 C  
HETATM   19  O   UNL     1      -6.928   6.548  66.190  1.00  0.00    -0.059 OA 
BRANCH  18  20
HETATM   20  O   UNL     1      -5.548   4.778  65.720  1.00  0.00    -0.016 OA 
BRANCH  20  21
HETATM   21  C   UNL     1      -5.874   3.546  65.065  1.00  0.00    -0.022 C  
HETATM   22  C   UNL     1      -6.015   3.827  63.578  1.00  0.00    -0.014 C  
ENDBRANCH  20  21
ENDBRANCH  18  20
ENDBRANCH   5  16
BRANCH  14  23
HETATM   23  C   UNL     1     -10.372   9.443  68.777  1.00  0.00    -0.230 C  
HETATM   24  C   UNL     1      -9.253  10.175  68.847  1.00  0.00    -0.172 C  
BRANCH  24  25
HETATM   25  C   UNL     1      -9.261  11.545  68.312  1.00  0.00    -0.186 A  
HETATM   26  C   UNL     1      -8.071  13.493  67.624  1.00  0.00    -0.180 A  
HETATM   27  C   UNL     1      -8.114  12.107  67.780  1.00  0.00    -0.152 A  
HETATM   28  C   UNL     1      -9.145  14.301  68.032  1.00  0.00    -0.191 A  
HETATM   29  N   UNL     1     -10.373  12.277  68.572  1.00  0.00    -0.230 NA 
HETATM   30  C   UNL     1     -10.288  13.616  68.438  1.00  0.00    -0.248 A  
BRANCH  28  31
HETATM   31  C   UNL     1      -9.032  15.763  68.179  1.00  0.00    -0.180 A  
HETATM   32  C   UNL     1      -7.864  16.327  68.731  1.00  0.00    -0.216 A  
HETATM   33  C   UNL     1      -7.790  17.685  69.019  1.00  0.00    -0.106 A  
HETATM   34  C   UNL     1      -8.863  18.526  68.777  1.00  0.00    -0.268 A  
HETATM   35  F   UNL     1      -6.672  18.176  69.568  1.00  0.00    -0.255 F  
HETATM   36  C   UNL     1     -10.022  18.003  68.213  1.00  0.00    -0.374 A  
HETATM   37  C   UNL     1     -10.101  16.639  67.909  1.00  0.00    -0.270 A  
ENDBRANCH  28  31
ENDBRANCH  24  25
ENDBRANCH  14  23
TORSDOF 6
ENDMDL
MODEL       59
REMARK 921   NORMALIZED FREE ENERGY PREDICTED BY IDOCK:   -0.75 KCAL/MOL
REMARK 922        TOTAL FREE ENERGY PREDICTED BY IDOCK:   -2.37 KCAL/MOL
REMARK 923 INTER-LIGAND FREE ENERGY PREDICTED BY IDOCK:   -1.91 KCAL/MOL
REMARK 924 INTRA-LIGAND FREE ENERGY PREDICTED BY IDOCK:   -0.46 KCAL/MOL
REMARK 927      BINDING AFFINITY PREDICTED BY RF-SCORE:    0.00 PKD
ROOT
HETATM    1  C   UNL     1      -9.978  12.089  67.571  1.00  0.00    -0.199 C  
HETATM    2  C   UNL     1     -10.700  13.320  68.112  1.00  0.00    -0.264 C  
HETATM    3  C   UNL     1     -11.851  12.987  69.100  1.00  0.00    -0.360 C  
HETATM    4  C   UNL     1     -11.835  13.955  70.317  1.00  0.00    -0.360 C  
HETATM    5  C   UNL     1     -12.828  13.599  71.449  1.00  0.00    -0.360 C  
HETATM    6  C   UNL     1     -10.029  10.011  66.531  1.00  0.00    -0.225 C  
HETATM    7  C   UNL     1     -12.921  12.103  71.772  1.00  0.00    -0.437 C  
HETATM    8  C   UNL     1     -10.922  10.922  67.356  1.00  0.00    -0.353 C  
HETATM    9  C   UNL     1     -13.032  11.270  70.506  1.00  0.00    -0.056 C  
HETATM   10  C   UNL     1     -10.746   8.894  65.798  1.00  0.00     1.777 C  
HETATM   11  O   UNL     1      -9.420  10.928  65.608  1.00  0.00    -0.195 OA 
HETATM   12  C   UNL     1     -11.787  11.551  69.657  1.00  0.00    -0.421 C  
HETATM   13  C   UNL     1      -9.367  12.170  66.198  1.00  0.00    -0.195 C  
HETATM   14  C   UNL     1     -11.476  10.392  68.669  1.00  0.00    -0.238 C  
HETATM   15  O   UNL     1      -8.863  13.153  65.695  1.00  0.00     0.592 OA 
ENDROOT
BRANCH   5  16
HETATM   16  N   UNL     1     -12.484  14.316  72.665  1.00  0.00    -0.192 N  
HETATM   17  H   UNL     1     -12.718  13.897  73.565  1.00  0.00     0.000 HD 
HETATM   18  C   UNL     1     -11.862  15.525  72.646  1.00  0.00    -0.471 C  
HETATM   19  O   UNL     1     -11.443  16.088  71.647  1.00  0.00    -0.417 OA 
BRANCH  18  20
HETATM   20  O   UNL     1     -11.725  15.968  73.920  1.00  0.00    -0.140 OA 
BRANCH  20  21
HETATM   21  C   UNL     1     -12.645  17.004  74.287  1.00  0.00     0.363 C  
HETATM   22  C   UNL     1     -11.906  18.330  74.230  1.00  0.00     1.586 C  
ENDBRANCH  20  21
ENDBRANCH  18  20
ENDBRANCH   5  16
BRANCH  14  23
HETATM   23  C   UNL     1     -10.456   9.557  69.402  1.00  0.00    -0.231 C  
HETATM   24  C   UNL     1      -9.559   9.960  70.311  1.00  0.00    -0.184 C  
BRANCH  24  25
HETATM   25  C   UNL     1      -8.396   9.104  70.594  1.00  0.00    -0.205 A  
HETATM   26  C   UNL     1      -6.832   7.453  69.878  1.00  0.00    -0.055 A  
HETATM   27  C   UNL     1      -7.677   8.519  69.567  1.00  0.00    -0.091 A  
HETATM   28  C   UNL     1      -6.743   6.960  71.190  1.00  0.00    -0.057 A  
HETATM   29  N   UNL     1      -8.218   8.756  71.893  1.00  0.00    -0.344 NA 
HETATM   30  C   UNL     1      -7.417   7.703  72.156  1.00  0.00    -0.073 A  
BRANCH  28  31
HETATM   31  C   UNL     1      -6.121   5.663  71.514  1.00  0.00    -0.030 A  
HETATM   32  C   UNL     1      -6.158   4.611  70.577  1.00  0.00    -0.018 A  
HETATM   33  C   UNL     1      -5.713   3.337  70.911  1.00  0.00    -0.013 A  
HETATM   34  C   UNL     1      -5.225   3.060  72.176  1.00  0.00     0.000 A  
HETATM   35  F   UNL     1      -5.790   2.359  70.000  1.00  0.00    -0.016 F  
HETATM   36  C   UNL     1      -5.156   4.082  73.117  1.00  0.00     0.000 A  
HETATM   37  C   UNL     1      -5.590   5.371  72.785  1.00  0.00    -0.022 A  
ENDBRANCH  28  31
ENDBRANCH  24  25
ENDBRANCH  14  23
TORSDOF 6
ENDMDL
MODEL       60
REMARK 921   NORMALIZED FREE ENERGY PREDICTED BY IDOCK:   -0.05 KCAL/MOL
REMARK 922        TOTAL FREE ENERGY PREDICTED BY IDOCK:   -1.43 KCAL/MOL
REMARK 923 INTER-LIGAND FREE ENERGY PREDICTED BY IDOCK:   -0.29 KCAL/MOL
REMARK 924 INTRA-LIGAND FREE ENERGY PREDICTED BY IDOCK:   -1.14 KCAL/MOL
REMARK 927      BINDING AFFINITY PREDICTED BY RF-SCORE:    0.00 PKD
ROOT
HETATM    1  C   UNL     1     -11.521  13.740  70.552  1.00  0.00     0.053 C  
HETATM    2  C   UNL     1     -11.165  12.273  70.325  1.00  0.00     0.533 C  
HETATM    3  C   UNL     1     -11.399  11.790  68.867  1.00  0.00    -0.326 C  
HETATM    4  C   UNL     1     -10.222  10.896  68.384  1.00  0.00    -0.193 C  
HETATM    5  C   UNL     1     -10.267  10.509  66.886  1.00  0.00    -0.229 C  
HETATM    6  C   UNL     1     -13.031  15.499  70.401  1.00  0.00    -0.206 C  
HETATM    7  C   UNL     1     -10.691  11.643  65.944  1.00  0.00    -0.328 C  
HETATM    8  C   UNL     1     -12.726  14.168  69.736  1.00  0.00     0.005 C  
HETATM    9  C   UNL     1     -11.911  12.376  66.477  1.00  0.00    -0.407 C  
HETATM   10  C   UNL     1     -14.408  16.066  70.109  1.00  0.00     3.358 C  
HETATM   11  O   UNL     1     -12.885  15.190  71.796  1.00  0.00    -0.311 OA 
HETATM   12  C   UNL     1     -11.545  12.942  67.854  1.00  0.00    -0.391 C  
HETATM   13  C   UNL     1     -11.988  14.154  71.920  1.00  0.00     0.172 C  
HETATM   14  C   UNL     1     -12.433  14.157  68.244  1.00  0.00     0.218 C  
HETATM   15  O   UNL     1     -11.610  13.691  72.977  1.00  0.00     1.997 OA 
ENDROOT
BRANCH   5  16
HETATM   16  N   UNL     1      -8.973  10.008  66.456  1.00  0.00    -0.142 N  
HETATM   17  H   UNL     1      -8.404  10.585  65.836  1.00  0.00     0.000 HD 
HETATM   18  C   UNL     1      -8.493   8.798  66.849  1.00  0.00    -0.111 C  
HETATM   19  O   UNL     1      -9.025   8.057  67.660  1.00  0.00    -0.134 OA 
BRANCH  18  20
HETATM   20  O   UNL     1      -7.298   8.583  66.246  1.00  0.00    -0.077 OA 
BRANCH  20  21
HETATM   21  C   UNL     1      -7.272   8.918  64.853  1.00  0.00    -0.091 C  
HETATM   22  C   UNL     1      -7.634   7.670  64.063  1.00  0.00    -0.114 C  
ENDBRANCH  20  21
ENDBRANCH  18  20
ENDBRANCH   5  16
BRANCH  14  23
HETATM   23  C   UNL     1     -11.609  15.352  67.834  1.00  0.00    -0.267 C  
HETATM   24  C   UNL     1     -11.609  15.991  66.658  1.00  0.00     0.577 C  
BRANCH  24  25
HETATM   25  C   UNL     1     -10.464  16.846  66.309  1.00  0.00    -0.262 A  
HETATM   26  C   UNL     1      -8.107  17.149  66.107  1.00  0.00    -0.283 A  
HETATM   27  C   UNL     1      -9.215  16.300  66.074  1.00  0.00    -0.351 A  
HETATM   28  C   UNL     1      -8.251  18.514  66.407  1.00  0.00    -0.289 A  
HETATM   29  N   UNL     1     -10.656  18.182  66.449  1.00  0.00    -0.328 NA 
HETATM   30  C   UNL     1      -9.563  18.970  66.504  1.00  0.00    -0.351 A  
BRANCH  28  31
HETATM   31  C   UNL     1      -7.109  19.377  66.758  1.00  0.00    -0.213 A  
HETATM   32  C   UNL     1      -6.899  19.758  68.099  1.00  0.00    -0.319 A  
HETATM   33  C   UNL     1      -5.923  20.688  68.436  1.00  0.00    -0.333 A  
HETATM   34  C   UNL     1      -5.128  21.273  67.465  1.00  0.00    -0.288 A  
HETATM   35  F   UNL     1      -5.774  21.043  69.718  1.00  0.00    -0.402 F  
HETATM   36  C   UNL     1      -5.295  20.901  66.135  1.00  0.00    -0.234 A  
HETATM   37  C   UNL     1      -6.268  19.956  65.788  1.00  0.00    -0.220 A  
ENDBRANCH  28  31
ENDBRANCH  24  25
ENDBRANCH  14  23
TORSDOF 6
ENDMDL
MODEL       61
REMARK 921   NORMALIZED FREE ENERGY PREDICTED BY IDOCK:    0.21 KCAL/MOL
REMARK 922        TOTAL FREE ENERGY PREDICTED BY IDOCK:   -1.08 KCAL/MOL
REMARK 923 INTER-LIGAND FREE ENERGY PREDICTED BY IDOCK:    0.16 KCAL/MOL
REMARK 924 INTRA-LIGAND FREE ENERGY PREDICTED BY IDOCK:   -1.24 KCAL/MOL
REMARK 927      BINDING AFFINITY PREDICTED BY RF-SCORE:    0.00 PKD
ROOT
HETATM    1  C   UNL     1     -11.671   5.472  72.603  1.00  0.00    -0.240 C  
HETATM    2  C   UNL     1     -11.250   6.844  73.123  1.00  0.00    -0.156 C  
HETATM    3  C   UNL     1      -9.797   6.887  73.671  1.00  0.00    -0.291 C  
HETATM    4  C   UNL     1      -9.067   8.179  73.207  1.00  0.00    -0.327 C  
HETATM    5  C   UNL     1      -7.558   8.236  73.548  1.00  0.00    -0.128 C  
HETATM    6  C   UNL     1     -11.911   3.181  72.910  1.00  0.00     0.748 C  
HETATM    7  C   UNL     1      -6.804   6.917  73.339  1.00  0.00    -0.074 C  
HETATM    8  C   UNL     1     -11.078   4.343  73.424  1.00  0.00    -0.394 C  
HETATM    9  C   UNL     1      -7.572   5.743  73.923  1.00  0.00    -0.096 C  
HETATM   10  C   UNL     1     -11.871   1.930  73.767  1.00  0.00    -0.189 C  
HETATM   11  O   UNL     1     -13.233   3.740  72.872  1.00  0.00     1.142 OA 
HETATM   12  C   UNL     1      -8.936   5.688  73.224  1.00  0.00    -0.127 C  
HETATM   13  C   UNL     1     -13.126   5.099  72.683  1.00  0.00     1.370 C  
HETATM   14  C   UNL     1      -9.566   4.269  73.277  1.00  0.00    -0.139 C  
HETATM   15  O   UNL     1     -14.068   5.855  72.556  1.00  0.00     0.058 OA 
ENDROOT
BRANCH   5  16
HETATM   16  N   UNL     1      -6.905   9.272  72.769  1.00  0.00     0.493 N  
HETATM   17  H   UNL     1      -7.332   9.570  71.892  1.00  0.00     0.000 HD 
HETATM   18  C   UNL     1      -5.744   9.860  73.165  1.00  0.00     0.479 C  
HETATM   19  O   UNL     1      -5.184   9.667  74.233  1.00  0.00    -0.138 OA 
BRANCH  18  20
HETATM   20  O   UNL     1      -5.350  10.741  72.214  1.00  0.00    -0.316 OA 
BRANCH  20  21
HETATM   21  C   UNL     1      -5.742  10.385  70.882  1.00  0.00    -0.082 C  
HETATM   22  C   UNL     1      -5.945  11.667  70.093  1.00  0.00    -0.161 C  
ENDBRANCH  20  21
ENDBRANCH  18  20
ENDBRANCH   5  16
BRANCH  14  23
HETATM   23  C   UNL     1      -9.170   3.650  71.960  1.00  0.00    -0.169 C  
HETATM   24  C   UNL     1      -8.921   4.267  70.798  1.00  0.00    -0.154 C  
BRANCH  24  25
HETATM   25  C   UNL     1      -8.963   3.488  69.551  1.00  0.00    -0.115 A  
HETATM   26  C   UNL     1      -7.880   2.065  67.975  1.00  0.00    -0.058 A  
HETATM   27  C   UNL     1      -8.018   2.513  69.289  1.00  0.00    -0.056 A  
HETATM   28  C   UNL     1      -8.651   2.615  66.938  1.00  0.00    -0.118 A  
HETATM   29  N   UNL     1      -9.829   3.930  68.605  1.00  0.00    -0.032 NA 
HETATM   30  C   UNL     1      -9.650   3.499  67.340  1.00  0.00    -0.125 A  
BRANCH  28  31
HETATM   31  C   UNL     1      -8.334   2.410  65.513  1.00  0.00    -0.091 A  
HETATM   32  C   UNL     1      -7.011   2.126  65.120  1.00  0.00    -0.047 A  
HETATM   33  C   UNL     1      -6.657   2.075  63.777  1.00  0.00    -0.026 A  
HETATM   34  C   UNL     1      -7.592   2.307  62.782  1.00  0.00    -0.053 A  
HETATM   35  F   UNL     1      -5.383   1.829  63.446  1.00  0.00    -0.003 F  
HETATM   36  C   UNL     1      -8.911   2.568  63.138  1.00  0.00    -0.088 A  
HETATM   37  C   UNL     1      -9.279   2.609  64.488  1.00  0.00    -0.134 A  
ENDBRANCH  28  31
ENDBRANCH  24  25
ENDBRANCH  14  23
TORSDOF 6
ENDMDL
MODEL       62
REMARK 921   NORMALIZED FREE ENERGY PREDICTED BY IDOCK:    0.45 KCAL/MOL
REMARK 922        TOTAL FREE ENERGY PREDICTED BY IDOCK:   -0.75 KCAL/MOL
REMARK 923 INTER-LIGAND FREE ENERGY PREDICTED BY IDOCK:   -0.08 KCAL/MOL
REMARK 924 INTRA-LIGAND FREE ENERGY PREDICTED BY IDOCK:   -0.67 KCAL/MOL
REMARK 927      BINDING AFFINITY PREDICTED BY RF-SCORE:    0.00 PKD
ROOT
HETATM    1  C   UNL     1     -12.309  14.186  72.126  1.00  0.00    -0.181 C  
HETATM    2  C   UNL     1     -13.033  13.128  72.953  1.00  0.00     0.483 C  
HETATM    3  C   UNL     1     -13.501  11.899  72.126  1.00  0.00    -0.300 C  
HETATM    4  C   UNL     1     -13.228  10.576  72.896  1.00  0.00     1.642 C  
HETATM    5  C   UNL     1     -13.491   9.282  72.088  1.00  0.00    -0.473 C  
HETATM    6  C   UNL     1     -12.230  15.614  70.294  1.00  0.00    -0.386 C  
HETATM    7  C   UNL     1     -13.018   9.331  70.630  1.00  0.00     0.200 C  
HETATM    8  C   UNL     1     -12.891  14.318  70.731  1.00  0.00    -0.404 C  
HETATM    9  C   UNL     1     -13.432  10.629  69.958  1.00  0.00     0.846 C  
HETATM   10  C   UNL     1     -12.855  16.281  69.083  1.00  0.00     1.895 C  
HETATM   11  O   UNL     1     -12.360  16.438  71.463  1.00  0.00    -0.211 OA 
HETATM   12  C   UNL     1     -12.809  11.782  70.754  1.00  0.00    -0.164 C  
HETATM   13  C   UNL     1     -12.402  15.621  72.570  1.00  0.00    -0.433 C  
HETATM   14  C   UNL     1     -12.651  13.069  69.897  1.00  0.00     0.094 C  
HETATM   15  O   UNL     1     -12.459  16.014  73.717  1.00  0.00    -0.499 OA 
ENDROOT
BRANCH   5  16
HETATM   16  N   UNL     1     -12.867   8.145  72.741  1.00  0.00    -0.566 N  
HETATM   17  H   UNL     1     -13.464   7.425  73.149  1.00  0.00     0.000 HD 
HETATM   18  C   UNL     1     -11.517   8.005  72.828  1.00  0.00    -0.356 C  
HETATM   19  O   UNL     1     -10.696   8.739  72.301  1.00  0.00    -0.344 OA 
BRANCH  18  20
HETATM   20  O   UNL     1     -11.237   6.884  73.536  1.00  0.00    -0.098 OA 
BRANCH  20  21
HETATM   21  C   UNL     1     -10.051   6.200  73.112  1.00  0.00    -0.188 C  
HETATM   22  C   UNL     1     -10.447   5.188  72.049  1.00  0.00    -0.278 C  
ENDBRANCH  20  21
ENDBRANCH  18  20
ENDBRANCH   5  16
BRANCH  14  23
HETATM   23  C   UNL     1     -11.228  13.000  69.403  1.00  0.00    -0.209 C  
HETATM   24  C   UNL     1     -10.763  13.289  68.181  1.00  0.00    -0.264 C  
BRANCH  24  25
HETATM   25  C   UNL     1      -9.448  12.769  67.775  1.00  0.00    -0.205 A  
HETATM   26  C   UNL     1      -7.753  12.526  66.115  1.00  0.00     1.221 A  
HETATM   27  C   UNL     1      -8.795  13.274  66.665  1.00  0.00    -0.072 A  
HETATM   28  C   UNL     1      -7.400  11.276  66.650  1.00  0.00    -0.131 A  
HETATM   29  N   UNL     1      -9.034  11.643  68.408  1.00  0.00    -0.181 NA 
HETATM   30  C   UNL     1      -8.043  10.930  67.836  1.00  0.00    -0.113 A  
BRANCH  28  31
HETATM   31  C   UNL     1      -6.536  10.319  65.936  1.00  0.00    -0.111 A  
HETATM   32  C   UNL     1      -6.258  10.506  64.567  1.00  0.00    -0.007 A  
HETATM   33  C   UNL     1      -5.573   9.544  63.836  1.00  0.00    -0.073 A  
HETATM   34  C   UNL     1      -5.144   8.368  64.428  1.00  0.00    -0.036 A  
HETATM   35  F   UNL     1      -5.353   9.748  62.531  1.00  0.00    -0.084 F  
HETATM   36  C   UNL     1      -5.384   8.163  65.783  1.00  0.00    -0.028 A  
HETATM   37  C   UNL     1      -6.063   9.133  66.530  1.00  0.00    -0.064 A  
ENDBRANCH  28  31
ENDBRANCH  24  25
ENDBRANCH  14  23
TORSDOF 6
ENDMDL
MODEL       63
REMARK 921   NORMALIZED FREE ENERGY PREDICTED BY IDOCK:    0.90 KCAL/MOL
REMARK 922        TOTAL FREE ENERGY PREDICTED BY IDOCK:   -0.14 KCAL/MOL
REMARK 923 INTER-LIGAND FREE ENERGY PREDICTED BY IDOCK:    0.51 KCAL/MOL
REMARK 924 INTRA-LIGAND FREE ENERGY PREDICTED BY IDOCK:   -0.65 KCAL/MOL
REMARK 927      BINDING AFFINITY PREDICTED BY RF-SCORE:    0.00 PKD
ROOT
HETATM    1  C   UNL     1     -10.508  11.471  69.180  1.00  0.00    -0.135 C  
HETATM    2  C   UNL     1     -10.792  11.153  70.646  1.00  0.00     1.030 C  
HETATM    3  C   UNL     1     -11.420   9.750  70.873  1.00  0.00    -0.447 C  
HETATM    4  C   UNL     1     -10.775   9.046  72.100  1.00  0.00    -0.226 C  
HETATM    5  C   UNL     1     -11.200   7.572  72.307  1.00  0.00    -0.283 C  
HETATM    6  C   UNL     1     -11.218  11.629  66.973  1.00  0.00    -0.314 C  
HETATM    7  C   UNL     1     -11.290   6.746  71.018  1.00  0.00    -0.356 C  
HETATM    8  C   UNL     1     -11.563  10.892  68.256  1.00  0.00    -0.335 C  
HETATM    9  C   UNL     1     -12.028   7.502  69.927  1.00  0.00     0.434 C  
HETATM   10  C   UNL     1     -12.292  11.598  65.903  1.00  0.00     1.377 C  
HETATM   11  O   UNL     1     -10.988  12.968  67.437  1.00  0.00    -0.250 OA 
HETATM   12  C   UNL     1     -11.261   8.804  69.666  1.00  0.00     0.058 C  
HETATM   13  C   UNL     1     -10.558  12.909  68.743  1.00  0.00    -0.190 C  
HETATM   14  C   UNL     1     -11.533   9.371  68.245  1.00  0.00     0.534 C  
HETATM   15  O   UNL     1     -10.231  13.872  69.407  1.00  0.00     0.046 OA 
ENDROOT
BRANCH   5  16
HETATM   16  N   UNL     1     -10.287   6.909  73.221  1.00  0.00    -0.256 N  
HETATM   17  H   UNL     1     -10.673   6.399  74.016  1.00  0.00     0.000 HD 
HETATM   18  C   UNL     1      -8.938   6.942  73.056  1.00  0.00    -0.126 C  
HETATM   19  O   UNL     1      -8.355   7.431  72.101  1.00  0.00    -0.106 OA 
BRANCH  18  20
HETATM   20  O   UNL     1      -8.353   6.287  74.089  1.00  0.00    -0.114 OA 
BRANCH  20  21
HETATM   21  C   UNL     1      -7.441   5.255  73.692  1.00  0.00    -0.095 C  
HETATM   22  C   UNL     1      -8.180   4.309  72.761  1.00  0.00    -0.094 C  
ENDBRANCH  20  21
ENDBRANCH  18  20
ENDBRANCH   5  16
BRANCH  14  23
HETATM   23  C   UNL     1     -10.384   8.847  67.422  1.00  0.00    -0.337 C  
HETATM   24  C   UNL     1     -10.435   8.070  66.332  1.00  0.00     0.199 C  
BRANCH  24  25
HETATM   25  C   UNL     1      -9.230   7.331  65.925  1.00  0.00     0.047 A  
HETATM   26  C   UNL     1      -8.128   5.876  64.390  1.00  0.00    -0.128 A  
HETATM   27  C   UNL     1      -9.088   6.860  64.632  1.00  0.00     0.980 A  
HETATM   28  C   UNL     1      -7.353   5.349  65.437  1.00  0.00    -0.069 A  
HETATM   29  N   UNL     1      -8.397   6.956  66.928  1.00  0.00    -0.113 NA 
HETATM   30  C   UNL     1      -7.500   5.984  66.668  1.00  0.00    -0.090 A  
BRANCH  28  31
HETATM   31  C   UNL     1      -6.562   4.113  65.298  1.00  0.00    -0.047 A  
HETATM   32  C   UNL     1      -6.598   3.386  64.091  1.00  0.00    -0.035 A  
HETATM   33  C   UNL     1      -5.983   2.144  63.984  1.00  0.00    -0.013 A  
HETATM   34  C   UNL     1      -5.320   1.579  65.061  1.00  0.00    -0.005 A  
HETATM   35  F   UNL     1      -6.063   1.473  62.828  1.00  0.00    -0.007 F  
HETATM   36  C   UNL     1      -5.249   2.282  66.259  1.00  0.00    -0.005 A  
HETATM   37  C   UNL     1      -5.855   3.539  66.372  1.00  0.00    -0.023 A  
ENDBRANCH  28  31
ENDBRANCH  24  25
ENDBRANCH  14  23
TORSDOF 6
ENDMDL
MODEL       64
REMARK 921   NORMALIZED FREE ENERGY PREDICTED BY IDOCK:    0.97 KCAL/MOL
REMARK 922        TOTAL FREE ENERGY PREDICTED BY IDOCK:   -0.05 KCAL/MOL
REMARK 923 INTER-LIGAND FREE ENERGY PREDICTED BY IDOCK:    1.12 KCAL/MOL
REMARK 924 INTRA-LIGAND FREE ENERGY PREDICTED BY IDOCK:   -1.16 KCAL/MOL
REMARK 927      BINDING AFFINITY PREDICTED BY RF-SCORE:    0.00 PKD
ROOT
HETATM    1  C   UNL     1      -9.897  12.762  65.052  1.00  0.00    -0.077 C  
HETATM    2  C   UNL     1      -9.515  14.240  65.042  1.00  0.00     0.663 C  
HETATM    3  C   UNL     1     -10.289  15.094  66.083  1.00  0.00    -0.313 C  
HETATM    4  C   UNL     1      -9.337  16.098  66.794  1.00  0.00    -0.255 C  
HETATM    5  C   UNL     1      -9.969  16.873  67.975  1.00  0.00    -0.279 C  
HETATM    6  C   UNL     1     -11.510  11.092  64.958  1.00  0.00     0.448 C  
HETATM    7  C   UNL     1     -10.870  16.029  68.885  1.00  0.00    -0.286 C  
HETATM    8  C   UNL     1     -11.372  12.556  65.339  1.00  0.00    -0.363 C  
HETATM    9  C   UNL     1     -11.822  15.167  68.074  1.00  0.00    -0.225 C  
HETATM   10  C   UNL     1     -12.933  10.609  64.752  1.00  0.00     6.612 C  
HETATM   11  O   UNL     1     -10.755  11.017  63.738  1.00  0.00    -0.362 OA 
HETATM   12  C   UNL     1     -10.972  14.255  67.180  1.00  0.00    -0.305 C  
HETATM   13  C   UNL     1      -9.784  11.991  63.765  1.00  0.00    -0.173 C  
HETATM   14  C   UNL     1     -11.737  12.971  66.756  1.00  0.00    -0.440 C  
HETATM   15  O   UNL     1      -8.948  12.157  62.901  1.00  0.00     0.132 OA 
ENDROOT
BRANCH   5  16
HETATM   16  N   UNL     1      -8.932  17.485  68.787  1.00  0.00    -0.250 N  
HETATM   17  H   UNL     1      -8.808  17.166  69.749  1.00  0.00     0.000 HD 
HETATM   18  C   UNL     1      -8.120  18.468  68.314  1.00  0.00    -0.303 C  
HETATM   19  O   UNL     1      -8.098  18.872  67.162  1.00  0.00    -0.257 OA 
BRANCH  18  20
HETATM   20  O   UNL     1      -7.298  18.877  69.311  1.00  0.00    -0.261 OA 
BRANCH  20  21
HETATM   21  C   UNL     1      -5.925  19.016  68.923  1.00  0.00    -0.215 C  
HETATM   22  C   UNL     1      -5.285  17.638  68.960  1.00  0.00    -0.170 C  
ENDBRANCH  20  21
ENDBRANCH  18  20
ENDBRANCH   5  16
BRANCH  14  23
HETATM   23  C   UNL     1     -11.297  11.939  67.763  1.00  0.00    -0.361 C  
HETATM   24  C   UNL     1     -10.133  11.872  68.422  1.00  0.00    -0.206 C  
BRANCH  24  25
HETATM   25  C   UNL     1      -9.728  10.594  69.029  1.00  0.00    -0.202 A  
HETATM   26  C   UNL     1      -8.756   8.428  68.809  1.00  0.00    -0.136 A  
HETATM   27  C   UNL     1      -8.831   9.757  68.390  1.00  0.00    -0.120 A  
HETATM   28  C   UNL     1      -9.596   7.941  69.825  1.00  0.00    -0.167 A  
HETATM   29  N   UNL     1     -10.442  10.199  70.112  1.00  0.00    -0.275 NA 
HETATM   30  C   UNL     1     -10.368   8.902  70.473  1.00  0.00    -0.203 A  
BRANCH  28  31
HETATM   31  C   UNL     1      -9.778   6.503  70.087  1.00  0.00    -0.180 A  
HETATM   32  C   UNL     1     -10.709   6.075  71.055  1.00  0.00    -0.325 A  
HETATM   33  C   UNL     1     -10.795   4.739  71.427  1.00  0.00     0.228 A  
HETATM   34  C   UNL     1      -9.965   3.785  70.863  1.00  0.00    -0.097 A  
HETATM   35  F   UNL     1     -11.675   4.378  72.370  1.00  0.00     0.151 F  
HETATM   36  C   UNL     1      -9.049   4.172  69.889  1.00  0.00    -0.179 A  
HETATM   37  C   UNL     1      -8.965   5.514  69.499  1.00  0.00    -0.129 A  
ENDBRANCH  28  31
ENDBRANCH  24  25
ENDBRANCH  14  23
TORSDOF 6
ENDMDL
MODEL       65
REMARK 921   NORMALIZED FREE ENERGY PREDICTED BY IDOCK:    1.25 KCAL/MOL
REMARK 922        TOTAL FREE ENERGY PREDICTED BY IDOCK:    0.33 KCAL/MOL
REMARK 923 INTER-LIGAND FREE ENERGY PREDICTED BY IDOCK:    0.63 KCAL/MOL
REMARK 924 INTRA-LIGAND FREE ENERGY PREDICTED BY IDOCK:   -0.30 KCAL/MOL
REMARK 927      BINDING AFFINITY PREDICTED BY RF-SCORE:    0.00 PKD
ROOT
HETATM    1  C   UNL     1     -10.086  16.691  65.917  1.00  0.00    -0.341 C  
HETATM    2  C   UNL     1      -9.717  17.088  67.344  1.00  0.00    -0.252 C  
HETATM    3  C   UNL     1      -9.881  15.939  68.376  1.00  0.00    -0.214 C  
HETATM    4  C   UNL     1      -8.680  15.906  69.364  1.00  0.00    -0.198 C  
HETATM    5  C   UNL     1      -8.655  14.690  70.321  1.00  0.00     1.291 C  
HETATM    6  C   UNL     1     -11.592  15.782  64.398  1.00  0.00    -0.240 C  
HETATM    7  C   UNL     1      -9.037  13.355  69.670  1.00  0.00     1.692 C  
HETATM    8  C   UNL     1     -11.253  15.722  65.878  1.00  0.00     0.004 C  
HETATM    9  C   UNL     1     -10.282  13.496  68.811  1.00  0.00    -0.139 C  
HETATM   10  C   UNL     1     -12.954  15.229  64.026  1.00  0.00     1.133 C  
HETATM   11  O   UNL     1     -11.510  17.188  64.118  1.00  0.00    -0.993 OA 
HETATM   12  C   UNL     1      -9.982  14.543  67.731  1.00  0.00    -0.225 C  
HETATM   13  C   UNL     1     -10.617  17.756  64.998  1.00  0.00     0.749 C  
HETATM   14  C   UNL     1     -10.890  14.374  66.481  1.00  0.00    -0.310 C  
HETATM   15  O   UNL     1     -10.288  18.925  64.990  1.00  0.00     0.241 OA 
ENDROOT
BRANCH   5  16
HETATM   16  N   UNL     1      -7.341  14.552  70.925  1.00  0.00     0.532 N  
HETATM   17  H   UNL     1      -7.271  14.495  71.942  1.00  0.00     0.000 HD 
HETATM   18  C   UNL     1      -6.201  14.498  70.186  1.00  0.00    -0.167 C  
HETATM   19  O   UNL     1      -6.152  14.460  68.966  1.00  0.00    -0.087 OA 
BRANCH  18  20
HETATM   20  O   UNL     1      -5.138  14.427  71.023  1.00  0.00    -0.109 OA 
BRANCH  20  21
HETATM   21  C   UNL     1      -5.347  13.597  72.172  1.00  0.00    -0.140 C  
HETATM   22  C   UNL     1      -5.229  14.470  73.411  1.00  0.00    -0.272 C  
ENDBRANCH  20  21
ENDBRANCH  18  20
ENDBRANCH   5  16
BRANCH  14  23
HETATM   23  C   UNL     1     -10.051  13.553  65.534  1.00  0.00    -0.283 C  
HETATM   24  C   UNL     1     -10.465  12.672  64.615  1.00  0.00    -0.361 C  
BRANCH  24  25
HETATM   25  C   UNL     1      -9.511  11.682  64.093  1.00  0.00    -0.034 A  
HETATM   26  C   UNL     1      -9.079   9.700  62.840  1.00  0.00    -0.241 A  
HETATM   27  C   UNL     1      -9.858  10.838  63.054  1.00  0.00    -0.344 A  
HETATM   28  C   UNL     1      -7.995   9.397  63.679  1.00  0.00    -0.142 A  
HETATM   29  N   UNL     1      -8.383  11.502  64.826  1.00  0.00     0.637 NA 
HETATM   30  C   UNL     1      -7.669  10.379  64.612  1.00  0.00    -0.063 A  
BRANCH  28  31
HETATM   31  C   UNL     1      -7.344   8.075  63.694  1.00  0.00    -0.106 A  
HETATM   32  C   UNL     1      -7.794   7.077  64.582  1.00  0.00    -0.123 A  
HETATM   33  C   UNL     1      -7.107   5.878  64.722  1.00  0.00    -0.060 A  
HETATM   34  C   UNL     1      -5.954   5.626  63.998  1.00  0.00    -0.025 A  
HETATM   35  F   UNL     1      -7.553   4.967  65.597  1.00  0.00    -0.080 F  
HETATM   36  C   UNL     1      -5.495   6.583  63.098  1.00  0.00    -0.030 A  
HETATM   37  C   UNL     1      -6.189   7.788  62.941  1.00  0.00    -0.071 A  
ENDBRANCH  28  31
ENDBRANCH  24  25
ENDBRANCH  14  23
TORSDOF 6
ENDMDL
MODEL       66
REMARK 921   NORMALIZED FREE ENERGY PREDICTED BY IDOCK:    1.32 KCAL/MOL
REMARK 922        TOTAL FREE ENERGY PREDICTED BY IDOCK:    0.43 KCAL/MOL
REMARK 923 INTER-LIGAND FREE ENERGY PREDICTED BY IDOCK:    0.23 KCAL/MOL
REMARK 924 INTRA-LIGAND FREE ENERGY PREDICTED BY IDOCK:    0.20 KCAL/MOL
REMARK 927      BINDING AFFINITY PREDICTED BY RF-SCORE:    0.00 PKD
ROOT
HETATM    1  C   UNL     1      -9.515  13.566  65.644  1.00  0.00     0.099 C  
HETATM    2  C   UNL     1      -9.193  15.053  65.757  1.00  0.00    -0.038 C  
HETATM    3  C   UNL     1      -9.380  15.628  67.188  1.00  0.00    -0.229 C  
HETATM    4  C   UNL     1      -8.210  16.583  67.559  1.00  0.00    -0.170 C  
HETATM    5  C   UNL     1      -8.205  17.070  69.029  1.00  0.00    -0.130 C  
HETATM    6  C   UNL     1     -10.966  11.782  65.976  1.00  0.00    -0.306 C  
HETATM    7  C   UNL     1      -8.557  15.992  70.061  1.00  0.00     0.807 C  
HETATM    8  C   UNL     1     -10.672  13.163  66.537  1.00  0.00    -0.288 C  
HETATM    9  C   UNL     1      -9.776  15.192  69.632  1.00  0.00    -0.145 C  
HETATM   10  C   UNL     1     -12.313  11.201  66.365  1.00  0.00     2.774 C  
HETATM   11  O   UNL     1     -10.886  12.000  64.559  1.00  0.00    -0.285 OA 
HETATM   12  C   UNL     1      -9.451  14.543  68.281  1.00  0.00    -0.207 C  
HETATM   13  C   UNL     1     -10.025  13.048  64.327  1.00  0.00    -0.058 C  
HETATM   14  C   UNL     1     -10.319  13.283  68.012  1.00  0.00    -0.243 C  
HETATM   15  O   UNL     1      -9.705  13.448  63.227  1.00  0.00     1.825 OA 
ENDROOT
BRANCH   5  16
HETATM   16  N   UNL     1      -6.910  17.632  69.368  1.00  0.00    -0.193 N  
HETATM   17  H   UNL     1      -6.230  17.044  69.851  1.00  0.00     0.000 HD 
HETATM   18  C   UNL     1      -6.570  18.914  69.066  1.00  0.00    -0.281 C  
HETATM   19  O   UNL     1      -7.248  19.688  68.409  1.00  0.00    -0.298 OA 
BRANCH  18  20
HETATM   20  O   UNL     1      -5.331  19.166  69.554  1.00  0.00    -0.187 OA 
BRANCH  20  21
HETATM   21  C   UNL     1      -5.180  20.467  70.135  1.00  0.00    -0.299 C  
HETATM   22  C   UNL     1      -6.023  20.518  71.399  1.00  0.00    -0.134 C  
ENDBRANCH  20  21
ENDBRANCH  18  20
ENDBRANCH   5  16
BRANCH  14  23
HETATM   23  C   UNL     1      -9.444  12.140  68.464  1.00  0.00    -0.125 C  
HETATM   24  C   UNL     1      -9.415  10.886  67.995  1.00  0.00    -0.167 C  
BRANCH  24  25
HETATM   25  C   UNL     1      -8.816   9.828  68.822  1.00  0.00    -0.129 A  
HETATM   26  C   UNL     1      -8.466   7.511  69.265  1.00  0.00    -0.136 A  
HETATM   27  C   UNL     1      -8.696   8.535  68.345  1.00  0.00    -0.143 A  
HETATM   28  C   UNL     1      -8.399   7.778  70.642  1.00  0.00    -0.124 A  
HETATM   29  N   UNL     1      -8.603  10.141  70.124  1.00  0.00    -0.008 NA 
HETATM   30  C   UNL     1      -8.413   9.126  70.991  1.00  0.00    -0.165 A  
BRANCH  28  31
HETATM   31  C   UNL     1      -8.471   6.718  71.664  1.00  0.00    -0.115 A  
HETATM   32  C   UNL     1      -7.390   6.513  72.544  1.00  0.00    -0.089 A  
HETATM   33  C   UNL     1      -7.370   5.430  73.415  1.00  0.00    -0.095 A  
HETATM   34  C   UNL     1      -8.409   4.515  73.442  1.00  0.00    -0.102 A  
HETATM   35  F   UNL     1      -6.311   5.255  74.216  1.00  0.00    -0.059 F  
HETATM   36  C   UNL     1      -9.501   4.703  72.601  1.00  0.00    -0.163 A  
HETATM   37  C   UNL     1      -9.535   5.798  71.729  1.00  0.00    -0.167 A  
ENDBRANCH  28  31
ENDBRANCH  24  25
ENDBRANCH  14  23
TORSDOF 6
ENDMDL
MODEL       67
REMARK 921   NORMALIZED FREE ENERGY PREDICTED BY IDOCK:    2.68 KCAL/MOL
REMARK 922        TOTAL FREE ENERGY PREDICTED BY IDOCK:    2.26 KCAL/MOL
REMARK 923 INTER-LIGAND FREE ENERGY PREDICTED BY IDOCK:    1.34 KCAL/MOL
REMARK 924 INTRA-LIGAND FREE ENERGY PREDICTED BY IDOCK:    0.92 KCAL/MOL
REMARK 927      BINDING AFFINITY PREDICTED BY RF-SCORE:    0.00 PKD
ROOT
HETATM    1  C   UNL     1      -9.491  15.881  67.138  1.00  0.00    -0.221 C  
HETATM    2  C   UNL     1     -10.138  16.864  68.110  1.00  0.00    -0.299 C  
HETATM    3  C   UNL     1     -11.508  16.387  68.666  1.00  0.00    -0.224 C  
HETATM    4  C   UNL     1     -11.620  16.679  70.189  1.00  0.00     0.372 C  
HETATM    5  C   UNL     1     -12.871  16.082  70.878  1.00  0.00     0.197 C  
HETATM    6  C   UNL     1      -9.601  14.557  65.232  1.00  0.00     0.123 C  
HETATM    7  C   UNL     1     -13.233  14.661  70.429  1.00  0.00    -0.049 C  
HETATM    8  C   UNL     1     -10.518  15.174  66.274  1.00  0.00    -0.312 C  
HETATM    9  C   UNL     1     -13.184  14.531  68.916  1.00  0.00     2.324 C  
HETATM   10  C   UNL     1     -10.292  14.075  63.970  1.00  0.00     0.976 C  
HETATM   11  O   UNL     1      -8.691  15.630  64.946  1.00  0.00     1.905 OA 
HETATM   12  C   UNL     1     -11.760  14.880  68.467  1.00  0.00    -0.338 C  
HETATM   13  C   UNL     1      -8.597  16.431  66.061  1.00  0.00    -0.211 C  
HETATM   14  C   UNL     1     -11.407  14.249  67.092  1.00  0.00    -0.352 C  
HETATM   15  O   UNL     1      -7.868  17.397  66.159  1.00  0.00    -0.368 OA 
ENDROOT
BRANCH   5  16
HETATM   16  N   UNL     1     -12.700  16.084  72.320  1.00  0.00    -0.440 N  
HETATM   17  H   UNL     1     -12.435  16.954  72.783  1.00  0.00     0.000 HD 
HETATM   18  C   UNL     1     -12.879  14.968  73.077  1.00  0.00    -0.471 C  
HETATM   19  O   UNL     1     -13.288  13.894  72.664  1.00  0.00    -0.512 OA 
BRANCH  18  20
HETATM   20  O   UNL     1     -12.596  15.263  74.369  1.00  0.00    -0.530 OA 
BRANCH  20  21
HETATM   21  C   UNL     1     -11.788  16.434  74.543  1.00  0.00     0.243 C  
HETATM   22  C   UNL     1     -12.680  17.651  74.360  1.00  0.00     1.681 C  
ENDBRANCH  20  21
ENDBRANCH  18  20
ENDBRANCH   5  16
BRANCH  14  23
HETATM   23  C   UNL     1     -10.689  12.972  67.454  1.00  0.00    -0.256 C  
HETATM   24  C   UNL     1     -11.075  11.712  67.217  1.00  0.00    -0.346 C  
BRANCH  24  25
HETATM   25  C   UNL     1     -10.472  10.622  67.999  1.00  0.00    -0.196 A  
HETATM   26  C   UNL     1      -8.714   9.817  69.395  1.00  0.00    -0.178 A  
HETATM   27  C   UNL     1      -9.500  10.880  68.949  1.00  0.00    -0.182 A  
HETATM   28  C   UNL     1      -8.876   8.526  68.866  1.00  0.00    -0.139 A  
HETATM   29  N   UNL     1     -10.758   9.363  67.580  1.00  0.00    -0.268 NA 
HETATM   30  C   UNL     1      -9.962   8.363  68.008  1.00  0.00    -0.182 A  
BRANCH  28  31
HETATM   31  C   UNL     1      -7.886   7.453  69.064  1.00  0.00    -0.120 A  
HETATM   32  C   UNL     1      -8.233   6.114  68.795  1.00  0.00    -0.108 A  
HETATM   33  C   UNL     1      -7.372   5.071  69.114  1.00  0.00    -0.057 A  
HETATM   34  C   UNL     1      -6.146   5.314  69.711  1.00  0.00    -0.021 A  
HETATM   35  F   UNL     1      -7.752   3.811  68.867  1.00  0.00    -0.053 F  
HETATM   36  C   UNL     1      -5.765   6.626  69.970  1.00  0.00    -0.019 A  
HETATM   37  C   UNL     1      -6.621   7.683  69.640  1.00  0.00    -0.035 A  
ENDBRANCH  28  31
ENDBRANCH  24  25
ENDBRANCH  14  23
TORSDOF 6
ENDMDL
MODEL       68
REMARK 921   NORMALIZED FREE ENERGY PREDICTED BY IDOCK:    2.90 KCAL/MOL
REMARK 922        TOTAL FREE ENERGY PREDICTED BY IDOCK:    2.56 KCAL/MOL
REMARK 923 INTER-LIGAND FREE ENERGY PREDICTED BY IDOCK:    3.11 KCAL/MOL
REMARK 924 INTRA-LIGAND FREE ENERGY PREDICTED BY IDOCK:   -0.55 KCAL/MOL
REMARK 927      BINDING AFFINITY PREDICTED BY RF-SCORE:    0.00 PKD
ROOT
HETATM    1  C   UNL     1      -9.050  12.649  64.459  1.00  0.00     1.151 C  
HETATM    2  C   UNL     1      -9.437  14.103  64.201  1.00  0.00     3.301 C  
HETATM    3  C   UNL     1     -10.514  14.648  65.178  1.00  0.00    -0.440 C  
HETATM    4  C   UNL     1     -10.163  16.089  65.643  1.00  0.00    -0.412 C  
HETATM    5  C   UNL     1     -11.075  16.658  66.757  1.00  0.00     0.218 C  
HETATM    6  C   UNL     1      -9.645  10.423  64.761  1.00  0.00    -0.293 C  
HETATM    7  C   UNL     1     -11.438  15.657  67.861  1.00  0.00    -0.253 C  
HETATM    8  C   UNL     1     -10.234  11.815  64.913  1.00  0.00    -0.315 C  
HETATM    9  C   UNL     1     -11.860  14.319  67.276  1.00  0.00    -0.444 C  
HETATM   10  C   UNL     1     -10.656   9.292  64.764  1.00  0.00     3.127 C  
HETATM   11  O   UNL     1      -8.968  10.509  63.498  1.00  0.00    -0.187 OA 
HETATM   12  C   UNL     1     -10.687  13.786  66.445  1.00  0.00    -0.281 C  
HETATM   13  C   UNL     1      -8.594  11.817  63.292  1.00  0.00     0.787 C  
HETATM   14  C   UNL     1     -10.735  12.242  66.285  1.00  0.00    -0.293 C  
HETATM   15  O   UNL     1      -7.957  12.212  62.337  1.00  0.00     0.778 OA 
ENDROOT
BRANCH   5  16
HETATM   16  N   UNL     1     -10.457  17.820  67.370  1.00  0.00    -0.367 N  
HETATM   17  H   UNL     1     -11.002  18.678  67.457  1.00  0.00     0.000 HD 
HETATM   18  C   UNL     1      -9.178  17.807  67.831  1.00  0.00    -0.265 C  
HETATM   19  O   UNL     1      -8.454  16.825  67.876  1.00  0.00    -0.194 OA 
BRANCH  18  20
HETATM   20  O   UNL     1      -8.864  19.042  68.293  1.00  0.00    -0.309 OA 
BRANCH  20  21
HETATM   21  C   UNL     1      -7.550  19.489  67.936  1.00  0.00    -0.289 C  
HETATM   22  C   UNL     1      -7.688  20.501  66.811  1.00  0.00    -0.279 C  
ENDBRANCH  20  21
ENDBRANCH  18  20
ENDBRANCH   5  16
BRANCH  14  23
HETATM   23  C   UNL     1      -9.833  11.737  67.383  1.00  0.00    -0.189 C  
HETATM   24  C   UNL     1      -8.518  11.939  67.530  1.00  0.00    -0.161 C  
BRANCH  24  25
HETATM   25  C   UNL     1      -7.750  11.040  68.406  1.00  0.00    -0.119 A  
HETATM   26  C   UNL     1      -7.591   9.000  69.631  1.00  0.00    -0.077 A  
HETATM   27  C   UNL     1      -8.103   9.709  68.543  1.00  0.00    -0.104 A  
HETATM   28  C   UNL     1      -6.772   9.629  70.584  1.00  0.00    -0.116 A  
HETATM   29  N   UNL     1      -6.841  11.636  69.218  1.00  0.00    -0.113 NA 
HETATM   30  C   UNL     1      -6.389  10.932  70.275  1.00  0.00    -0.135 A  
BRANCH  28  31
HETATM   31  C   UNL     1      -6.466   9.027  71.893  1.00  0.00    -0.008 A  
HETATM   32  C   UNL     1      -7.394   8.159  72.504  1.00  0.00    -0.138 A  
HETATM   33  C   UNL     1      -7.198   7.697  73.800  1.00  0.00    -0.105 A  
HETATM   34  C   UNL     1      -6.088   8.078  74.535  1.00  0.00    -0.104 A  
HETATM   35  F   UNL     1      -8.117   6.896  74.353  1.00  0.00    -0.118 F  
HETATM   36  C   UNL     1      -5.143   8.916  73.952  1.00  0.00    -0.099 A  
HETATM   37  C   UNL     1      -5.326   9.377  72.643  1.00  0.00    -0.050 A  
ENDBRANCH  28  31
ENDBRANCH  24  25
ENDBRANCH  14  23
TORSDOF 6
ENDMDL
MODEL       69
REMARK 921   NORMALIZED FREE ENERGY PREDICTED BY IDOCK:    3.83 KCAL/MOL
REMARK 922        TOTAL FREE ENERGY PREDICTED BY IDOCK:    3.81 KCAL/MOL
REMARK 923 INTER-LIGAND FREE ENERGY PREDICTED BY IDOCK:    3.14 KCAL/MOL
REMARK 924 INTRA-LIGAND FREE ENERGY PREDICTED BY IDOCK:    0.67 KCAL/MOL
REMARK 927      BINDING AFFINITY PREDICTED BY RF-SCORE:    0.00 PKD
ROOT
HETATM    1  C   UNL     1     -12.011  15.775  69.995  1.00  0.00    -0.352 C  
HETATM    2  C   UNL     1     -11.345  17.144  69.881  1.00  0.00     0.927 C  
HETATM    3  C   UNL     1      -9.793  17.088  69.887  1.00  0.00     0.590 C  
HETATM    4  C   UNL     1      -9.199  18.054  68.824  1.00  0.00    -0.229 C  
HETATM    5  C   UNL     1      -7.668  17.945  68.623  1.00  0.00    -0.289 C  
HETATM    6  C   UNL     1     -12.267  13.737  71.083  1.00  0.00    -0.278 C  
HETATM    7  C   UNL     1      -7.124  16.511  68.619  1.00  0.00    -0.175 C  
HETATM    8  C   UNL     1     -11.234  14.836  70.899  1.00  0.00    -0.131 C  
HETATM    9  C   UNL     1      -7.702  15.697  69.764  1.00  0.00     0.003 C  
HETATM   10  C   UNL     1     -12.000  12.788  72.235  1.00  0.00     2.280 C  
HETATM   11  O   UNL     1     -13.476  14.482  71.294  1.00  0.00    -0.357 OA 
HETATM   12  C   UNL     1      -9.227  15.684  69.598  1.00  0.00    -0.189 C  
HETATM   13  C   UNL     1     -13.360  15.694  70.654  1.00  0.00     0.003 C  
HETATM   14  C   UNL     1      -9.884  14.466  70.304  1.00  0.00     1.206 C  
HETATM   15  O   UNL     1     -14.235  16.534  70.602  1.00  0.00     2.998 OA 
ENDROOT
BRANCH   5  16
HETATM   16  N   UNL     1      -7.275  18.595  67.386  1.00  0.00    -0.206 N  
HETATM   17  H   UNL     1      -7.588  19.550  67.210  1.00  0.00     0.000 HD 
HETATM   18  C   UNL     1      -6.504  17.976  66.451  1.00  0.00    -0.216 C  
HETATM   19  O   UNL     1      -5.985  16.878  66.578  1.00  0.00    -0.272 OA 
BRANCH  18  20
HETATM   20  O   UNL     1      -6.352  18.804  65.389  1.00  0.00    -0.252 OA 
BRANCH  20  21
HETATM   21  C   UNL     1      -5.792  20.083  65.713  1.00  0.00    -0.175 C  
HETATM   22  C   UNL     1      -6.239  21.075  64.652  1.00  0.00    -0.258 C  
ENDBRANCH  20  21
ENDBRANCH  18  20
ENDBRANCH   5  16
BRANCH  14  23
HETATM   23  C   UNL     1     -10.027  13.445  69.204  1.00  0.00     0.287 C  
HETATM   24  C   UNL     1     -10.268  12.133  69.320  1.00  0.00     0.286 C  
BRANCH  24  25
HETATM   25  C   UNL     1      -9.959  11.246  68.188  1.00  0.00    -0.181 A  
HETATM   26  C   UNL     1     -10.490   9.333  66.866  1.00  0.00    -0.284 A  
HETATM   27  C   UNL     1     -10.916  10.388  67.675  1.00  0.00    -0.374 A  
HETATM   28  C   UNL     1      -9.125   9.123  66.611  1.00  0.00    -0.182 A  
HETATM   29  N   UNL     1      -8.651  11.165  67.838  1.00  0.00    -0.131 NA 
HETATM   30  C   UNL     1      -8.269  10.118  67.079  1.00  0.00    -0.118 A  
BRANCH  28  31
HETATM   31  C   UNL     1      -8.605   7.870  66.036  1.00  0.00    -0.166 A  
HETATM   32  C   UNL     1      -8.659   6.676  66.783  1.00  0.00    -0.118 A  
HETATM   33  C   UNL     1      -8.044   5.516  66.327  1.00  0.00    -0.106 A  
HETATM   34  C   UNL     1      -7.356   5.497  65.126  1.00  0.00    -0.068 A  
HETATM   35  F   UNL     1      -8.096   4.410  67.081  1.00  0.00    -0.098 F  
HETATM   36  C   UNL     1      -7.303   6.654  64.355  1.00  0.00    -0.087 A  
HETATM   37  C   UNL     1      -7.930   7.823  64.801  1.00  0.00    -0.142 A  
ENDBRANCH  28  31
ENDBRANCH  24  25
ENDBRANCH  14  23
TORSDOF 6
ENDMDL
MODEL       70
REMARK 921   NORMALIZED FREE ENERGY PREDICTED BY IDOCK:    4.93 KCAL/MOL
REMARK 922        TOTAL FREE ENERGY PREDICTED BY IDOCK:    5.30 KCAL/MOL
REMARK 923 INTER-LIGAND FREE ENERGY PREDICTED BY IDOCK:    1.61 KCAL/MOL
REMARK 924 INTRA-LIGAND FREE ENERGY PREDICTED BY IDOCK:    3.68 KCAL/MOL
REMARK 927      BINDING AFFINITY PREDICTED BY RF-SCORE:    0.00 PKD
ROOT
HETATM    1  C   UNL     1      -9.384  12.650  67.153  1.00  0.00    -0.210 C  
HETATM    2  C   UNL     1      -9.795  14.045  67.618  1.00  0.00    -0.233 C  
HETATM    3  C   UNL     1     -11.223  14.107  68.227  1.00  0.00    -0.295 C  
HETATM    4  C   UNL     1     -11.243  14.994  69.504  1.00  0.00    -0.294 C  
HETATM    5  C   UNL     1     -12.576  14.979  70.290  1.00  0.00    -0.317 C  
HETATM    6  C   UNL     1      -9.801  10.728  65.915  1.00  0.00    -0.239 C  
HETATM    7  C   UNL     1     -13.232  13.597  70.411  1.00  0.00     0.292 C  
HETATM    8  C   UNL     1     -10.551  11.875  66.571  1.00  0.00    -0.278 C  
HETATM    9  C   UNL     1     -13.240  12.871  69.077  1.00  0.00     2.788 C  
HETATM   10  C   UNL     1     -10.600   9.931  64.902  1.00  0.00     0.967 C  
HETATM   11  O   UNL     1      -8.696  11.399  65.291  1.00  0.00    -0.036 OA 
HETATM   12  C   UNL     1     -11.784  12.726  68.620  1.00  0.00    -0.360 C  
HETATM   13  C   UNL     1      -8.417  12.541  66.006  1.00  0.00     0.631 C  
HETATM   14  C   UNL     1     -11.595  11.545  67.628  1.00  0.00    -0.320 C  
HETATM   15  O   UNL     1      -7.503  13.302  65.764  1.00  0.00     2.863 OA 
ENDROOT
BRANCH   5  16
HETATM   16  N   UNL     1     -12.380  15.518  71.624  1.00  0.00    -0.365 N  
HETATM   17  H   UNL     1     -12.878  15.090  72.405  1.00  0.00     0.000 HD 
HETATM   18  C   UNL     1     -11.559  16.574  71.870  1.00  0.00    -0.136 C  
HETATM   19  O   UNL     1     -10.836  17.113  71.046  1.00  0.00     0.579 OA 
BRANCH  18  20
HETATM   20  O   UNL     1     -11.624  16.884  73.188  1.00  0.00    -0.153 OA 
BRANCH  20  21
HETATM   21  C   UNL     1     -12.826  16.450  73.836  1.00  0.00    -0.299 C  
HETATM   22  C   UNL     1     -13.476  15.391  72.962  1.00  0.00    -0.604 C  
ENDBRANCH  20  21
ENDBRANCH  18  20
ENDBRANCH   5  16
BRANCH  14  23
HETATM   23  C   UNL     1     -11.148  10.403  68.506  1.00  0.00    -0.318 C  
HETATM   24  C   UNL     1     -11.114  10.355  69.844  1.00  0.00    -0.367 C  
BRANCH  24  25
HETATM   25  C   UNL     1     -10.271   9.344  70.501  1.00  0.00    -0.271 A  
HETATM   26  C   UNL     1      -8.181   8.213  70.689  1.00  0.00    -0.114 A  
HETATM   27  C   UNL     1      -8.895   9.367  70.364  1.00  0.00    -0.290 A  
HETATM   28  C   UNL     1      -8.842   7.046  71.108  1.00  0.00    -0.141 A  
HETATM   29  N   UNL     1     -10.927   8.289  71.047  1.00  0.00    -0.239 NA 
HETATM   30  C   UNL     1     -10.212   7.181  71.324  1.00  0.00    -0.190 A  
BRANCH  28  31
HETATM   31  C   UNL     1      -8.180   5.731  71.161  1.00  0.00    -0.122 A  
HETATM   32  C   UNL     1      -7.740   5.213  72.396  1.00  0.00    -0.097 A  
HETATM   33  C   UNL     1      -6.983   4.049  72.457  1.00  0.00    -0.051 A  
HETATM   34  C   UNL     1      -6.634   3.363  71.307  1.00  0.00    -0.026 A  
HETATM   35  F   UNL     1      -6.561   3.606  73.649  1.00  0.00    -0.028 F  
HETATM   36  C   UNL     1      -7.071   3.837  70.074  1.00  0.00    -0.041 A  
HETATM   37  C   UNL     1      -7.844   5.001  70.004  1.00  0.00    -0.070 A  
ENDBRANCH  28  31
ENDBRANCH  24  25
ENDBRANCH  14  23
TORSDOF 6
ENDMDL
MODEL       71
REMARK 921   NORMALIZED FREE ENERGY PREDICTED BY IDOCK:    4.96 KCAL/MOL
REMARK 922        TOTAL FREE ENERGY PREDICTED BY IDOCK:    5.35 KCAL/MOL
REMARK 923 INTER-LIGAND FREE ENERGY PREDICTED BY IDOCK:    5.00 KCAL/MOL
REMARK 924 INTRA-LIGAND FREE ENERGY PREDICTED BY IDOCK:    0.35 KCAL/MOL
REMARK 927      BINDING AFFINITY PREDICTED BY RF-SCORE:    0.00 PKD
ROOT
HETATM    1  C   UNL     1      -8.259   9.238  70.538  1.00  0.00    -0.219 C  
HETATM    2  C   UNL     1      -7.741   7.839  70.215  1.00  0.00    -0.089 C  
HETATM    3  C   UNL     1      -8.424   7.187  68.981  1.00  0.00    -0.129 C  
HETATM    4  C   UNL     1      -7.378   6.467  68.084  1.00  0.00    -0.089 C  
HETATM    5  C   UNL     1      -7.925   5.938  66.736  1.00  0.00    -0.102 C  
HETATM    6  C   UNL     1     -10.021  10.690  70.970  1.00  0.00     2.582 C  
HETATM    7  C   UNL     1      -8.894   6.888  66.022  1.00  0.00    -0.154 C  
HETATM    8  C   UNL     1      -9.745   9.374  70.263  1.00  0.00    -0.292 C  
HETATM    9  C   UNL     1      -9.928   7.448  66.983  1.00  0.00    -0.301 C  
HETATM   10  C   UNL     1     -11.484  10.982  71.241  1.00  0.00     0.753 C  
HETATM   11  O   UNL     1      -9.286  10.543  72.196  1.00  0.00     5.540 OA 
HETATM   12  C   UNL     1      -9.174   8.197  68.089  1.00  0.00    -0.136 C  
HETATM   13  C   UNL     1      -8.228   9.693  71.971  1.00  0.00     1.915 C  
HETATM   14  C   UNL     1     -10.058   9.272  68.779  1.00  0.00    -0.210 C  
HETATM   15  O   UNL     1      -7.387   9.403  72.797  1.00  0.00     0.208 OA 
ENDROOT
BRANCH   5  16
HETATM   16  N   UNL     1      -6.829   5.628  65.835  1.00  0.00    -0.056 N  
HETATM   17  H   UNL     1      -5.957   5.272  66.226  1.00  0.00     0.000 HD 
HETATM   18  C   UNL     1      -6.924   5.794  64.488  1.00  0.00    -0.052 C  
HETATM   19  O   UNL     1      -7.936   6.117  63.887  1.00  0.00    -0.113 OA 
BRANCH  18  20
HETATM   20  O   UNL     1      -5.734   5.478  63.922  1.00  0.00    -0.016 OA 
BRANCH  20  21
HETATM   21  C   UNL     1      -5.172   4.243  64.382  1.00  0.00    -0.012 C  
HETATM   22  C   UNL     1      -5.460   3.178  63.336  1.00  0.00    -0.009 C  
ENDBRANCH  20  21
ENDBRANCH  18  20
ENDBRANCH   5  16
BRANCH  14  23
HETATM   23  C   UNL     1      -9.708  10.547  68.052  1.00  0.00    -0.162 C  
HETATM   24  C   UNL     1      -8.601  11.290  68.174  1.00  0.00    -0.150 C  
BRANCH  24  25
HETATM   25  C   UNL     1      -8.623  12.686  67.712  1.00  0.00    -0.179 A  
HETATM   26  C   UNL     1      -7.869  14.938  67.927  1.00  0.00    -0.145 A  
HETATM   27  C   UNL     1      -7.626  13.572  68.078  1.00  0.00    -0.143 A  
HETATM   28  C   UNL     1      -9.107  15.404  67.453  1.00  0.00    -0.206 A  
HETATM   29  N   UNL     1      -9.768  13.093  67.109  1.00  0.00    -0.229 NA 
HETATM   30  C   UNL     1      -9.984  14.420  67.004  1.00  0.00    -0.257 A  
BRANCH  28  31
HETATM   31  C   UNL     1      -9.525  16.813  67.567  1.00  0.00    -0.237 A  
HETATM   32  C   UNL     1     -10.253  17.419  66.524  1.00  0.00    -0.329 A  
HETATM   33  C   UNL     1     -10.530  18.780  66.539  1.00  0.00    -0.427 A  
HETATM   34  C   UNL     1     -10.094  19.587  67.577  1.00  0.00    -0.524 A  
HETATM   35  F   UNL     1     -11.202  19.322  65.515  1.00  0.00    -0.338 F  
HETATM   36  C   UNL     1      -9.391  19.015  68.632  1.00  0.00    -0.428 A  
HETATM   37  C   UNL     1      -9.119  17.642  68.631  1.00  0.00    -0.261 A  
ENDBRANCH  28  31
ENDBRANCH  24  25
ENDBRANCH  14  23
TORSDOF 6
ENDMDL
MODEL       72
REMARK 921   NORMALIZED FREE ENERGY PREDICTED BY IDOCK:    5.42 KCAL/MOL
REMARK 922        TOTAL FREE ENERGY PREDICTED BY IDOCK:    5.96 KCAL/MOL
REMARK 923 INTER-LIGAND FREE ENERGY PREDICTED BY IDOCK:    6.81 KCAL/MOL
REMARK 924 INTRA-LIGAND FREE ENERGY PREDICTED BY IDOCK:   -0.85 KCAL/MOL
REMARK 927      BINDING AFFINITY PREDICTED BY RF-SCORE:    0.00 PKD
ROOT
HETATM    1  C   UNL     1     -11.674  11.401  70.696  1.00  0.00    -0.199 C  
HETATM    2  C   UNL     1     -11.641   9.905  70.394  1.00  0.00    -0.356 C  
HETATM    3  C   UNL     1     -11.744   9.569  68.881  1.00  0.00     0.620 C  
HETATM    4  C   UNL     1     -10.748   8.439  68.495  1.00  0.00    -0.069 C  
HETATM    5  C   UNL     1     -10.643   8.150  66.978  1.00  0.00    -0.275 C  
HETATM    6  C   UNL     1     -12.685  13.483  70.484  1.00  0.00    -0.157 C  
HETATM    7  C   UNL     1     -10.632   9.400  66.089  1.00  0.00     0.152 C  
HETATM    8  C   UNL     1     -12.598  12.153  69.756  1.00  0.00     0.219 C  
HETATM    9  C   UNL     1     -11.714  10.382  66.503  1.00  0.00     1.686 C  
HETATM   10  C   UNL     1     -13.824  14.384  70.048  1.00  0.00     1.875 C  
HETATM   11  O   UNL     1     -12.840  13.077  71.853  1.00  0.00    -0.284 OA 
HETATM   12  C   UNL     1     -11.452  10.771  67.963  1.00  0.00    -0.333 C  
HETATM   13  C   UNL     1     -12.244  11.848  72.014  1.00  0.00     1.161 C  
HETATM   14  C   UNL     1     -12.080  12.145  68.326  1.00  0.00    -0.071 C  
HETATM   15  O   UNL     1     -12.160  11.253  73.069  1.00  0.00     3.718 OA 
ENDROOT
BRANCH   5  16
HETATM   16  N   UNL     1      -9.451   7.369  66.696  1.00  0.00    -0.181 N  
HETATM   17  H   UNL     1      -9.515   6.599  66.031  1.00  0.00     0.000 HD 
HETATM   18  C   UNL     1      -8.254   7.628  67.287  1.00  0.00    -0.119 C  
HETATM   19  O   UNL     1      -8.019   8.573  68.023  1.00  0.00    -0.109 OA 
BRANCH  18  20
HETATM   20  O   UNL     1      -7.351   6.705  66.873  1.00  0.00    -0.078 OA 
BRANCH  20  21
HETATM   21  C   UNL     1      -6.787   6.970  65.583  1.00  0.00    -0.052 C  
HETATM   22  C   UNL     1      -5.317   7.302  65.772  1.00  0.00    -0.028 C  
ENDBRANCH  20  21
ENDBRANCH  18  20
ENDBRANCH   5  16
BRANCH  14  23
HETATM   23  C   UNL     1     -10.944  13.120  68.145  1.00  0.00    -0.275 C  
HETATM   24  C   UNL     1      -9.708  12.874  67.694  1.00  0.00    -0.212 C  
BRANCH  24  25
HETATM   25  C   UNL     1      -8.636  13.840  67.981  1.00  0.00    -0.177 A  
HETATM   26  C   UNL     1      -7.039  14.754  69.498  1.00  0.00    -0.172 A  
HETATM   27  C   UNL     1      -7.784  13.660  69.055  1.00  0.00     0.087 A  
HETATM   28  C   UNL     1      -7.178  16.015  68.895  1.00  0.00    -0.168 A  
HETATM   29  N   UNL     1      -8.680  15.001  67.279  1.00  0.00    -0.190 NA 
HETATM   30  C   UNL     1      -7.970  16.046  67.750  1.00  0.00    -0.139 A  
BRANCH  28  31
HETATM   31  C   UNL     1      -6.663  17.252  69.508  1.00  0.00    -0.130 A  
HETATM   32  C   UNL     1      -6.121  17.221  70.809  1.00  0.00     0.785 A  
HETATM   33  C   UNL     1      -5.767  18.393  71.466  1.00  0.00     0.396 A  
HETATM   34  C   UNL     1      -5.940  19.629  70.866  1.00  0.00    -0.200 A  
HETATM   35  F   UNL     1      -5.281  18.322  72.712  1.00  0.00     0.754 F  
HETATM   36  C   UNL     1      -6.453  19.692  69.574  1.00  0.00    -0.374 A  
HETATM   37  C   UNL     1      -6.801  18.515  68.900  1.00  0.00    -0.296 A  
ENDBRANCH  28  31
ENDBRANCH  24  25
ENDBRANCH  14  23
TORSDOF 6
ENDMDL
MODEL       73
REMARK 921   NORMALIZED FREE ENERGY PREDICTED BY IDOCK:    6.87 KCAL/MOL
REMARK 922        TOTAL FREE ENERGY PREDICTED BY IDOCK:    7.93 KCAL/MOL
REMARK 923 INTER-LIGAND FREE ENERGY PREDICTED BY IDOCK:    6.04 KCAL/MOL
REMARK 924 INTRA-LIGAND FREE ENERGY PREDICTED BY IDOCK:    1.88 KCAL/MOL
REMARK 927      BINDING AFFINITY PREDICTED BY RF-SCORE:    0.00 PKD
ROOT
HETATM    1  C   UNL     1      -9.681  14.826  66.346  1.00  0.00    -0.311 C  
HETATM    2  C   UNL     1     -10.455  15.900  67.106  1.00  0.00    -0.313 C  
HETATM    3  C   UNL     1     -11.728  15.368  67.819  1.00  0.00    -0.159 C  
HETATM    4  C   UNL     1     -11.861  15.976  69.244  1.00  0.00    -0.264 C  
HETATM    5  C   UNL     1     -12.997  15.377  70.108  1.00  0.00    -0.066 C  
HETATM    6  C   UNL     1      -9.617  13.104  64.787  1.00  0.00     0.329 C  
HETATM    7  C   UNL     1     -13.146  13.854  70.002  1.00  0.00     0.448 C  
HETATM    8  C   UNL     1     -10.601  13.801  65.710  1.00  0.00    -0.294 C  
HETATM    9  C   UNL     1     -13.100  13.394  68.555  1.00  0.00     2.562 C  
HETATM   10  C   UNL     1     -10.244  12.255  63.698  1.00  0.00    -0.430 C  
HETATM   11  O   UNL     1      -8.884  14.205  64.227  1.00  0.00     3.576 OA 
HETATM   12  C   UNL     1     -11.752  13.834  67.972  1.00  0.00    -0.390 C  
HETATM   13  C   UNL     1      -8.896  15.242  65.132  1.00  0.00     2.274 C  
HETATM   14  C   UNL     1     -11.327  12.967  66.755  1.00  0.00    -0.367 C  
HETATM   15  O   UNL     1      -8.321  16.300  64.978  1.00  0.00     1.938 OA 
ENDROOT
BRANCH   5  16
HETATM   16  N   UNL     1     -12.807  15.729  71.504  1.00  0.00    -0.471 N  
HETATM   17  H   UNL     1     -13.620  15.750  72.120  1.00  0.00     0.000 HD 
HETATM   18  C   UNL     1     -11.586  16.031  72.020  1.00  0.00    -0.414 C  
HETATM   19  O   UNL     1     -10.526  15.950  71.419  1.00  0.00     0.507 OA 
BRANCH  18  20
HETATM   20  O   UNL     1     -11.732  16.371  73.323  1.00  0.00    -0.356 OA 
BRANCH  20  21
HETATM   21  C   UNL     1     -11.798  15.255  74.220  1.00  0.00    -0.033 C  
HETATM   22  C   UNL     1     -12.496  14.114  73.498  1.00  0.00     0.340 C  
ENDBRANCH  20  21
ENDBRANCH  18  20
ENDBRANCH   5  16
BRANCH  14  23
HETATM   23  C   UNL     1     -10.419  11.923  67.355  1.00  0.00    -0.242 C  
HETATM   24  C   UNL     1      -9.295  11.409  66.838  1.00  0.00    -0.191 C  
BRANCH  24  25
HETATM   25  C   UNL     1      -8.789  10.130  67.359  1.00  0.00    -0.131 A  
HETATM   26  C   UNL     1      -7.982   7.921  66.964  1.00  0.00    -0.112 A  
HETATM   27  C   UNL     1      -8.119   9.243  66.536  1.00  0.00    -0.104 A  
HETATM   28  C   UNL     1      -8.542   7.493  68.179  1.00  0.00    -0.123 A  
HETATM   29  N   UNL     1      -9.207   9.789  68.604  1.00  0.00    -0.134 NA 
HETATM   30  C   UNL     1      -9.086   8.498  68.974  1.00  0.00    -0.146 A  
BRANCH  28  31
HETATM   31  C   UNL     1      -8.698   6.069  68.526  1.00  0.00    -0.110 A  
HETATM   32  C   UNL     1      -7.905   5.096  67.885  1.00  0.00    -0.091 A  
HETATM   33  C   UNL     1      -8.133   3.740  68.082  1.00  0.00    -0.083 A  
HETATM   34  C   UNL     1      -9.151   3.300  68.912  1.00  0.00    -0.207 A  
HETATM   35  F   UNL     1      -7.374   2.848  67.433  1.00  0.00    -0.055 F  
HETATM   36  C   UNL     1      -9.938   4.236  69.576  1.00  0.00    -0.127 A  
HETATM   37  C   UNL     1      -9.707   5.604  69.392  1.00  0.00    -0.208 A  
ENDBRANCH  28  31
ENDBRANCH  24  25
ENDBRANCH  14  23
TORSDOF 6
ENDMDL
MODEL       74
REMARK 921   NORMALIZED FREE ENERGY PREDICTED BY IDOCK:    7.08 KCAL/MOL
REMARK 922        TOTAL FREE ENERGY PREDICTED BY IDOCK:    8.21 KCAL/MOL
REMARK 923 INTER-LIGAND FREE ENERGY PREDICTED BY IDOCK:    6.93 KCAL/MOL
REMARK 924 INTRA-LIGAND FREE ENERGY PREDICTED BY IDOCK:    1.28 KCAL/MOL
REMARK 927      BINDING AFFINITY PREDICTED BY RF-SCORE:    0.00 PKD
ROOT
HETATM    1  C   UNL     1     -11.734  14.190  64.393  1.00  0.00    -0.409 C  
HETATM    2  C   UNL     1     -11.517  15.697  64.507  1.00  0.00    -0.304 C  
HETATM    3  C   UNL     1     -11.056  16.158  65.917  1.00  0.00     0.043 C  
HETATM    4  C   UNL     1      -9.930  17.226  65.810  1.00  0.00    -0.105 C  
HETATM    5  C   UNL     1      -9.274  17.622  67.155  1.00  0.00    -0.245 C  
HETATM    6  C   UNL     1     -12.710  12.225  65.159  1.00  0.00     0.216 C  
HETATM    7  C   UNL     1      -9.012  16.449  68.108  1.00  0.00    -0.197 C  
HETATM    8  C   UNL     1     -12.299  13.596  65.669  1.00  0.00    -0.518 C  
HETATM    9  C   UNL     1     -10.220  15.534  68.204  1.00  0.00    -0.227 C  
HETATM   10  C   UNL     1     -13.664  11.462  66.058  1.00  0.00    10.955 C  
HETATM   11  O   UNL     1     -13.323  12.535  63.898  1.00  0.00    -0.440 OA 
HETATM   12  C   UNL     1     -10.517  15.010  66.793  1.00  0.00    -0.283 C  
HETATM   13  C   UNL     1     -12.760  13.693  63.412  1.00  0.00     0.450 C  
HETATM   14  C   UNL     1     -11.305  13.671  66.818  1.00  0.00    -0.346 C  
HETATM   15  O   UNL     1     -13.027  14.193  62.339  1.00  0.00     1.117 OA 
ENDROOT
BRANCH   5  16
HETATM   16  N   UNL     1      -8.021  18.317  66.918  1.00  0.00    -0.229 N  
HETATM   17  H   UNL     1      -7.947  19.299  67.184  1.00  0.00     0.000 HD 
HETATM   18  C   UNL     1      -6.944  17.707  66.355  1.00  0.00    -0.265 C  
HETATM   19  O   UNL     1      -6.868  16.519  66.082  1.00  0.00    -0.035 OA 
BRANCH  18  20
HETATM   20  O   UNL     1      -5.950  18.617  66.211  1.00  0.00    -0.149 OA 
BRANCH  20  21
HETATM   21  C   UNL     1      -6.111  19.493  65.089  1.00  0.00    -0.252 C  
HETATM   22  C   UNL     1      -7.410  20.260  65.274  1.00  0.00    -0.067 C  
ENDBRANCH  20  21
ENDBRANCH  18  20
ENDBRANCH   5  16
BRANCH  14  23
HETATM   23  C   UNL     1     -10.232  12.619  66.688  1.00  0.00    -0.246 C  
HETATM   24  C   UNL     1     -10.376  11.328  66.365  1.00  0.00    -0.291 C  
BRANCH  24  25
HETATM   25  C   UNL     1      -9.296  10.384  66.695  1.00  0.00    -0.158 A  
HETATM   26  C   UNL     1      -8.329   8.213  66.502  1.00  0.00    -0.113 A  
HETATM   27  C   UNL     1      -9.105   9.235  65.951  1.00  0.00    -0.246 A  
HETATM   28  C   UNL     1      -7.789   8.332  67.793  1.00  0.00    -0.114 A  
HETATM   29  N   UNL     1      -8.665  10.595  67.877  1.00  0.00    -0.126 NA 
HETATM   30  C   UNL     1      -7.947   9.578  68.394  1.00  0.00    -0.093 A  
BRANCH  28  31
HETATM   31  C   UNL     1      -7.238   7.184  68.534  1.00  0.00    -0.094 A  
HETATM   32  C   UNL     1      -7.484   5.871  68.086  1.00  0.00    -0.081 A  
HETATM   33  C   UNL     1      -7.105   4.771  68.845  1.00  0.00    -0.053 A  
HETATM   34  C   UNL     1      -6.476   4.929  70.068  1.00  0.00    -0.035 A  
HETATM   35  F   UNL     1      -7.382   3.540  68.395  1.00  0.00    -0.050 F  
HETATM   36  C   UNL     1      -6.199   6.212  70.529  1.00  0.00    -0.035 A  
HETATM   37  C   UNL     1      -6.567   7.326  69.765  1.00  0.00    -0.040 A  
ENDBRANCH  28  31
ENDBRANCH  24  25
ENDBRANCH  14  23
TORSDOF 6
ENDMDL
MODEL       75
REMARK 921   NORMALIZED FREE ENERGY PREDICTED BY IDOCK:   10.65 KCAL/MOL
REMARK 922        TOTAL FREE ENERGY PREDICTED BY IDOCK:   13.04 KCAL/MOL
REMARK 923 INTER-LIGAND FREE ENERGY PREDICTED BY IDOCK:   13.77 KCAL/MOL
REMARK 924 INTRA-LIGAND FREE ENERGY PREDICTED BY IDOCK:   -0.74 KCAL/MOL
REMARK 927      BINDING AFFINITY PREDICTED BY RF-SCORE:    0.00 PKD
ROOT
HETATM    1  C   UNL     1     -11.864   5.340  72.506  1.00  0.00    -0.047 C  
HETATM    2  C   UNL     1     -11.898   6.819  72.883  1.00  0.00     0.187 C  
HETATM    3  C   UNL     1     -10.534   7.369  73.383  1.00  0.00    -0.419 C  
HETATM    4  C   UNL     1     -10.248   8.773  72.780  1.00  0.00     0.209 C  
HETATM    5  C   UNL     1      -8.835   9.335  73.071  1.00  0.00     2.072 C  
HETATM    6  C   UNL     1     -11.370   3.131  73.033  1.00  0.00     0.168 C  
HETATM    7  C   UNL     1      -7.703   8.305  72.966  1.00  0.00    -0.180 C  
HETATM    8  C   UNL     1     -10.948   4.541  73.412  1.00  0.00    -0.382 C  
HETATM    9  C   UNL     1      -8.063   7.013  73.678  1.00  0.00    -0.127 C  
HETATM   10  C   UNL     1     -10.940   2.046  74.001  1.00  0.00    -0.248 C  
HETATM   11  O   UNL     1     -12.801   3.241  72.980  1.00  0.00     0.908 OA 
HETATM   12  C   UNL     1      -9.339   6.464  73.026  1.00  0.00    -0.141 C  
HETATM   13  C   UNL     1     -13.128   4.539  72.661  1.00  0.00     2.095 C  
HETATM   14  C   UNL     1      -9.489   4.931  73.229  1.00  0.00    -0.134 C  
HETATM   15  O   UNL     1     -14.259   4.944  72.491  1.00  0.00     1.305 OA 
ENDROOT
BRANCH   5  16
HETATM   16  N   UNL     1      -8.540  10.442  72.180  1.00  0.00     5.641 N  
HETATM   17  H   UNL     1      -8.140  11.296  72.572  1.00  0.00     0.000 HD 
HETATM   18  C   UNL     1      -8.777  10.384  70.842  1.00  0.00     2.302 C  
HETATM   19  O   UNL     1      -9.159   9.396  70.235  1.00  0.00    -0.208 OA 
BRANCH  18  20
HETATM   20  O   UNL     1      -8.456  11.579  70.287  1.00  0.00     1.962 OA 
BRANCH  20  21
HETATM   21  C   UNL     1      -8.373  11.561  68.856  1.00  0.00    -0.001 C  
HETATM   22  C   UNL     1      -7.149  12.364  68.447  1.00  0.00    -0.106 C  
ENDBRANCH  20  21
ENDBRANCH  18  20
ENDBRANCH   5  16
BRANCH  14  23
HETATM   23  C   UNL     1      -8.914   4.342  71.966  1.00  0.00    -0.145 C  
HETATM   24  C   UNL     1      -9.017   4.809  70.715  1.00  0.00    -0.163 C  
BRANCH  24  25
HETATM   25  C   UNL     1      -8.760   3.899  69.589  1.00  0.00    -0.077 A  
HETATM   26  C   UNL     1      -7.266   3.022  67.950  1.00  0.00    -0.050 A  
HETATM   27  C   UNL     1      -7.468   3.579  69.214  1.00  0.00    -0.052 A  
HETATM   28  C   UNL     1      -8.341   2.826  67.066  1.00  0.00    -0.095 A  
HETATM   29  N   UNL     1      -9.835   3.583  68.824  1.00  0.00     0.067 NA 
HETATM   30  C   UNL     1      -9.604   3.072  67.598  1.00  0.00    -0.027 A  
BRANCH  28  31
HETATM   31  C   UNL     1      -8.152   2.541  65.633  1.00  0.00    -0.084 A  
HETATM   32  C   UNL     1      -9.214   2.741  64.728  1.00  0.00    -0.143 A  
HETATM   33  C   UNL     1      -9.111   2.340  63.402  1.00  0.00    -0.092 A  
HETATM   34  C   UNL     1      -7.964   1.728  62.927  1.00  0.00    -0.056 A  
HETATM   35  F   UNL     1     -10.154   2.524  62.581  1.00  0.00    -0.094 F  
HETATM   36  C   UNL     1      -6.889   1.537  63.789  1.00  0.00    -0.030 A  
HETATM   37  C   UNL     1      -6.980   1.948  65.124  1.00  0.00    -0.043 A  
ENDBRANCH  28  31
ENDBRANCH  24  25
ENDBRANCH  14  23
TORSDOF 6
ENDMDL
MODEL       76
REMARK 921   NORMALIZED FREE ENERGY PREDICTED BY IDOCK:   11.14 KCAL/MOL
REMARK 922        TOTAL FREE ENERGY PREDICTED BY IDOCK:   13.69 KCAL/MOL
REMARK 923 INTER-LIGAND FREE ENERGY PREDICTED BY IDOCK:   13.19 KCAL/MOL
REMARK 924 INTRA-LIGAND FREE ENERGY PREDICTED BY IDOCK:    0.50 KCAL/MOL
REMARK 927      BINDING AFFINITY PREDICTED BY RF-SCORE:    0.00 PKD
ROOT
HETATM    1  C   UNL     1     -12.708  14.013  65.417  1.00  0.00    -0.499 C  
HETATM    2  C   UNL     1     -13.223  14.712  66.672  1.00  0.00     2.227 C  
HETATM    3  C   UNL     1     -13.280  13.792  67.922  1.00  0.00     3.460 C  
HETATM    4  C   UNL     1     -12.763  14.538  69.184  1.00  0.00     0.375 C  
HETATM    5  C   UNL     1     -12.610  13.657  70.448  1.00  0.00    -0.227 C  
HETATM    6  C   UNL     1     -12.804  12.257  63.898  1.00  0.00    -0.298 C  
HETATM    7  C   UNL     1     -12.018  12.266  70.190  1.00  0.00    -0.377 C  
HETATM    8  C   UNL     1     -13.159  12.567  65.342  1.00  0.00     0.911 C  
HETATM    9  C   UNL     1     -12.674  11.599  68.993  1.00  0.00     0.907 C  
HETATM   10  C   UNL     1     -13.450  11.009  63.328  1.00  0.00     2.889 C  
HETATM   11  O   UNL     1     -13.256  13.434  63.209  1.00  0.00     0.380 OA 
HETATM   12  C   UNL     1     -12.445  12.504  67.776  1.00  0.00     0.829 C  
HETATM   13  C   UNL     1     -13.203  14.497  64.081  1.00  0.00     1.540 C  
HETATM   14  C   UNL     1     -12.529  11.720  66.438  1.00  0.00     1.774 C  
HETATM   15  O   UNL     1     -13.473  15.644  63.789  1.00  0.00     0.473 OA 
ENDROOT
BRANCH   5  16
HETATM   16  N   UNL     1     -11.790  14.334  71.437  1.00  0.00    -0.449 N  
HETATM   17  H   UNL     1     -10.959  14.838  71.125  1.00  0.00     0.000 HD 
HETATM   18  C   UNL     1     -12.088  14.320  72.764  1.00  0.00     0.216 C  
HETATM   19  O   UNL     1     -13.097  13.840  73.256  1.00  0.00    -0.450 OA 
BRANCH  18  20
HETATM   20  O   UNL     1     -11.118  14.984  73.439  1.00  0.00     0.425 OA 
BRANCH  20  21
HETATM   21  C   UNL     1     -11.608  15.928  74.399  1.00  0.00     0.908 C  
HETATM   22  C   UNL     1     -12.751  16.698  73.759  1.00  0.00    -0.171 C  
ENDBRANCH  20  21
ENDBRANCH  18  20
ENDBRANCH   5  16
BRANCH  14  23
HETATM   23  C   UNL     1     -11.092  11.390  66.122  1.00  0.00    -0.259 C  
HETATM   24  C   UNL     1     -10.537  11.180  64.922  1.00  0.00    -0.356 C  
BRANCH  24  25
HETATM   25  C   UNL     1      -9.250  10.470  64.844  1.00  0.00    -0.215 A  
HETATM   26  C   UNL     1      -7.711   9.126  63.615  1.00  0.00    -0.118 A  
HETATM   27  C   UNL     1      -8.720  10.091  63.624  1.00  0.00    -0.227 A  
HETATM   28  C   UNL     1      -7.272   8.528  64.807  1.00  0.00    -0.085 A  
HETATM   29  N   UNL     1      -8.745  10.027  66.023  1.00  0.00    -0.135 NA 
HETATM   30  C   UNL     1      -7.791   9.076  65.978  1.00  0.00    -0.102 A  
BRANCH  28  31
HETATM   31  C   UNL     1      -6.450   7.305  64.829  1.00  0.00    -0.037 A  
HETATM   32  C   UNL     1      -6.203   6.600  63.634  1.00  0.00    -0.038 A  
HETATM   33  C   UNL     1      -5.560   5.368  63.647  1.00  0.00    -0.014 A  
HETATM   34  C   UNL     1      -5.145   4.791  64.835  1.00  0.00    -0.012 A  
HETATM   35  F   UNL     1      -5.369   4.719  62.491  1.00  0.00    -0.009 F  
HETATM   36  C   UNL     1      -5.355   5.472  66.030  1.00  0.00    -0.013 A  
HETATM   37  C   UNL     1      -5.991   6.719  66.025  1.00  0.00    -0.034 A  
ENDBRANCH  28  31
ENDBRANCH  24  25
ENDBRANCH  14  23
TORSDOF 6
ENDMDL
MODEL       77
REMARK 921   NORMALIZED FREE ENERGY PREDICTED BY IDOCK:   15.07 KCAL/MOL
REMARK 922        TOTAL FREE ENERGY PREDICTED BY IDOCK:   19.00 KCAL/MOL
REMARK 923 INTER-LIGAND FREE ENERGY PREDICTED BY IDOCK:   17.89 KCAL/MOL
REMARK 924 INTRA-LIGAND FREE ENERGY PREDICTED BY IDOCK:    1.11 KCAL/MOL
REMARK 927      BINDING AFFINITY PREDICTED BY RF-SCORE:    0.00 PKD
ROOT
HETATM    1  C   UNL     1     -10.046  18.318  65.972  1.00  0.00    -0.278 C  
HETATM    2  C   UNL     1     -10.034  19.534  66.894  1.00  0.00    -0.495 C  
HETATM    3  C   UNL     1     -10.480  19.223  68.349  1.00  0.00    -0.331 C  
HETATM    4  C   UNL     1      -9.565  19.947  69.376  1.00  0.00    -0.016 C  
HETATM    5  C   UNL     1      -9.810  19.562  70.855  1.00  0.00     1.931 C  
HETATM    6  C   UNL     1     -11.150  16.490  65.053  1.00  0.00    -0.166 C  
HETATM    7  C   UNL     1     -10.053  18.067  71.096  1.00  0.00     3.772 C  
HETATM    8  C   UNL     1     -11.191  17.374  66.288  1.00  0.00     0.750 C  
HETATM    9  C   UNL     1     -11.040  17.499  70.091  1.00  0.00     1.372 C  
HETATM   10  C   UNL     1     -12.390  15.650  64.818  1.00  0.00     0.338 C  
HETATM   11  O   UNL     1     -10.964  17.445  63.996  1.00  0.00     0.411 OA 
HETATM   12  C   UNL     1     -10.454  17.720  68.691  1.00  0.00    -0.295 C  
HETATM   13  C   UNL     1     -10.304  18.539  64.507  1.00  0.00     4.366 C  
HETATM   14  C   UNL     1     -11.026  16.718  67.650  1.00  0.00    -0.178 C  
HETATM   15  O   UNL     1      -9.953  19.501  63.855  1.00  0.00     6.159 OA 
ENDROOT
BRANCH   5  16
HETATM   16  N   UNL     1      -8.693  19.990  71.679  1.00  0.00     1.976 N  
HETATM   17  H   UNL     1      -8.816  20.033  72.691  1.00  0.00     0.000 HD 
HETATM   18  C   UNL     1      -7.488  20.334  71.150  1.00  0.00     1.339 C  
HETATM   19  O   UNL     1      -7.179  20.233  69.973  1.00  0.00     0.019 OA 
BRANCH  18  20
HETATM   20  O   UNL     1      -6.669  20.740  72.151  1.00  0.00     0.085 OA 
BRANCH  20  21
HETATM   21  C   UNL     1      -5.285  20.432  71.943  1.00  0.00    -0.304 C  
HETATM   22  C   UNL     1      -5.181  18.958  71.585  1.00  0.00    -0.285 C  
ENDBRANCH  20  21
ENDBRANCH  18  20
ENDBRANCH   5  16
BRANCH  14  23
HETATM   23  C   UNL     1      -9.999  15.614  67.610  1.00  0.00    -0.237 C  
HETATM   24  C   UNL     1      -9.996  14.516  66.844  1.00  0.00    -0.259 C  
BRANCH  24  25
HETATM   25  C   UNL     1      -9.155  13.374  67.236  1.00  0.00    -0.222 A  
HETATM   26  C   UNL     1      -8.944  11.057  67.759  1.00  0.00    -0.140 A  
HETATM   27  C   UNL     1      -9.594  12.074  67.059  1.00  0.00    -0.200 A  
HETATM   28  C   UNL     1      -7.897  11.347  68.650  1.00  0.00    -0.139 A  
HETATM   29  N   UNL     1      -8.052  13.672  67.967  1.00  0.00    -0.148 NA 
HETATM   30  C   UNL     1      -7.464  12.671  68.653  1.00  0.00    -0.094 A  
BRANCH  28  31
HETATM   31  C   UNL     1      -7.393  10.371  69.632  1.00  0.00    -0.156 A  
HETATM   32  C   UNL     1      -8.294   9.529  70.315  1.00  0.00    -0.221 A  
HETATM   33  C   UNL     1      -7.864   8.708  71.350  1.00  0.00    -0.129 A  
HETATM   34  C   UNL     1      -6.537   8.693  71.747  1.00  0.00    -0.076 A  
HETATM   35  F   UNL     1      -8.757   7.943  71.991  1.00  0.00    -0.125 F  
HETATM   36  C   UNL     1      -5.619   9.497  71.078  1.00  0.00    -0.060 A  
HETATM   37  C   UNL     1      -6.042  10.319  70.026  1.00  0.00    -0.071 A  
ENDBRANCH  28  31
ENDBRANCH  24  25
ENDBRANCH  14  23
TORSDOF 6
ENDMDL
MODEL       78
REMARK 921   NORMALIZED FREE ENERGY PREDICTED BY IDOCK:   16.92 KCAL/MOL
REMARK 922        TOTAL FREE ENERGY PREDICTED BY IDOCK:   21.50 KCAL/MOL
REMARK 923 INTER-LIGAND FREE ENERGY PREDICTED BY IDOCK:   20.58 KCAL/MOL
REMARK 924 INTRA-LIGAND FREE ENERGY PREDICTED BY IDOCK:    0.92 KCAL/MOL
REMARK 927      BINDING AFFINITY PREDICTED BY RF-SCORE:    0.00 PKD
ROOT
HETATM    1  C   UNL     1     -12.134  16.343  71.855  1.00  0.00    -0.307 C  
HETATM    2  C   UNL     1     -11.782  17.743  71.356  1.00  0.00     4.041 C  
HETATM    3  C   UNL     1     -10.364  17.847  70.731  1.00  0.00     2.290 C  
HETATM    4  C   UNL     1     -10.391  18.707  69.436  1.00  0.00     0.343 C  
HETATM    5  C   UNL     1      -9.065  18.727  68.637  1.00  0.00    -0.330 C  
HETATM    6  C   UNL     1     -11.629  14.467  73.129  1.00  0.00     0.835 C  
HETATM    7  C   UNL     1      -8.357  17.370  68.538  1.00  0.00    -0.271 C  
HETATM    8  C   UNL     1     -10.931  15.628  72.441  1.00  0.00     0.466 C  
HETATM    9  C   UNL     1      -8.307  16.673  69.887  1.00  0.00     1.183 C  
HETATM   10  C   UNL     1     -10.790  13.724  74.151  1.00  0.00     6.780 C  
HETATM   11  O   UNL     1     -12.754  15.106  73.751  1.00  0.00    -0.531 OA 
HETATM   12  C   UNL     1      -9.753  16.481  70.362  1.00  0.00     1.480 C  
HETATM   13  C   UNL     1     -13.085  16.221  73.014  1.00  0.00    -0.240 C  
HETATM   14  C   UNL     1      -9.886  15.316  71.381  1.00  0.00     2.030 C  
HETATM   15  O   UNL     1     -14.025  16.951  73.249  1.00  0.00     0.609 OA 
ENDROOT
BRANCH   5  16
HETATM   16  N   UNL     1      -9.295  19.230  67.294  1.00  0.00    -0.301 N  
HETATM   17  H   UNL     1      -8.520  19.666  66.793  1.00  0.00     0.000 HD 
HETATM   18  C   UNL     1     -10.505  19.140  66.679  1.00  0.00    -0.443 C  
HETATM   19  O   UNL     1     -11.482  18.559  67.125  1.00  0.00     0.414 OA 
BRANCH  18  20
HETATM   20  O   UNL     1     -10.427  19.741  65.466  1.00  0.00    -0.425 OA 
BRANCH  20  21
HETATM   21  C   UNL     1      -9.399  20.735  65.366  1.00  0.00     1.141 C  
HETATM   22  C   UNL     1      -8.246  20.139  64.576  1.00  0.00     2.396 C  
ENDBRANCH  20  21
ENDBRANCH  18  20
ENDBRANCH   5  16
BRANCH  14  23
HETATM   23  C   UNL     1     -10.295  14.139  70.532  1.00  0.00     1.488 C  
HETATM   24  C   UNL     1     -11.498  13.557  70.451  1.00  0.00     0.067 C  
BRANCH  24  25
HETATM   25  C   UNL     1     -11.598  12.194  69.906  1.00  0.00    -0.221 A  
HETATM   26  C   UNL     1     -12.119   9.887  70.211  1.00  0.00    -0.168 A  
HETATM   27  C   UNL     1     -12.342  11.223  70.551  1.00  0.00    -0.446 A  
HETATM   28  C   UNL     1     -11.139   9.534  69.269  1.00  0.00    -0.109 A  
HETATM   29  N   UNL     1     -10.755  11.901  68.884  1.00  0.00    -0.219 NA 
HETATM   30  C   UNL     1     -10.541  10.600  68.601  1.00  0.00    -0.203 A  
BRANCH  28  31
HETATM   31  C   UNL     1     -10.652   8.153  69.105  1.00  0.00    -0.179 A  
HETATM   32  C   UNL     1      -9.307   7.917  68.757  1.00  0.00    -0.146 A  
HETATM   33  C   UNL     1      -8.860   6.637  68.451  1.00  0.00    -0.121 A  
HETATM   34  C   UNL     1      -9.722   5.554  68.473  1.00  0.00    -0.175 A  
HETATM   35  F   UNL     1      -7.579   6.460  68.099  1.00  0.00    -0.093 F  
HETATM   36  C   UNL     1     -11.051   5.752  68.834  1.00  0.00    -0.136 A  
HETATM   37  C   UNL     1     -11.507   7.035  69.155  1.00  0.00     0.077 A  
ENDBRANCH  28  31
ENDBRANCH  24  25
ENDBRANCH  14  23
TORSDOF 6
ENDMDL
MODEL       79
REMARK 921   NORMALIZED FREE ENERGY PREDICTED BY IDOCK:   17.49 KCAL/MOL
REMARK 922        TOTAL FREE ENERGY PREDICTED BY IDOCK:   22.27 KCAL/MOL
REMARK 923 INTER-LIGAND FREE ENERGY PREDICTED BY IDOCK:   21.25 KCAL/MOL
REMARK 924 INTRA-LIGAND FREE ENERGY PREDICTED BY IDOCK:    1.01 KCAL/MOL
REMARK 927      BINDING AFFINITY PREDICTED BY RF-SCORE:    0.00 PKD
ROOT
HETATM    1  C   UNL     1     -12.408  14.148  64.384  1.00  0.00    -0.410 C  
HETATM    2  C   UNL     1     -12.343  15.661  64.190  1.00  0.00     0.134 C  
HETATM    3  C   UNL     1     -11.856  16.434  65.446  1.00  0.00     1.134 C  
HETATM    4  C   UNL     1     -10.855  17.556  65.054  1.00  0.00     0.401 C  
HETATM    5  C   UNL     1     -10.172  18.270  66.246  1.00  0.00    -0.401 C  
HETATM    6  C   UNL     1     -13.132  12.295  65.584  1.00  0.00     2.098 C  
HETATM    7  C   UNL     1      -9.739  17.339  67.385  1.00  0.00    -0.258 C  
HETATM    8  C   UNL     1     -12.839  13.771  65.789  1.00  0.00    -0.430 C  
HETATM    9  C   UNL     1     -10.839  16.355  67.744  1.00  0.00    -0.306 C  
HETATM   10  C   UNL     1     -13.952  11.641  66.680  1.00  0.00    14.167 C  
HETATM   11  O   UNL     1     -13.841  12.290  64.335  1.00  0.00     0.067 OA 
HETATM   12  C   UNL     1     -11.156  15.537  66.486  1.00  0.00    -0.182 C  
HETATM   13  C   UNL     1     -13.428  13.374  63.595  1.00  0.00     2.623 C  
HETATM   14  C   UNL     1     -11.797  14.163  66.825  1.00  0.00    -0.449 C  
HETATM   15  O   UNL     1     -13.804  13.625  62.468  1.00  0.00     3.703 OA 
ENDROOT
BRANCH   5  16
HETATM   16  N   UNL     1      -9.013  19.016  65.789  1.00  0.00     0.185 N  
HETATM   17  H   UNL     1      -9.156  19.825  65.184  1.00  0.00     0.000 HD 
HETATM   18  C   UNL     1      -7.743  18.674  66.137  1.00  0.00    -0.233 C  
HETATM   19  O   UNL     1      -7.440  17.794  66.926  1.00  0.00    -0.184 OA 
BRANCH  18  20
HETATM   20  O   UNL     1      -6.877  19.514  65.517  1.00  0.00    -0.270 OA 
BRANCH  20  21
HETATM   21  C   UNL     1      -6.100  18.900  64.482  1.00  0.00    -0.096 C  
HETATM   22  C   UNL     1      -5.716  17.505  64.947  1.00  0.00     1.174 C  
ENDBRANCH  20  21
ENDBRANCH  18  20
ENDBRANCH   5  16
BRANCH  14  23
HETATM   23  C   UNL     1     -10.630  13.209  66.823  1.00  0.00    -0.267 C  
HETATM   24  C   UNL     1      -9.860  12.849  65.788  1.00  0.00    -0.216 C  
BRANCH  24  25
HETATM   25  C   UNL     1      -9.061  11.617  65.886  1.00  0.00    -0.149 A  
HETATM   26  C   UNL     1      -7.627  10.006  64.869  1.00  0.00    -0.139 A  
HETATM   27  C   UNL     1      -8.094  11.320  64.944  1.00  0.00     0.583 A  
HETATM   28  C   UNL     1      -8.151   9.004  65.702  1.00  0.00    -0.115 A  
HETATM   29  N   UNL     1      -9.477  10.712  66.807  1.00  0.00    -0.160 NA 
HETATM   30  C   UNL     1      -9.028   9.446  66.690  1.00  0.00    -0.146 A  
BRANCH  28  31
HETATM   31  C   UNL     1      -7.927   7.568  65.459  1.00  0.00    -0.121 A  
HETATM   32  C   UNL     1      -6.899   7.153  64.589  1.00  0.00    -0.050 A  
HETATM   33  C   UNL     1      -6.761   5.818  64.227  1.00  0.00    -0.045 A  
HETATM   34  C   UNL     1      -7.633   4.855  64.704  1.00  0.00    -0.077 A  
HETATM   35  F   UNL     1      -5.787   5.469  63.377  1.00  0.00    -0.016 F  
HETATM   36  C   UNL     1      -8.646   5.230  65.581  1.00  0.00    -0.143 A  
HETATM   37  C   UNL     1      -8.784   6.570  65.961  1.00  0.00    -0.155 A  
ENDBRANCH  28  31
ENDBRANCH  24  25
ENDBRANCH  14  23
TORSDOF 6
ENDMDL
MODEL       80
REMARK 921   NORMALIZED FREE ENERGY PREDICTED BY IDOCK:   17.58 KCAL/MOL
REMARK 922        TOTAL FREE ENERGY PREDICTED BY IDOCK:   22.39 KCAL/MOL
REMARK 923 INTER-LIGAND FREE ENERGY PREDICTED BY IDOCK:   22.33 KCAL/MOL
REMARK 924 INTRA-LIGAND FREE ENERGY PREDICTED BY IDOCK:    0.06 KCAL/MOL
REMARK 927      BINDING AFFINITY PREDICTED BY RF-SCORE:    0.00 PKD
ROOT
HETATM    1  C   UNL     1      -9.578  17.046  67.409  1.00  0.00    -0.246 C  
HETATM    2  C   UNL     1     -10.389  17.785  68.470  1.00  0.00    -0.366 C  
HETATM    3  C   UNL     1     -11.853  17.282  68.602  1.00  0.00     1.541 C  
HETATM    4  C   UNL     1     -12.267  17.170  70.097  1.00  0.00     3.846 C  
HETATM    5  C   UNL     1     -13.645  16.508  70.345  1.00  0.00     4.709 C  
HETATM    6  C   UNL     1      -9.324  16.283  65.228  1.00  0.00     0.762 C  
HETATM    7  C   UNL     1     -13.936  15.287  69.465  1.00  0.00     3.225 C  
HETATM    8  C   UNL     1     -10.421  16.670  66.205  1.00  0.00    -0.291 C  
HETATM    9  C   UNL     1     -13.582  15.556  68.012  1.00  0.00     5.719 C  
HETATM   10  C   UNL     1      -9.751  16.203  63.775  1.00  0.00     7.740 C  
HETATM   11  O   UNL     1      -8.353  17.323  65.426  1.00  0.00     0.080 OA 
HETATM   12  C   UNL     1     -12.089  15.903  67.956  1.00  0.00     0.462 C  
HETATM   13  C   UNL     1      -8.472  17.792  66.714  1.00  0.00    -0.248 C  
HETATM   14  C   UNL     1     -11.476  15.632  66.554  1.00  0.00     0.165 C  
HETATM   15  O   UNL     1      -7.759  18.641  67.208  1.00  0.00    -0.228 OA 
ENDROOT
BRANCH   5  16
HETATM   16  N   UNL     1     -13.771  16.117  71.738  1.00  0.00    -0.061 N  
HETATM   17  H   UNL     1     -13.893  16.844  72.443  1.00  0.00     0.000 HD 
HETATM   18  C   UNL     1     -13.732  14.817  72.136  1.00  0.00    -0.439 C  
HETATM   19  O   UNL     1     -13.688  13.851  71.391  1.00  0.00    -0.280 OA 
BRANCH  18  20
HETATM   20  O   UNL     1     -13.818  14.770  73.488  1.00  0.00     0.060 OA 
BRANCH  20  21
HETATM   21  C   UNL     1     -13.007  15.738  74.165  1.00  0.00    -0.198 C  
HETATM   22  C   UNL     1     -11.550  15.403  73.894  1.00  0.00     0.153 C  
ENDBRANCH  20  21
ENDBRANCH  18  20
ENDBRANCH   5  16
BRANCH  14  23
HETATM   23  C   UNL     1     -10.873  14.255  66.684  1.00  0.00    -0.301 C  
HETATM   24  C   UNL     1     -11.494  13.071  66.604  1.00  0.00    -0.382 C  
BRANCH  24  25
HETATM   25  C   UNL     1     -10.836  11.881  67.165  1.00  0.00    -0.255 A  
HETATM   26  C   UNL     1      -9.363  10.025  66.898  1.00  0.00    -0.188 A  
HETATM   27  C   UNL     1      -9.725  11.328  66.554  1.00  0.00    -0.230 A  
HETATM   28  C   UNL     1     -10.127   9.279  67.811  1.00  0.00    -0.253 A  
HETATM   29  N   UNL     1     -11.505  11.247  68.161  1.00  0.00    -0.365 NA 
HETATM   30  C   UNL     1     -11.148   9.980  68.449  1.00  0.00    -0.182 A  
BRANCH  28  31
HETATM   31  C   UNL     1      -9.977   7.822  67.971  1.00  0.00    -0.210 A  
HETATM   32  C   UNL     1     -10.297   6.959  66.904  1.00  0.00    -0.332 A  
HETATM   33  C   UNL     1     -10.308   5.580  67.075  1.00  0.00    -0.254 A  
HETATM   34  C   UNL     1     -10.010   5.009  68.301  1.00  0.00    -0.193 A  
HETATM   35  F   UNL     1     -10.644   4.796  66.042  1.00  0.00    -0.279 F  
HETATM   36  C   UNL     1      -9.669   5.834  69.369  1.00  0.00    -0.200 A  
HETATM   37  C   UNL     1      -9.644   7.223  69.202  1.00  0.00    -0.155 A  
ENDBRANCH  28  31
ENDBRANCH  24  25
ENDBRANCH  14  23
TORSDOF 6
ENDMDL
MODEL       81
REMARK 921   NORMALIZED FREE ENERGY PREDICTED BY IDOCK:   17.82 KCAL/MOL
REMARK 922        TOTAL FREE ENERGY PREDICTED BY IDOCK:   22.71 KCAL/MOL
REMARK 923 INTER-LIGAND FREE ENERGY PREDICTED BY IDOCK:   21.62 KCAL/MOL
REMARK 924 INTRA-LIGAND FREE ENERGY PREDICTED BY IDOCK:    1.09 KCAL/MOL
REMARK 927      BINDING AFFINITY PREDICTED BY RF-SCORE:    0.00 PKD
ROOT
HETATM    1  C   UNL     1      -8.962  17.594  69.204  1.00  0.00     0.109 C  
HETATM    2  C   UNL     1      -9.880  18.249  68.175  1.00  0.00    -0.356 C  
HETATM    3  C   UNL     1      -9.630  17.772  66.718  1.00  0.00    -0.301 C  
HETATM    4  C   UNL     1     -10.974  17.529  65.976  1.00  0.00     0.229 C  
HETATM    5  C   UNL     1     -10.841  16.880  64.577  1.00  0.00     0.621 C  
HETATM    6  C   UNL     1      -6.831  17.034  69.943  1.00  0.00     0.350 C  
HETATM    7  C   UNL     1      -9.802  15.755  64.489  1.00  0.00     1.814 C  
HETATM    8  C   UNL     1      -7.568  17.354  68.654  1.00  0.00    -0.265 C  
HETATM    9  C   UNL     1      -8.500  16.151  65.163  1.00  0.00     3.077 C  
HETATM   10  C   UNL     1      -5.318  17.103  69.855  1.00  0.00    -0.200 C  
HETATM   11  O   UNL     1      -7.342  18.027  70.847  1.00  0.00     3.115 OA 
HETATM   12  C   UNL     1      -8.815  16.466  66.631  1.00  0.00    -0.283 C  
HETATM   13  C   UNL     1      -8.609  18.375  70.440  1.00  0.00     3.301 C  
HETATM   14  C   UNL     1      -7.568  16.313  67.545  1.00  0.00    -0.170 C  
HETATM   15  O   UNL     1      -9.332  19.156  71.024  1.00  0.00     2.616 OA 
ENDROOT
BRANCH   5  16
HETATM   16  N   UNL     1     -12.124  16.363  64.137  1.00  0.00    -0.063 N  
HETATM   17  H   UNL     1     -12.880  17.021  63.944  1.00  0.00     0.000 HD 
HETATM   18  C   UNL     1     -12.356  15.033  63.974  1.00  0.00    -0.023 C  
HETATM   19  O   UNL     1     -11.517  14.152  64.076  1.00  0.00    -0.234 OA 
BRANCH  18  20
HETATM   20  O   UNL     1     -13.651  14.854  63.614  1.00  0.00     1.531 OA 
BRANCH  20  21
HETATM   21  C   UNL     1     -14.404  14.030  64.513  1.00  0.00     6.441 C  
HETATM   22  C   UNL     1     -13.439  13.431  65.523  1.00  0.00     0.991 C  
ENDBRANCH  20  21
ENDBRANCH  18  20
ENDBRANCH   5  16
BRANCH  14  23
HETATM   23  C   UNL     1      -7.696  14.917  68.099  1.00  0.00    -0.117 C  
HETATM   24  C   UNL     1      -6.736  13.993  68.241  1.00  0.00    -0.109 C  
BRANCH  24  25
HETATM   25  C   UNL     1      -7.121  12.582  68.399  1.00  0.00    -0.107 A  
HETATM   26  C   UNL     1      -7.350  10.653  69.782  1.00  0.00    -0.115 A  
HETATM   27  C   UNL     1      -7.347  12.043  69.652  1.00  0.00     0.488 A  
HETATM   28  C   UNL     1      -7.092   9.823  68.678  1.00  0.00    -0.071 A  
HETATM   29  N   UNL     1      -7.021  11.812  67.287  1.00  0.00    -0.127 NA 
HETATM   30  C   UNL     1      -6.999  10.474  67.450  1.00  0.00    -0.085 A  
BRANCH  28  31
HETATM   31  C   UNL     1      -6.777   8.390  68.816  1.00  0.00    -0.058 A  
HETATM   32  C   UNL     1      -7.804   7.467  69.099  1.00  0.00    -0.119 A  
HETATM   33  C   UNL     1      -7.515   6.137  69.380  1.00  0.00    -0.093 A  
HETATM   34  C   UNL     1      -6.210   5.677  69.396  1.00  0.00    -0.032 A  
HETATM   35  F   UNL     1      -8.518   5.299  69.671  1.00  0.00    -0.093 F  
HETATM   36  C   UNL     1      -5.175   6.559  69.099  1.00  0.00    -0.013 A  
HETATM   37  C   UNL     1      -5.458   7.897  68.802  1.00  0.00    -0.027 A  
ENDBRANCH  28  31
ENDBRANCH  24  25
ENDBRANCH  14  23
TORSDOF 6
ENDMDL
MODEL       82
REMARK 921   NORMALIZED FREE ENERGY PREDICTED BY IDOCK:   21.66 KCAL/MOL
REMARK 922        TOTAL FREE ENERGY PREDICTED BY IDOCK:   27.90 KCAL/MOL
REMARK 923 INTER-LIGAND FREE ENERGY PREDICTED BY IDOCK:   27.90 KCAL/MOL
REMARK 924 INTRA-LIGAND FREE ENERGY PREDICTED BY IDOCK:    0.00 KCAL/MOL
REMARK 927      BINDING AFFINITY PREDICTED BY RF-SCORE:    0.00 PKD
ROOT
HETATM    1  C   UNL     1     -12.667  14.152  64.277  1.00  0.00     0.025 C  
HETATM    2  C   UNL     1     -12.597  15.655  64.025  1.00  0.00     0.543 C  
HETATM    3  C   UNL     1     -12.146  16.478  65.263  1.00  0.00     1.872 C  
HETATM    4  C   UNL     1     -11.134  17.586  64.854  1.00  0.00     0.763 C  
HETATM    5  C   UNL     1     -10.486  18.347  66.035  1.00  0.00    -0.374 C  
HETATM    6  C   UNL     1     -13.424  12.346  65.529  1.00  0.00     2.971 C  
HETATM    7  C   UNL     1     -10.085  17.464  67.223  1.00  0.00    -0.310 C  
HETATM    8  C   UNL     1     -13.138  13.830  65.683  1.00  0.00    -0.181 C  
HETATM    9  C   UNL     1     -11.195  16.493  67.589  1.00  0.00    -0.038 C  
HETATM   10  C   UNL     1     -14.275  11.736  66.627  1.00  0.00    16.244 C  
HETATM   11  O   UNL     1     -14.098  12.291  64.262  1.00  0.00     0.833 OA 
HETATM   12  C   UNL     1     -11.475  15.625  66.357  1.00  0.00     0.180 C  
HETATM   13  C   UNL     1     -13.664  13.345  63.491  1.00  0.00     4.094 C  
HETATM   14  C   UNL     1     -12.126  14.265  66.733  1.00  0.00    -0.446 C  
HETATM   15  O   UNL     1     -14.007  13.550  62.345  1.00  0.00     4.439 OA 
ENDROOT
BRANCH   5  16
HETATM   16  N   UNL     1      -9.315  19.076  65.582  1.00  0.00     0.383 N  
HETATM   17  H   UNL     1      -8.858  18.783  64.718  1.00  0.00     0.000 HD 
HETATM   18  C   UNL     1      -8.804  20.134  66.268  1.00  0.00    -0.224 C  
HETATM   19  O   UNL     1      -9.307  20.644  67.257  1.00  0.00    -0.401 OA 
BRANCH  18  20
HETATM   20  O   UNL     1      -7.686  20.569  65.636  1.00  0.00    -0.062 OA 
BRANCH  20  21
HETATM   21  C   UNL     1      -6.624  20.955  66.516  1.00  0.00    -0.265 C  
HETATM   22  C   UNL     1      -5.306  20.689  65.808  1.00  0.00    -0.222 C  
ENDBRANCH  20  21
ENDBRANCH  18  20
ENDBRANCH   5  16
BRANCH  14  23
HETATM   23  C   UNL     1     -10.959  13.313  66.801  1.00  0.00    -0.302 C  
HETATM   24  C   UNL     1     -10.985  11.983  66.956  1.00  0.00    -0.323 C  
BRANCH  24  25
HETATM   25  C   UNL     1      -9.770  11.293  67.415  1.00  0.00    -0.173 A  
HETATM   26  C   UNL     1      -8.677   9.290  68.108  1.00  0.00    -0.125 A  
HETATM   27  C   UNL     1      -9.666   9.915  67.347  1.00  0.00    -0.199 A  
HETATM   28  C   UNL     1      -7.834  10.034  68.951  1.00  0.00    -0.095 A  
HETATM   29  N   UNL     1      -8.877  12.054  68.096  1.00  0.00    -0.178 NA 
HETATM   30  C   UNL     1      -7.952  11.418  68.844  1.00  0.00    -0.085 A  
BRANCH  28  31
HETATM   31  C   UNL     1      -6.999   9.412  69.993  1.00  0.00    -0.071 A  
HETATM   32  C   UNL     1      -7.392   8.189  70.574  1.00  0.00    -0.056 A  
HETATM   33  C   UNL     1      -6.705   7.657  71.659  1.00  0.00    -0.045 A  
HETATM   34  C   UNL     1      -5.616   8.313  72.207  1.00  0.00    -0.041 A  
HETATM   35  F   UNL     1      -7.128   6.506  72.199  1.00  0.00    -0.074 F  
HETATM   36  C   UNL     1      -5.191   9.511  71.642  1.00  0.00    -0.068 A  
HETATM   37  C   UNL     1      -5.869  10.048  70.542  1.00  0.00    -0.084 A  
ENDBRANCH  28  31
ENDBRANCH  24  25
ENDBRANCH  14  23
TORSDOF 6
ENDMDL
MODEL       83
REMARK 921   NORMALIZED FREE ENERGY PREDICTED BY IDOCK:   28.39 KCAL/MOL
REMARK 922        TOTAL FREE ENERGY PREDICTED BY IDOCK:   36.99 KCAL/MOL
REMARK 923 INTER-LIGAND FREE ENERGY PREDICTED BY IDOCK:   37.13 KCAL/MOL
REMARK 924 INTRA-LIGAND FREE ENERGY PREDICTED BY IDOCK:   -0.14 KCAL/MOL
REMARK 927      BINDING AFFINITY PREDICTED BY RF-SCORE:    0.00 PKD
ROOT
HETATM    1  C   UNL     1     -11.213  11.965  69.745  1.00  0.00    -0.133 C  
HETATM    2  C   UNL     1     -12.312  12.816  69.114  1.00  0.00     0.109 C  
HETATM    3  C   UNL     1     -11.776  13.982  68.239  1.00  0.00    -0.392 C  
HETATM    4  C   UNL     1     -12.595  14.110  66.923  1.00  0.00     0.052 C  
HETATM    5  C   UNL     1     -12.032  15.125  65.899  1.00  0.00     0.181 C  
HETATM    6  C   UNL     1      -9.273  11.786  71.012  1.00  0.00     9.116 C  
HETATM    7  C   UNL     1     -10.505  15.106  65.752  1.00  0.00    -0.355 C  
HETATM    8  C   UNL     1     -10.008  12.795  70.146  1.00  0.00     3.049 C  
HETATM    9  C   UNL     1      -9.820  15.082  67.107  1.00  0.00    -0.233 C  
HETATM   10  C   UNL     1      -8.196  12.368  71.907  1.00  0.00    16.129 C  
HETATM   11  O   UNL     1     -10.337  11.213  71.789  1.00  0.00     4.930 OA 
HETATM   12  C   UNL     1     -10.295  13.824  67.844  1.00  0.00    -0.244 C  
HETATM   13  C   UNL     1     -11.502  11.296  71.061  1.00  0.00     0.744 C  
HETATM   14  C   UNL     1      -9.287  13.367  68.935  1.00  0.00     0.211 C  
HETATM   15  O   UNL     1     -12.574  10.853  71.420  1.00  0.00    -0.385 OA 
ENDROOT
BRANCH   5  16
HETATM   16  N   UNL     1     -12.627  14.905  64.593  1.00  0.00    -0.418 N  
HETATM   17  H   UNL     1     -13.406  15.497  64.302  1.00  0.00     0.000 HD 
HETATM   18  C   UNL     1     -12.185  13.939  63.744  1.00  0.00    -0.261 C  
HETATM   19  O   UNL     1     -11.207  13.232  63.927  1.00  0.00    -0.373 OA 
BRANCH  18  20
HETATM   20  O   UNL     1     -12.966  13.937  62.636  1.00  0.00     0.288 OA 
BRANCH  20  21
HETATM   21  C   UNL     1     -13.868  12.827  62.553  1.00  0.00     5.095 C  
HETATM   22  C   UNL     1     -13.052  11.549  62.650  1.00  0.00     1.644 C  
ENDBRANCH  20  21
ENDBRANCH  18  20
ENDBRANCH   5  16
BRANCH  14  23
HETATM   23  C   UNL     1      -8.456  12.317  68.241  1.00  0.00    -0.173 C  
HETATM   24  C   UNL     1      -8.150  12.233  66.940  1.00  0.00    -0.090 C  
BRANCH  24  25
HETATM   25  C   UNL     1      -7.698  10.944  66.394  1.00  0.00    -0.154 A  
HETATM   26  C   UNL     1      -7.994   9.138  64.865  1.00  0.00    -0.123 A  
HETATM   27  C   UNL     1      -8.154  10.491  65.169  1.00  0.00    -0.112 A  
HETATM   28  C   UNL     1      -7.419   8.252  65.791  1.00  0.00    -0.080 A  
HETATM   29  N   UNL     1      -7.002  10.150  67.246  1.00  0.00    -0.082 NA 
HETATM   30  C   UNL     1      -6.890   8.843  66.935  1.00  0.00    -0.077 A  
BRANCH  28  31
HETATM   31  C   UNL     1      -7.509   6.787  65.652  1.00  0.00    -0.082 A  
HETATM   32  C   UNL     1      -8.721   6.125  65.933  1.00  0.00    -0.158 A  
HETATM   33  C   UNL     1      -8.792   4.738  65.956  1.00  0.00    -0.123 A  
HETATM   34  C   UNL     1      -7.673   3.961  65.707  1.00  0.00    -0.089 A  
HETATM   35  F   UNL     1      -9.957   4.148  66.254  1.00  0.00    -0.200 F  
HETATM   36  C   UNL     1      -6.467   4.584  65.406  1.00  0.00    -0.040 A  
HETATM   37  C   UNL     1      -6.389   5.981  65.369  1.00  0.00    -0.038 A  
ENDBRANCH  28  31
ENDBRANCH  24  25
ENDBRANCH  14  23
TORSDOF 6
ENDMDL
MODEL       84
REMARK 921   NORMALIZED FREE ENERGY PREDICTED BY IDOCK:   29.26 KCAL/MOL
REMARK 922        TOTAL FREE ENERGY PREDICTED BY IDOCK:   38.16 KCAL/MOL
REMARK 923 INTER-LIGAND FREE ENERGY PREDICTED BY IDOCK:   38.76 KCAL/MOL
REMARK 924 INTRA-LIGAND FREE ENERGY PREDICTED BY IDOCK:   -0.60 KCAL/MOL
REMARK 927      BINDING AFFINITY PREDICTED BY RF-SCORE:    0.00 PKD
ROOT
HETATM    1  C   UNL     1     -10.690  18.459  66.737  1.00  0.00    -0.274 C  
HETATM    2  C   UNL     1      -9.973  18.679  68.067  1.00  0.00    -0.389 C  
HETATM    3  C   UNL     1     -10.328  17.626  69.152  1.00  0.00    -0.202 C  
HETATM    4  C   UNL     1      -9.055  17.176  69.924  1.00  0.00     1.366 C  
HETATM    5  C   UNL     1      -9.268  15.997  70.905  1.00  0.00     2.874 C  
HETATM    6  C   UNL     1     -12.646  18.133  65.526  1.00  0.00     9.176 C  
HETATM    7  C   UNL     1     -10.173  14.878  70.374  1.00  0.00     0.262 C  
HETATM    8  C   UNL     1     -12.099  17.931  66.929  1.00  0.00     3.627 C  
HETATM    9  C   UNL     1     -11.429  15.442  69.732  1.00  0.00    -0.338 C  
HETATM   10  C   UNL     1     -14.157  18.069  65.408  1.00  0.00    17.754 C  
HETATM   11  O   UNL     1     -12.155  19.440  65.188  1.00  0.00     3.003 OA 
HETATM   12  C   UNL     1     -10.991  16.356  68.582  1.00  0.00    -0.345 C  
HETATM   13  C   UNL     1     -10.990  19.662  65.885  1.00  0.00    -0.182 C  
HETATM   14  C   UNL     1     -12.102  16.525  67.509  1.00  0.00     1.393 C  
HETATM   15  O   UNL     1     -10.301  20.656  65.781  1.00  0.00     0.001 OA 
ENDROOT
BRANCH   5  16
HETATM   16  N   UNL     1      -7.990  15.420  71.284  1.00  0.00     2.372 N  
HETATM   17  H   UNL     1      -7.593  15.661  72.192  1.00  0.00     0.000 HD 
HETATM   18  C   UNL     1      -7.304  14.572  70.472  1.00  0.00     0.812 C  
HETATM   19  O   UNL     1      -7.710  14.130  69.408  1.00  0.00     0.023 OA 
BRANCH  18  20
HETATM   20  O   UNL     1      -6.131  14.247  71.067  1.00  0.00    -0.208 OA 
BRANCH  20  21
HETATM   21  C   UNL     1      -5.200  15.332  71.165  1.00  0.00    -0.116 C  
HETATM   22  C   UNL     1      -5.144  16.027  69.815  1.00  0.00    -0.114 C  
ENDBRANCH  20  21
ENDBRANCH  18  20
ENDBRANCH   5  16
BRANCH  14  23
HETATM   23  C   UNL     1     -11.754  15.495  66.463  1.00  0.00     0.306 C  
HETATM   24  C   UNL     1     -12.358  14.325  66.222  1.00  0.00    -0.399 C  
BRANCH  24  25
HETATM   25  C   UNL     1     -11.636  13.290  65.466  1.00  0.00    -0.326 A  
HETATM   26  C   UNL     1     -11.047  11.001  65.157  1.00  0.00    -0.011 A  
HETATM   27  C   UNL     1     -11.967  11.954  65.596  1.00  0.00    -0.005 A  
HETATM   28  C   UNL     1      -9.801  11.385  64.633  1.00  0.00    -0.302 A  
HETATM   29  N   UNL     1     -10.512  13.699  64.826  1.00  0.00    -0.410 NA 
HETATM   30  C   UNL     1      -9.631  12.754  64.441  1.00  0.00     0.301 A  
BRANCH  28  31
HETATM   31  C   UNL     1      -8.687  10.438  64.450  1.00  0.00    -0.209 A  
HETATM   32  C   UNL     1      -8.817   9.364  63.547  1.00  0.00    -0.198 A  
HETATM   33  C   UNL     1      -7.845   8.375  63.464  1.00  0.00    -0.152 A  
HETATM   34  C   UNL     1      -6.719   8.410  64.270  1.00  0.00    -0.067 A  
HETATM   35  F   UNL     1      -8.019   7.357  62.612  1.00  0.00    -0.117 F  
HETATM   36  C   UNL     1      -6.552   9.468  65.157  1.00  0.00    -0.083 A  
HETATM   37  C   UNL     1      -7.521  10.476  65.238  1.00  0.00    -0.065 A  
ENDBRANCH  28  31
ENDBRANCH  24  25
ENDBRANCH  14  23
TORSDOF 6
ENDMDL
MODEL       85
REMARK 921   NORMALIZED FREE ENERGY PREDICTED BY IDOCK:   32.11 KCAL/MOL
REMARK 922        TOTAL FREE ENERGY PREDICTED BY IDOCK:   42.02 KCAL/MOL
REMARK 923 INTER-LIGAND FREE ENERGY PREDICTED BY IDOCK:   41.13 KCAL/MOL
REMARK 924 INTRA-LIGAND FREE ENERGY PREDICTED BY IDOCK:    0.89 KCAL/MOL
REMARK 927      BINDING AFFINITY PREDICTED BY RF-SCORE:    0.00 PKD
ROOT
HETATM    1  C   UNL     1      -8.970  17.598  69.189  1.00  0.00     0.109 C  
HETATM    2  C   UNL     1      -9.811  18.391  68.191  1.00  0.00    -0.365 C  
HETATM    3  C   UNL     1      -9.523  18.035  66.707  1.00  0.00    -0.293 C  
HETATM    4  C   UNL     1     -10.845  17.931  65.895  1.00  0.00     0.038 C  
HETATM    5  C   UNL     1     -10.683  17.407  64.447  1.00  0.00     2.302 C  
HETATM    6  C   UNL     1      -6.902  16.863  69.953  1.00  0.00     0.325 C  
HETATM    7  C   UNL     1      -9.698  16.241  64.295  1.00  0.00     4.138 C  
HETATM    8  C   UNL     1      -7.568  17.337  68.672  1.00  0.00    -0.260 C  
HETATM    9  C   UNL     1      -8.408  16.506  65.052  1.00  0.00     3.821 C  
HETATM   10  C   UNL     1      -5.386  16.860  69.929  1.00  0.00    -0.188 C  
HETATM   11  O   UNL     1      -7.403  17.795  70.925  1.00  0.00     3.270 OA 
HETATM   12  C   UNL     1      -8.769  16.702  66.529  1.00  0.00    -0.317 C  
HETATM   13  C   UNL     1      -8.634  18.244  70.505  1.00  0.00     4.011 C  
HETATM   14  C   UNL     1      -7.571  16.402  67.472  1.00  0.00    -0.168 C  
HETATM   15  O   UNL     1      -9.342  19.005  71.131  1.00  0.00     3.255 OA 
ENDROOT
BRANCH   5  16
HETATM   16  N   UNL     1     -11.971  16.999  63.913  1.00  0.00     1.849 N  
HETATM   17  H   UNL     1     -12.686  17.710  63.760  1.00  0.00     0.000 HD 
HETATM   18  C   UNL     1     -12.257  15.704  63.611  1.00  0.00     0.845 C  
HETATM   19  O   UNL     1     -11.464  14.777  63.655  1.00  0.00     0.365 OA 
BRANCH  18  20
HETATM   20  O   UNL     1     -13.543  15.626  63.189  1.00  0.00     2.004 OA 
BRANCH  20  21
HETATM   21  C   UNL     1     -14.368  14.754  63.973  1.00  0.00     8.181 C  
HETATM   22  C   UNL     1     -13.471  14.010  64.948  1.00  0.00     0.991 C  
ENDBRANCH  20  21
ENDBRANCH  18  20
ENDBRANCH   5  16
BRANCH  14  23
HETATM   23  C   UNL     1      -7.790  14.970  67.889  1.00  0.00    -0.147 C  
HETATM   24  C   UNL     1      -6.883  13.989  67.981  1.00  0.00    -0.148 C  
BRANCH  24  25
HETATM   25  C   UNL     1      -7.341  12.591  67.993  1.00  0.00    -0.111 A  
HETATM   26  C   UNL     1      -8.302  10.730  66.853  1.00  0.00    -0.132 A  
HETATM   27  C   UNL     1      -7.539  11.898  66.812  1.00  0.00    -0.034 A  
HETATM   28  C   UNL     1      -8.887  10.290  68.052  1.00  0.00    -0.122 A  
HETATM   29  N   UNL     1      -7.761  12.114  69.191  1.00  0.00     0.136 NA 
HETATM   30  C   UNL     1      -8.519  10.999  69.192  1.00  0.00    -0.012 A  
BRANCH  28  31
HETATM   31  C   UNL     1      -9.940   9.259  68.093  1.00  0.00    -0.206 A  
HETATM   32  C   UNL     1      -9.605   7.902  67.914  1.00  0.00    -0.169 A  
HETATM   33  C   UNL     1     -10.591   6.929  67.800  1.00  0.00    -0.244 A  
HETATM   34  C   UNL     1     -11.933   7.262  67.853  1.00  0.00     2.323 A  
HETATM   35  F   UNL     1     -10.230   5.654  67.604  1.00  0.00    -0.149 F  
HETATM   36  C   UNL     1     -12.296   8.591  68.050  1.00  0.00     5.985 A  
HETATM   37  C   UNL     1     -11.310   9.576  68.178  1.00  0.00     0.244 A  
ENDBRANCH  28  31
ENDBRANCH  24  25
ENDBRANCH  14  23
TORSDOF 6
ENDMDL
MODEL       86
REMARK 921   NORMALIZED FREE ENERGY PREDICTED BY IDOCK:   35.97 KCAL/MOL
REMARK 922        TOTAL FREE ENERGY PREDICTED BY IDOCK:   47.23 KCAL/MOL
REMARK 923 INTER-LIGAND FREE ENERGY PREDICTED BY IDOCK:   46.85 KCAL/MOL
REMARK 924 INTRA-LIGAND FREE ENERGY PREDICTED BY IDOCK:    0.38 KCAL/MOL
REMARK 927      BINDING AFFINITY PREDICTED BY RF-SCORE:    0.00 PKD
ROOT
HETATM    1  C   UNL     1     -11.209  16.246  71.701  1.00  0.00     0.016 C  
HETATM    2  C   UNL     1     -10.905  17.632  71.139  1.00  0.00     2.086 C  
HETATM    3  C   UNL     1      -9.487  17.760  70.518  1.00  0.00     3.315 C  
HETATM    4  C   UNL     1      -9.535  18.556  69.183  1.00  0.00    -0.084 C  
HETATM    5  C   UNL     1      -8.206  18.588  68.392  1.00  0.00    -0.328 C  
HETATM    6  C   UNL     1     -10.645  14.451  73.066  1.00  0.00     4.180 C  
HETATM    7  C   UNL     1      -7.447  17.255  68.362  1.00  0.00    -0.234 C  
HETATM    8  C   UNL     1      -9.985  15.604  72.327  1.00  0.00     4.056 C  
HETATM    9  C   UNL     1      -7.382  16.625  69.743  1.00  0.00     0.414 C  
HETATM   10  C   UNL     1      -9.787  13.789  74.126  1.00  0.00    10.460 C  
HETATM   11  O   UNL     1     -11.798  15.077  73.649  1.00  0.00    -0.377 OA 
HETATM   12  C   UNL     1      -8.823  16.402  70.218  1.00  0.00     1.893 C  
HETATM   13  C   UNL     1     -12.163  16.143  72.858  1.00  0.00    -0.541 C  
HETATM   14  C   UNL     1      -8.921  15.281  71.290  1.00  0.00     3.320 C  
HETATM   15  O   UNL     1     -13.132  16.848  73.053  1.00  0.00     0.666 OA 
ENDROOT
BRANCH   5  16
HETATM   16  N   UNL     1      -8.443  19.018  67.025  1.00  0.00    -0.278 N  
HETATM   17  H   UNL     1      -8.419  18.321  66.280  1.00  0.00     0.000 HD 
HETATM   18  C   UNL     1      -8.697  20.314  66.703  1.00  0.00    -0.228 C  
HETATM   19  O   UNL     1      -8.848  21.224  67.503  1.00  0.00     0.031 OA 
BRANCH  18  20
HETATM   20  O   UNL     1      -8.819  20.416  65.356  1.00  0.00     0.205 OA 
BRANCH  20  21
HETATM   21  C   UNL     1      -9.593  19.371  64.754  1.00  0.00     3.472 C  
HETATM   22  C   UNL     1     -10.880  19.222  65.548  1.00  0.00    -0.143 C  
ENDBRANCH  20  21
ENDBRANCH  18  20
ENDBRANCH   5  16
BRANCH  14  23
HETATM   23  C   UNL     1      -9.280  14.051  70.495  1.00  0.00     3.351 C  
HETATM   24  C   UNL     1      -9.581  12.830  70.953  1.00  0.00     8.787 C  
BRANCH  24  25
HETATM   25  C   UNL     1      -9.490  11.681  70.039  1.00  0.00     2.339 A  
HETATM   26  C   UNL     1      -8.575   9.546  69.500  1.00  0.00    -0.171 A  
HETATM   27  C   UNL     1      -8.973  10.471  70.466  1.00  0.00     1.504 A  
HETATM   28  C   UNL     1      -8.660   9.848  68.131  1.00  0.00    -0.118 A  
HETATM   29  N   UNL     1      -9.729  11.944  68.730  1.00  0.00    -0.104 NA 
HETATM   30  C   UNL     1      -9.307  11.042  67.822  1.00  0.00    -0.158 A  
BRANCH  28  31
HETATM   31  C   UNL     1      -7.978   9.052  67.096  1.00  0.00    -0.102 A  
HETATM   32  C   UNL     1      -7.243   7.905  67.459  1.00  0.00    -0.088 A  
HETATM   33  C   UNL     1      -6.470   7.224  66.526  1.00  0.00    -0.052 A  
HETATM   34  C   UNL     1      -6.392   7.652  65.212  1.00  0.00    -0.038 A  
HETATM   35  F   UNL     1      -5.765   6.155  66.918  1.00  0.00    -0.014 F  
HETATM   36  C   UNL     1      -7.123   8.769  64.817  1.00  0.00    -0.077 A  
HETATM   37  C   UNL     1      -7.915   9.453  65.747  1.00  0.00    -0.110 A  
ENDBRANCH  28  31
ENDBRANCH  24  25
ENDBRANCH  14  23
TORSDOF 6
ENDMDL
MODEL       87
REMARK 921   NORMALIZED FREE ENERGY PREDICTED BY IDOCK:   36.42 KCAL/MOL
REMARK 922        TOTAL FREE ENERGY PREDICTED BY IDOCK:   47.83 KCAL/MOL
REMARK 923 INTER-LIGAND FREE ENERGY PREDICTED BY IDOCK:   47.42 KCAL/MOL
REMARK 924 INTRA-LIGAND FREE ENERGY PREDICTED BY IDOCK:    0.42 KCAL/MOL
REMARK 927      BINDING AFFINITY PREDICTED BY RF-SCORE:    0.00 PKD
ROOT
HETATM    1  C   UNL     1      -9.648  17.100  67.337  1.00  0.00    -0.247 C  
HETATM    2  C   UNL     1     -10.347  18.062  68.294  1.00  0.00    -0.389 C  
HETATM    3  C   UNL     1     -11.852  17.748  68.511  1.00  0.00     2.387 C  
HETATM    4  C   UNL     1     -12.238  17.888  70.011  1.00  0.00     8.129 C  
HETATM    5  C   UNL     1     -13.672  17.424  70.364  1.00  0.00    13.606 C  
HETATM    6  C   UNL     1      -9.535  16.022  65.282  1.00  0.00     0.430 C  
HETATM    7  C   UNL     1     -14.116  16.133  69.664  1.00  0.00     4.532 C  
HETATM    8  C   UNL     1     -10.558  16.659  66.207  1.00  0.00    -0.205 C  
HETATM    9  C   UNL     1     -13.774  16.160  68.185  1.00  0.00     6.519 C  
HETATM   10  C   UNL     1     -10.007  15.792  63.858  1.00  0.00     5.001 C  
HETATM   11  O   UNL     1      -8.452  16.965  65.322  1.00  0.00     0.498 OA 
HETATM   12  C   UNL     1     -12.254  16.328  68.065  1.00  0.00     1.047 C  
HETATM   13  C   UNL     1      -8.486  17.616  66.534  1.00  0.00    -0.264 C  
HETATM   14  C   UNL     1     -11.710  15.801  66.708  1.00  0.00     0.485 C  
HETATM   15  O   UNL     1      -7.673  18.441  66.898  1.00  0.00    -0.213 OA 
ENDROOT
BRANCH   5  16
HETATM   16  N   UNL     1     -13.804  17.243  71.799  1.00  0.00     7.070 N  
HETATM   17  H   UNL     1     -13.864  18.070  72.394  1.00  0.00     0.000 HD 
HETATM   18  C   UNL     1     -13.849  16.014  72.378  1.00  0.00    -0.112 C  
HETATM   19  O   UNL     1     -13.883  14.951  71.777  1.00  0.00    -0.378 OA 
BRANCH  18  20
HETATM   20  O   UNL     1     -13.917  16.164  73.723  1.00  0.00    -0.119 OA 
BRANCH  20  21
HETATM   21  C   UNL     1     -13.050  17.177  74.248  1.00  0.00     1.491 C  
HETATM   22  C   UNL     1     -11.615  16.720  74.043  1.00  0.00     0.487 C  
ENDBRANCH  20  21
ENDBRANCH  18  20
ENDBRANCH   5  16
BRANCH  14  23
HETATM   23  C   UNL     1     -11.257  14.398  67.022  1.00  0.00    -0.336 C  
HETATM   24  C   UNL     1     -10.194  14.014  67.739  1.00  0.00    -0.240 C  
BRANCH  24  25
HETATM   25  C   UNL     1      -9.685  12.642  67.585  1.00  0.00    -0.197 A  
HETATM   26  C   UNL     1      -7.846  11.140  67.366  1.00  0.00    -0.121 A  
HETATM   27  C   UNL     1      -8.365  12.338  67.861  1.00  0.00    -0.163 A  
HETATM   28  C   UNL     1      -8.631  10.284  66.575  1.00  0.00    -0.136 A  
HETATM   29  N   UNL     1     -10.513  11.769  66.958  1.00  0.00    -0.214 NA 
HETATM   30  C   UNL     1      -9.974  10.635  66.467  1.00  0.00    -0.215 A  
BRANCH  28  31
HETATM   31  C   UNL     1      -8.056   9.185  65.780  1.00  0.00    -0.112 A  
HETATM   32  C   UNL     1      -7.217   9.471  64.685  1.00  0.00    -0.113 A  
HETATM   33  C   UNL     1      -6.784   8.464  63.830  1.00  0.00    -0.075 A  
HETATM   34  C   UNL     1      -7.167   7.148  64.025  1.00  0.00    -0.070 A  
HETATM   35  F   UNL     1      -6.010   8.782  62.785  1.00  0.00    -0.084 F  
HETATM   36  C   UNL     1      -7.978   6.830  65.110  1.00  0.00    -0.128 A  
HETATM   37  C   UNL     1      -8.408   7.836  65.983  1.00  0.00    -0.134 A  
ENDBRANCH  28  31
ENDBRANCH  24  25
ENDBRANCH  14  23
TORSDOF 6
ENDMDL
MODEL       88
REMARK 921   NORMALIZED FREE ENERGY PREDICTED BY IDOCK:   36.78 KCAL/MOL
REMARK 922        TOTAL FREE ENERGY PREDICTED BY IDOCK:   48.33 KCAL/MOL
REMARK 923 INTER-LIGAND FREE ENERGY PREDICTED BY IDOCK:   47.86 KCAL/MOL
REMARK 924 INTRA-LIGAND FREE ENERGY PREDICTED BY IDOCK:    0.46 KCAL/MOL
REMARK 927      BINDING AFFINITY PREDICTED BY RF-SCORE:    0.00 PKD
ROOT
HETATM    1  C   UNL     1      -9.648  17.100  67.337  1.00  0.00    -0.247 C  
HETATM    2  C   UNL     1     -10.347  18.062  68.294  1.00  0.00    -0.389 C  
HETATM    3  C   UNL     1     -11.852  17.748  68.511  1.00  0.00     2.387 C  
HETATM    4  C   UNL     1     -12.238  17.888  70.011  1.00  0.00     8.129 C  
HETATM    5  C   UNL     1     -13.672  17.424  70.364  1.00  0.00    13.606 C  
HETATM    6  C   UNL     1      -9.535  16.022  65.282  1.00  0.00     0.430 C  
HETATM    7  C   UNL     1     -14.116  16.133  69.664  1.00  0.00     4.532 C  
HETATM    8  C   UNL     1     -10.558  16.659  66.207  1.00  0.00    -0.205 C  
HETATM    9  C   UNL     1     -13.774  16.160  68.185  1.00  0.00     6.519 C  
HETATM   10  C   UNL     1     -10.007  15.792  63.858  1.00  0.00     5.001 C  
HETATM   11  O   UNL     1      -8.452  16.965  65.322  1.00  0.00     0.498 OA 
HETATM   12  C   UNL     1     -12.254  16.328  68.065  1.00  0.00     1.047 C  
HETATM   13  C   UNL     1      -8.486  17.616  66.534  1.00  0.00    -0.264 C  
HETATM   14  C   UNL     1     -11.710  15.801  66.708  1.00  0.00     0.485 C  
HETATM   15  O   UNL     1      -7.673  18.441  66.898  1.00  0.00    -0.213 OA 
ENDROOT
BRANCH   5  16
HETATM   16  N   UNL     1     -13.804  17.243  71.799  1.00  0.00     7.070 N  
HETATM   17  H   UNL     1     -13.864  18.070  72.394  1.00  0.00     0.000 HD 
HETATM   18  C   UNL     1     -13.849  16.014  72.378  1.00  0.00    -0.112 C  
HETATM   19  O   UNL     1     -13.883  14.951  71.777  1.00  0.00    -0.378 OA 
BRANCH  18  20
HETATM   20  O   UNL     1     -13.917  16.164  73.723  1.00  0.00    -0.119 OA 
BRANCH  20  21
HETATM   21  C   UNL     1     -13.050  17.177  74.248  1.00  0.00     1.491 C  
HETATM   22  C   UNL     1     -11.615  16.720  74.043  1.00  0.00     0.487 C  
ENDBRANCH  20  21
ENDBRANCH  18  20
ENDBRANCH   5  16
BRANCH  14  23
HETATM   23  C   UNL     1     -11.257  14.398  67.022  1.00  0.00    -0.336 C  
HETATM   24  C   UNL     1     -10.194  14.014  67.739  1.00  0.00    -0.240 C  
BRANCH  24  25
HETATM   25  C   UNL     1      -9.685  12.642  67.585  1.00  0.00    -0.197 A  
HETATM   26  C   UNL     1      -9.609  10.378  68.331  1.00  0.00    -0.153 A  
HETATM   27  C   UNL     1     -10.313  11.577  68.205  1.00  0.00    -0.211 A  
HETATM   28  C   UNL     1      -8.285  10.266  67.876  1.00  0.00    -0.109 A  
HETATM   29  N   UNL     1      -8.468  12.523  66.999  1.00  0.00    -0.180 NA 
HETATM   30  C   UNL     1      -7.803  11.362  67.163  1.00  0.00    -0.156 A  
BRANCH  28  31
HETATM   31  C   UNL     1      -7.404   9.148  68.257  1.00  0.00    -0.079 A  
HETATM   32  C   UNL     1      -6.985   9.005  69.595  1.00  0.00    -0.054 A  
HETATM   33  C   UNL     1      -6.038   8.052  69.953  1.00  0.00    -0.026 A  
HETATM   34  C   UNL     1      -5.473   7.216  69.005  1.00  0.00    -0.018 A  
HETATM   35  F   UNL     1      -5.647   7.968  71.231  1.00  0.00    -0.033 F  
HETATM   36  C   UNL     1      -5.882   7.318  67.679  1.00  0.00    -0.030 A  
HETATM   37  C   UNL     1      -6.843   8.266  67.312  1.00  0.00    -0.070 A  
ENDBRANCH  28  31
ENDBRANCH  24  25
ENDBRANCH  14  23
TORSDOF 6
ENDMDL
MODEL       89
REMARK 921   NORMALIZED FREE ENERGY PREDICTED BY IDOCK:   37.39 KCAL/MOL
REMARK 922        TOTAL FREE ENERGY PREDICTED BY IDOCK:   49.14 KCAL/MOL
REMARK 923 INTER-LIGAND FREE ENERGY PREDICTED BY IDOCK:   48.58 KCAL/MOL
REMARK 924 INTRA-LIGAND FREE ENERGY PREDICTED BY IDOCK:    0.56 KCAL/MOL
REMARK 927      BINDING AFFINITY PREDICTED BY RF-SCORE:    0.00 PKD
ROOT
HETATM    1  C   UNL     1     -12.796  16.061  65.509  1.00  0.00     2.768 C  
HETATM    2  C   UNL     1     -13.380  16.686  66.773  1.00  0.00     7.620 C  
HETATM    3  C   UNL     1     -13.657  15.662  67.908  1.00  0.00     5.874 C  
HETATM    4  C   UNL     1     -13.215  16.229  69.286  1.00  0.00     2.911 C  
HETATM    5  C   UNL     1     -13.280  15.222  70.460  1.00  0.00    -0.236 C  
HETATM    6  C   UNL     1     -12.885  14.475  63.812  1.00  0.00     0.931 C  
HETATM    7  C   UNL     1     -12.792  13.809  70.118  1.00  0.00    -0.017 C  
HETATM    8  C   UNL     1     -13.366  14.681  65.239  1.00  0.00     0.733 C  
HETATM    9  C   UNL     1     -13.372  13.328  68.798  1.00  0.00     3.724 C  
HETATM   10  C   UNL     1     -13.576  13.357  63.054  1.00  0.00     3.874 C  
HETATM   11  O   UNL     1     -13.151  15.751  63.209  1.00  0.00     0.777 OA 
HETATM   12  C   UNL     1     -12.931  14.316  67.712  1.00  0.00     1.887 C  
HETATM   13  C   UNL     1     -13.097  16.716  64.188  1.00  0.00     4.857 C  
HETATM   14  C   UNL     1     -12.939  13.675  66.296  1.00  0.00     0.230 C  
HETATM   15  O   UNL     1     -13.229  17.907  63.993  1.00  0.00    10.093 OA 
ENDROOT
BRANCH   5  16
HETATM   16  N   UNL     1     -12.515  15.716  71.591  1.00  0.00    -0.405 N  
HETATM   17  H   UNL     1     -13.015  16.029  72.423  1.00  0.00     0.000 HD 
HETATM   18  C   UNL     1     -11.156  15.778  71.580  1.00  0.00    -0.056 C  
HETATM   19  O   UNL     1     -10.437  15.349  70.692  1.00  0.00    -0.251 OA 
BRANCH  18  20
HETATM   20  O   UNL     1     -10.733  16.331  72.743  1.00  0.00     1.926 OA 
BRANCH  20  21
HETATM   21  C   UNL     1     -11.736  16.396  73.765  1.00  0.00     0.143 C  
HETATM   22  C   UNL     1     -11.744  17.808  74.326  1.00  0.00     0.562 C  
ENDBRANCH  20  21
ENDBRANCH  18  20
ENDBRANCH   5  16
BRANCH  14  23
HETATM   23  C   UNL     1     -11.511  13.232  66.093  1.00  0.00    -0.359 C  
HETATM   24  C   UNL     1     -10.797  13.242  64.960  1.00  0.00    -0.335 C  
BRANCH  24  25
HETATM   25  C   UNL     1      -9.595  12.399  64.867  1.00  0.00     0.113 A  
HETATM   26  C   UNL     1      -7.982  11.254  63.535  1.00  0.00     0.757 A  
HETATM   27  C   UNL     1      -8.876  12.315  63.688  1.00  0.00     1.472 A  
HETATM   28  C   UNL     1      -7.845  10.275  64.533  1.00  0.00    -0.116 A  
HETATM   29  N   UNL     1      -9.375  11.561  65.911  1.00  0.00    -0.225 NA 
HETATM   30  C   UNL     1      -8.527  10.531  65.720  1.00  0.00    -0.175 A  
BRANCH  28  31
HETATM   31  C   UNL     1      -7.165   8.988  64.299  1.00  0.00    -0.091 A  
HETATM   32  C   UNL     1      -7.826   7.778  64.589  1.00  0.00    -0.130 A  
HETATM   33  C   UNL     1      -7.159   6.561  64.520  1.00  0.00    -0.060 A  
HETATM   34  C   UNL     1      -5.822   6.499  64.167  1.00  0.00    -0.030 A  
HETATM   35  F   UNL     1      -7.817   5.437  64.830  1.00  0.00    -0.083 F  
HETATM   36  C   UNL     1      -5.147   7.674  63.853  1.00  0.00    -0.033 A  
HETATM   37  C   UNL     1      -5.814   8.903  63.909  1.00  0.00    -0.071 A  
ENDBRANCH  28  31
ENDBRANCH  24  25
ENDBRANCH  14  23
TORSDOF 6
ENDMDL
MODEL       90
REMARK 921   NORMALIZED FREE ENERGY PREDICTED BY IDOCK:   39.84 KCAL/MOL
REMARK 922        TOTAL FREE ENERGY PREDICTED BY IDOCK:   52.46 KCAL/MOL
REMARK 923 INTER-LIGAND FREE ENERGY PREDICTED BY IDOCK:   51.71 KCAL/MOL
REMARK 924 INTRA-LIGAND FREE ENERGY PREDICTED BY IDOCK:    0.75 KCAL/MOL
REMARK 927      BINDING AFFINITY PREDICTED BY RF-SCORE:    0.00 PKD
ROOT
HETATM    1  C   UNL     1      -7.684  14.342  66.197  1.00  0.00     2.458 C  
HETATM    2  C   UNL     1      -7.613  15.832  66.520  1.00  0.00     0.077 C  
HETATM    3  C   UNL     1      -8.949  16.424  67.046  1.00  0.00    -0.232 C  
HETATM    4  C   UNL     1      -8.696  17.388  68.240  1.00  0.00    -0.261 C  
HETATM    5  C   UNL     1      -9.973  17.893  68.954  1.00  0.00    -0.334 C  
HETATM    6  C   UNL     1      -8.697  12.557  65.107  1.00  0.00     1.437 C  
HETATM    7  C   UNL     1     -11.057  16.827  69.158  1.00  0.00    -0.141 C  
HETATM    8  C   UNL     1      -9.031  13.946  65.623  1.00  0.00     0.881 C  
HETATM    9  C   UNL     1     -11.281  16.018  67.892  1.00  0.00    -0.276 C  
HETATM   10  C   UNL     1      -9.696  11.976  64.125  1.00  0.00    -0.123 C  
HETATM   11  O   UNL     1      -7.417  12.758  64.486  1.00  0.00     6.172 OA 
HETATM   12  C   UNL     1      -9.949  15.353  67.525  1.00  0.00    -0.226 C  
HETATM   13  C   UNL     1      -6.786  13.806  65.115  1.00  0.00    12.719 C  
HETATM   14  C   UNL     1     -10.147  14.086  66.648  1.00  0.00    -0.276 C  
HETATM   15  O   UNL     1      -5.665  14.193  64.857  1.00  0.00    13.976 OA 
ENDROOT
BRANCH   5  16
HETATM   16  N   UNL     1      -9.635  18.465  70.245  1.00  0.00     1.666 N  
HETATM   17  H   UNL     1      -8.763  18.182  70.695  1.00  0.00     0.000 HD 
HETATM   18  C   UNL     1     -10.437  19.362  70.878  1.00  0.00     2.283 C  
HETATM   19  O   UNL     1     -11.452  19.854  70.410  1.00  0.00     3.864 OA 
BRANCH  18  20
HETATM   20  O   UNL     1      -9.891  19.669  72.080  1.00  0.00     2.398 OA 
BRANCH  20  21
HETATM   21  C   UNL     1      -8.605  20.296  72.000  1.00  0.00     2.451 C  
HETATM   22  C   UNL     1      -7.961  19.882  70.687  1.00  0.00     1.459 C  
ENDBRANCH  20  21
ENDBRANCH  18  20
ENDBRANCH   5  16
BRANCH  14  23
HETATM   23  C   UNL     1     -10.128  12.953  67.642  1.00  0.00    -0.221 C  
HETATM   24  C   UNL     1     -10.217  13.023  68.977  1.00  0.00     0.097 C  
BRANCH  24  25
HETATM   25  C   UNL     1      -9.764  11.879  69.784  1.00  0.00     1.635 A  
HETATM   26  C   UNL     1      -8.286  10.034  70.094  1.00  0.00    -0.072 A  
HETATM   27  C   UNL     1      -8.522  11.308  69.575  1.00  0.00     0.535 A  
HETATM   28  C   UNL     1      -9.294   9.333  70.777  1.00  0.00    -0.322 A  
HETATM   29  N   UNL     1     -10.706  11.297  70.569  1.00  0.00     0.933 NA 
HETATM   30  C   UNL     1     -10.457  10.056  71.031  1.00  0.00     0.166 A  
BRANCH  28  31
HETATM   31  C   UNL     1      -9.205   7.891  71.067  1.00  0.00    -0.164 A  
HETATM   32  C   UNL     1      -8.869   7.452  72.363  1.00  0.00    -0.151 A  
HETATM   33  C   UNL     1      -8.633   6.108  72.627  1.00  0.00    -0.124 A  
HETATM   34  C   UNL     1      -8.715   5.158  71.624  1.00  0.00    -0.140 A  
HETATM   35  F   UNL     1      -8.289   5.736  73.867  1.00  0.00    -0.112 F  
HETATM   36  C   UNL     1      -9.066   5.557  70.338  1.00  0.00    -0.164 A  
HETATM   37  C   UNL     1      -9.318   6.907  70.066  1.00  0.00    -0.158 A  
ENDBRANCH  28  31
ENDBRANCH  24  25
ENDBRANCH  14  23
TORSDOF 6
ENDMDL
MODEL       91
REMARK 921   NORMALIZED FREE ENERGY PREDICTED BY IDOCK:   39.86 KCAL/MOL
REMARK 922        TOTAL FREE ENERGY PREDICTED BY IDOCK:   52.48 KCAL/MOL
REMARK 923 INTER-LIGAND FREE ENERGY PREDICTED BY IDOCK:   52.50 KCAL/MOL
REMARK 924 INTRA-LIGAND FREE ENERGY PREDICTED BY IDOCK:   -0.01 KCAL/MOL
REMARK 927      BINDING AFFINITY PREDICTED BY RF-SCORE:    0.00 PKD
ROOT
HETATM    1  C   UNL     1     -10.159  13.918  72.164  1.00  0.00     7.645 C  
HETATM    2  C   UNL     1     -10.247  12.453  71.745  1.00  0.00    12.024 C  
HETATM    3  C   UNL     1     -11.437  12.143  70.795  1.00  0.00     0.914 C  
HETATM    4  C   UNL     1     -10.998  11.190  69.649  1.00  0.00    -0.254 C  
HETATM    5  C   UNL     1     -12.060  10.960  68.546  1.00  0.00     0.076 C  
HETATM    6  C   UNL     1     -11.138  15.825  73.061  1.00  0.00     1.049 C  
HETATM    7  C   UNL     1     -12.830  12.219  68.127  1.00  0.00     2.462 C  
HETATM    8  C   UNL     1     -11.529  14.543  72.346  1.00  0.00     0.560 C  
HETATM    9  C   UNL     1     -13.291  13.013  69.337  1.00  0.00     2.654 C  
HETATM   10  C   UNL     1     -12.276  16.552  73.751  1.00  0.00    -0.480 C  
HETATM   11  O   UNL     1     -10.165  15.365  74.012  1.00  0.00     5.152 OA 
HETATM   12  C   UNL     1     -12.043  13.400  70.140  1.00  0.00    -0.415 C  
HETATM   13  C   UNL     1      -9.560  14.237  73.506  1.00  0.00     9.146 C  
HETATM   14  C   UNL     1     -12.282  14.652  71.029  1.00  0.00    -0.399 C  
HETATM   15  O   UNL     1      -8.656  13.635  74.049  1.00  0.00     7.423 OA 
ENDROOT
BRANCH   5  16
HETATM   16  N   UNL     1     -11.444  10.378  67.367  1.00  0.00    -0.163 N  
HETATM   17  H   UNL     1     -10.935   9.499  67.461  1.00  0.00     0.000 HD 
HETATM   18  C   UNL     1     -11.521  10.963  66.141  1.00  0.00     0.580 C  
HETATM   19  O   UNL     1     -12.176  11.958  65.873  1.00  0.00    -0.435 OA 
BRANCH  18  20
HETATM   20  O   UNL     1     -10.807  10.224  65.257  1.00  0.00     0.101 OA 
BRANCH  20  21
HETATM   21  C   UNL     1     -10.498   8.900  65.709  1.00  0.00     1.085 C  
HETATM   22  C   UNL     1      -8.986   8.765  65.771  1.00  0.00    -0.253 C  
ENDBRANCH  20  21
ENDBRANCH  18  20
ENDBRANCH   5  16
BRANCH  14  23
HETATM   23  C   UNL     1     -11.764  15.794  70.191  1.00  0.00    -0.367 C  
HETATM   24  C   UNL     1     -12.458  16.605  69.382  1.00  0.00     1.927 C  
BRANCH  24  25
HETATM   25  C   UNL     1     -11.740  17.366  68.348  1.00  0.00     1.258 A  
HETATM   26  C   UNL     1     -10.215  17.419  66.515  1.00  0.00    -0.329 A  
HETATM   27  C   UNL     1     -11.173  16.728  67.259  1.00  0.00     0.204 A  
HETATM   28  C   UNL     1      -9.808  18.712  66.883  1.00  0.00    -0.356 A  
HETATM   29  N   UNL     1     -11.485  18.667  68.639  1.00  0.00     1.776 NA 
HETATM   30  C   UNL     1     -10.534  19.295  67.918  1.00  0.00    -0.410 A  
BRANCH  28  31
HETATM   31  C   UNL     1      -8.601  19.353  66.333  1.00  0.00    -0.372 A  
HETATM   32  C   UNL     1      -7.443  18.586  66.092  1.00  0.00    -0.282 A  
HETATM   33  C   UNL     1      -6.248  19.189  65.717  1.00  0.00    -0.214 A  
HETATM   34  C   UNL     1      -6.156  20.563  65.573  1.00  0.00    -0.261 A  
HETATM   35  F   UNL     1      -5.164  18.427  65.524  1.00  0.00    -0.157 F  
HETATM   36  C   UNL     1      -7.287  21.346  65.783  1.00  0.00     1.161 A  
HETATM   37  C   UNL     1      -8.497  20.746  66.149  1.00  0.00     0.450 A  
ENDBRANCH  28  31
ENDBRANCH  24  25
ENDBRANCH  14  23
TORSDOF 6
ENDMDL
MODEL       92
REMARK 921   NORMALIZED FREE ENERGY PREDICTED BY IDOCK:   43.32 KCAL/MOL
REMARK 922        TOTAL FREE ENERGY PREDICTED BY IDOCK:   57.16 KCAL/MOL
REMARK 923 INTER-LIGAND FREE ENERGY PREDICTED BY IDOCK:   56.93 KCAL/MOL
REMARK 924 INTRA-LIGAND FREE ENERGY PREDICTED BY IDOCK:    0.22 KCAL/MOL
REMARK 927      BINDING AFFINITY PREDICTED BY RF-SCORE:    0.00 PKD
ROOT
HETATM    1  C   UNL     1      -9.849  14.955  67.996  1.00  0.00    -0.216 C  
HETATM    2  C   UNL     1      -9.377  14.955  69.448  1.00  0.00    -0.054 C  
HETATM    3  C   UNL     1      -9.892  13.745  70.274  1.00  0.00     2.494 C  
HETATM    4  C   UNL     1      -8.764  13.167  71.174  1.00  0.00    10.883 C  
HETATM    5  C   UNL     1      -9.120  11.850  71.905  1.00  0.00    17.850 C  
HETATM    6  C   UNL     1     -11.560  14.842  66.428  1.00  0.00    -0.238 C  
HETATM    7  C   UNL     1      -9.898  10.837  71.055  1.00  0.00     3.257 C  
HETATM    8  C   UNL     1     -11.259  14.415  67.855  1.00  0.00    -0.304 C  
HETATM    9  C   UNL     1     -11.035  11.506  70.302  1.00  0.00     0.530 C  
HETATM   10  C   UNL     1     -13.026  14.811  66.041  1.00  0.00     0.671 C  
HETATM   11  O   UNL     1     -11.044  16.182  66.391  1.00  0.00    -0.110 OA 
HETATM   12  C   UNL     1     -10.423  12.588  69.404  1.00  0.00     0.320 C  
HETATM   13  C   UNL     1     -10.020  16.281  67.305  1.00  0.00    -0.250 C  
HETATM   14  C   UNL     1     -11.335  12.935  68.195  1.00  0.00    -0.327 C  
HETATM   15  O   UNL     1      -9.344  17.273  67.481  1.00  0.00    -0.233 OA 
ENDROOT
BRANCH   5  16
HETATM   16  N   UNL     1      -7.916  11.209  72.403  1.00  0.00    10.781 N  
HETATM   17  H   UNL     1      -7.378  11.676  73.134  1.00  0.00     0.000 HD 
HETATM   18  C   UNL     1      -7.478  10.011  71.931  1.00  0.00     2.398 C  
HETATM   19  O   UNL     1      -8.075   9.307  71.132  1.00  0.00    -0.298 OA 
BRANCH  18  20
HETATM   20  O   UNL     1      -6.309   9.699  72.541  1.00  0.00    -0.190 OA 
BRANCH  20  21
HETATM   21  C   UNL     1      -5.142  10.177  71.861  1.00  0.00    -0.059 C  
HETATM   22  C   UNL     1      -5.364  10.002  70.368  1.00  0.00    -0.047 C  
ENDBRANCH  20  21
ENDBRANCH  18  20
ENDBRANCH   5  16
BRANCH  14  23
HETATM   23  C   UNL     1     -10.792  12.082  67.077  1.00  0.00    -0.297 C  
HETATM   24  C   UNL     1     -11.396  11.070  66.441  1.00  0.00     0.097 C  
BRANCH  24  25
HETATM   25  C   UNL     1     -10.576  10.107  65.689  1.00  0.00     0.089 A  
HETATM   26  C   UNL     1     -10.315   7.950  64.707  1.00  0.00     5.263 A  
HETATM   27  C   UNL     1     -11.150   9.002  65.087  1.00  0.00     5.407 A  
HETATM   28  C   UNL     1      -8.935   7.993  64.965  1.00  0.00     0.246 A  
HETATM   29  N   UNL     1      -9.232  10.249  65.813  1.00  0.00    -0.166 NA 
HETATM   30  C   UNL     1      -8.457   9.203  65.463  1.00  0.00    -0.147 A  
BRANCH  28  31
HETATM   31  C   UNL     1      -8.070   6.803  64.873  1.00  0.00    -0.112 A  
HETATM   32  C   UNL     1      -8.349   5.800  63.923  1.00  0.00    -0.027 A  
HETATM   33  C   UNL     1      -7.643   4.603  63.915  1.00  0.00    -0.071 A  
HETATM   34  C   UNL     1      -6.645   4.356  64.843  1.00  0.00    -0.044 A  
HETATM   35  F   UNL     1      -7.958   3.665  63.013  1.00  0.00    -0.067 F  
HETATM   36  C   UNL     1      -6.331   5.335  65.780  1.00  0.00    -0.035 A  
HETATM   37  C   UNL     1      -7.029   6.548  65.788  1.00  0.00    -0.061 A  
ENDBRANCH  28  31
ENDBRANCH  24  25
ENDBRANCH  14  23
TORSDOF 6
ENDMDL
MODEL       93
REMARK 921   NORMALIZED FREE ENERGY PREDICTED BY IDOCK:   46.19 KCAL/MOL
REMARK 922        TOTAL FREE ENERGY PREDICTED BY IDOCK:   61.03 KCAL/MOL
REMARK 923 INTER-LIGAND FREE ENERGY PREDICTED BY IDOCK:   58.61 KCAL/MOL
REMARK 924 INTRA-LIGAND FREE ENERGY PREDICTED BY IDOCK:    2.42 KCAL/MOL
REMARK 927      BINDING AFFINITY PREDICTED BY RF-SCORE:    0.00 PKD
ROOT
HETATM    1  C   UNL     1      -9.059  17.925  69.688  1.00  0.00     0.888 C  
HETATM    2  C   UNL     1      -9.573  18.479  68.362  1.00  0.00    -0.383 C  
HETATM    3  C   UNL     1      -9.014  17.741  67.115  1.00  0.00    -0.249 C  
HETATM    4  C   UNL     1     -10.135  17.504  66.063  1.00  0.00    -0.270 C  
HETATM    5  C   UNL     1      -9.726  16.619  64.861  1.00  0.00     1.667 C  
HETATM    6  C   UNL     1      -7.297  17.299  71.069  1.00  0.00     4.837 C  
HETATM    7  C   UNL     1      -8.866  15.402  65.225  1.00  0.00     1.693 C  
HETATM    8  C   UNL     1      -7.616  17.465  69.592  1.00  0.00     0.589 C  
HETATM    9  C   UNL     1      -7.747  15.782  66.179  1.00  0.00     0.792 C  
HETATM   10  C   UNL     1      -5.820  17.209  71.404  1.00  0.00     1.089 C  
HETATM   11  O   UNL     1      -7.888  18.474  71.646  1.00  0.00     6.414 OA 
HETATM   12  C   UNL     1      -8.393  16.369  67.440  1.00  0.00    -0.183 C  
HETATM   13  C   UNL     1      -8.942  18.867  70.854  1.00  0.00     4.188 C  
HETATM   14  C   UNL     1      -7.465  16.256  68.682  1.00  0.00    -0.185 C  
HETATM   15  O   UNL     1      -9.679  19.800  71.098  1.00  0.00     1.371 OA 
ENDROOT
BRANCH   5  16
HETATM   16  N   UNL     1     -10.906  16.158  64.151  1.00  0.00    -0.095 N  
HETATM   17  H   UNL     1     -11.420  16.820  63.570  1.00  0.00     0.000 HD 
HETATM   18  C   UNL     1     -11.351  14.875  64.233  1.00  0.00    -0.072 C  
HETATM   19  O   UNL     1     -10.779  13.965  64.812  1.00  0.00    -0.382 OA 
BRANCH  18  20
HETATM   20  O   UNL     1     -12.495  14.760  63.514  1.00  0.00    -0.642 OA 
BRANCH  20  21
HETATM   21  C   UNL     1     -13.505  15.717  63.857  1.00  0.00     3.016 C  
HETATM   22  C   UNL     1     -12.867  16.780  64.736  1.00  0.00     4.826 C  
ENDBRANCH  20  21
ENDBRANCH  18  20
ENDBRANCH   5  16
BRANCH  14  23
HETATM   23  C   UNL     1      -7.926  14.991  69.362  1.00  0.00    -0.170 C  
HETATM   24  C   UNL     1      -7.215  13.886  69.619  1.00  0.00     0.233 C  
BRANCH  24  25
HETATM   25  C   UNL     1      -7.926  12.629  69.900  1.00  0.00     2.169 A  
HETATM   26  C   UNL     1      -9.936  11.346  69.857  1.00  0.00     1.051 A  
HETATM   27  C   UNL     1      -9.141  12.350  69.301  1.00  0.00     0.908 A  
HETATM   28  C   UNL     1      -9.532  10.663  71.016  1.00  0.00     3.325 A  
HETATM   29  N   UNL     1      -7.437  11.887  70.925  1.00  0.00     3.560 NA 
HETATM   30  C   UNL     1      -8.241  10.944  71.456  1.00  0.00     6.999 A  
BRANCH  28  31
HETATM   31  C   UNL     1     -10.452   9.831  71.811  1.00  0.00     0.710 A  
HETATM   32  C   UNL     1     -10.767   8.524  71.386  1.00  0.00    -0.317 A  
HETATM   33  C   UNL     1     -11.743   7.775  72.033  1.00  0.00    -0.304 A  
HETATM   34  C   UNL     1     -12.440   8.290  73.113  1.00  0.00     0.763 A  
HETATM   35  F   UNL     1     -12.031   6.548  71.580  1.00  0.00    -0.337 F  
HETATM   36  C   UNL     1     -12.136   9.568  73.570  1.00  0.00     4.962 A  
HETATM   37  C   UNL     1     -11.147  10.325  72.932  1.00  0.00     6.147 A  
ENDBRANCH  28  31
ENDBRANCH  24  25
ENDBRANCH  14  23
TORSDOF 6
ENDMDL
MODEL       94
REMARK 921   NORMALIZED FREE ENERGY PREDICTED BY IDOCK:   81.21 KCAL/MOL
REMARK 922        TOTAL FREE ENERGY PREDICTED BY IDOCK:  108.33 KCAL/MOL
REMARK 923 INTER-LIGAND FREE ENERGY PREDICTED BY IDOCK:  109.12 KCAL/MOL
REMARK 924 INTRA-LIGAND FREE ENERGY PREDICTED BY IDOCK:   -0.79 KCAL/MOL
REMARK 927      BINDING AFFINITY PREDICTED BY RF-SCORE:    0.00 PKD
ROOT
HETATM    1  C   UNL     1     -11.243  16.213  71.677  1.00  0.00    -0.063 C  
HETATM    2  C   UNL     1     -10.690  17.490  71.051  1.00  0.00     1.889 C  
HETATM    3  C   UNL     1      -9.559  17.242  70.015  1.00  0.00     1.292 C  
HETATM    4  C   UNL     1      -9.743  18.148  68.766  1.00  0.00    -0.337 C  
HETATM    5  C   UNL     1      -8.773  17.854  67.595  1.00  0.00    -0.242 C  
HETATM    6  C   UNL     1     -10.909  14.201  72.791  1.00  0.00     3.917 C  
HETATM    7  C   UNL     1      -8.531  16.363  67.325  1.00  0.00    -0.196 C  
HETATM    8  C   UNL     1     -10.164  15.166  71.885  1.00  0.00     2.006 C  
HETATM    9  C   UNL     1      -8.265  15.604  68.614  1.00  0.00    -0.168 C  
HETATM   10  C   UNL     1     -10.036  13.202  73.526  1.00  0.00    15.552 C  
HETATM   11  O   UNL     1     -11.570  15.085  73.710  1.00  0.00    -0.174 OA 
HETATM   12  C   UNL     1      -9.490  15.784  69.518  1.00  0.00    -0.248 C  
HETATM   13  C   UNL     1     -11.789  16.287  73.077  1.00  0.00    -0.401 C  
HETATM   14  C   UNL     1      -9.621  14.643  70.564  1.00  0.00     1.452 C  
HETATM   15  O   UNL     1     -12.374  17.231  73.569  1.00  0.00     0.302 OA 
ENDROOT
BRANCH   5  16
HETATM   16  N   UNL     1      -9.255  18.475  66.374  1.00  0.00    -0.300 N  
HETATM   17  H   UNL     1      -9.696  17.888  65.665  1.00  0.00     0.000 HD 
HETATM   18  C   UNL     1      -9.139  19.810  66.141  1.00  0.00    -0.343 C  
HETATM   19  O   UNL     1      -8.722  20.632  66.940  1.00  0.00    -0.233 OA 
BRANCH  18  20
HETATM   20  O   UNL     1      -9.622  20.082  64.904  1.00  0.00     0.617 OA 
BRANCH  20  21
HETATM   21  C   UNL     1     -10.847  19.409  64.588  1.00  0.00     2.653 C  
HETATM   22  C   UNL     1     -11.934  19.959  65.497  1.00  0.00     3.200 C  
ENDBRANCH  20  21
ENDBRANCH  18  20
ENDBRANCH   5  16
BRANCH  14  23
HETATM   23  C   UNL     1     -10.577  13.671  69.920  1.00  0.00     0.648 C  
HETATM   24  C   UNL     1     -10.558  12.333  69.977  1.00  0.00     1.241 C  
BRANCH  24  25
HETATM   25  C   UNL     1     -11.300  11.565  68.965  1.00  0.00    -0.276 A  
HETATM   26  C   UNL     1     -11.309   9.990  67.174  1.00  0.00     0.393 A  
HETATM   27  C   UNL     1     -10.735  10.458  68.357  1.00  0.00    -0.263 A  
HETATM   28  C   UNL     1     -12.408  10.646  66.595  1.00  0.00     4.133 A  
HETATM   29  N   UNL     1     -12.450  12.128  68.518  1.00  0.00     0.120 NA 
HETATM   30  C   UNL     1     -12.963  11.670  67.358  1.00  0.00     4.736 A  
BRANCH  28  31
HETATM   31  C   UNL     1     -12.850  10.390  65.212  1.00  0.00     8.886 A  
HETATM   32  C   UNL     1     -12.184   9.429  64.426  1.00  0.00    13.162 A  
HETATM   33  C   UNL     1     -12.482   9.274  63.077  1.00  0.00    15.507 A  
HETATM   34  C   UNL     1     -13.439  10.062  62.462  1.00  0.00     9.727 A  
HETATM   35  F   UNL     1     -11.806   8.367  62.359  1.00  0.00    11.060 F  
HETATM   36  C   UNL     1     -14.130  11.006  63.216  1.00  0.00     4.502 A  
HETATM   37  C   UNL     1     -13.844  11.160  64.578  1.00  0.00     5.368 A  
ENDBRANCH  28  31
ENDBRANCH  24  25
ENDBRANCH  14  23
TORSDOF 6
ENDMDL
MODEL       95
REMARK 921   NORMALIZED FREE ENERGY PREDICTED BY IDOCK:  100.95 KCAL/MOL
REMARK 922        TOTAL FREE ENERGY PREDICTED BY IDOCK:  135.00 KCAL/MOL
REMARK 923 INTER-LIGAND FREE ENERGY PREDICTED BY IDOCK:  135.39 KCAL/MOL
REMARK 924 INTRA-LIGAND FREE ENERGY PREDICTED BY IDOCK:   -0.39 KCAL/MOL
REMARK 927      BINDING AFFINITY PREDICTED BY RF-SCORE:    0.00 PKD
ROOT
HETATM    1  C   UNL     1      -9.904  15.869  68.305  1.00  0.00    -0.217 C  
HETATM    2  C   UNL     1      -9.281  15.692  69.687  1.00  0.00    -0.189 C  
HETATM    3  C   UNL     1      -9.996  14.630  70.566  1.00  0.00     1.022 C  
HETATM    4  C   UNL     1      -8.963  13.745  71.318  1.00  0.00     8.210 C  
HETATM    5  C   UNL     1      -9.565  12.541  72.081  1.00  0.00    19.452 C  
HETATM    6  C   UNL     1     -11.757  16.265  66.959  1.00  0.00     0.797 C  
HETATM    7  C   UNL     1     -10.678  11.798  71.330  1.00  0.00     4.886 C  
HETATM    8  C   UNL     1     -11.413  15.722  68.336  1.00  0.00    -0.367 C  
HETATM    9  C   UNL     1     -11.678  12.768  70.726  1.00  0.00     0.368 C  
HETATM   10  C   UNL     1     -13.214  16.632  66.756  1.00  0.00     7.014 C  
HETATM   11  O   UNL     1     -10.913  17.423  66.864  1.00  0.00    -0.079 OA 
HETATM   12  C   UNL     1     -10.912  13.685  69.764  1.00  0.00     0.112 C  
HETATM   13  C   UNL     1      -9.799  17.217  67.646  1.00  0.00    -0.270 C  
HETATM   14  C   UNL     1     -11.837  14.301  68.678  1.00  0.00    -0.379 C  
HETATM   15  O   UNL     1      -8.869  17.991  67.740  1.00  0.00    -0.249 OA 
ENDROOT
BRANCH   5  16
HETATM   16  N   UNL     1      -8.523  11.590  72.425  1.00  0.00    15.832 N  
HETATM   17  H   UNL     1      -8.457  11.260  73.388  1.00  0.00     0.000 HD 
HETATM   18  C   UNL     1      -7.631  11.123  71.510  1.00  0.00     6.296 C  
HETATM   19  O   UNL     1      -7.659  11.361  70.313  1.00  0.00     0.712 OA 
BRANCH  18  20
HETATM   20  O   UNL     1      -6.752  10.302  72.133  1.00  0.00     0.855 OA 
BRANCH  20  21
HETATM   21  C   UNL     1      -5.589  10.963  72.647  1.00  0.00     0.980 C  
HETATM   22  C   UNL     1      -5.160  12.013  71.635  1.00  0.00    -0.009 C  
ENDBRANCH  20  21
ENDBRANCH  18  20
ENDBRANCH   5  16
BRANCH  14  23
HETATM   23  C   UNL     1     -11.674  13.377  67.498  1.00  0.00    -0.406 C  
HETATM   24  C   UNL     1     -12.615  12.654  66.879  1.00  0.00     0.936 C  
BRANCH  24  25
HETATM   25  C   UNL     1     -12.206  11.516  66.040  1.00  0.00     1.405 A  
HETATM   26  C   UNL     1     -12.788   9.669  64.649  1.00  0.00    14.365 A  
HETATM   27  C   UNL     1     -13.088  10.939  65.145  1.00  0.00     6.442 A  
HETATM   28  C   UNL     1     -11.642   8.978  65.076  1.00  0.00     9.236 A  
HETATM   29  N   UNL     1     -11.016  10.945  66.355  1.00  0.00    -0.153 NA 
HETATM   30  C   UNL     1     -10.770   9.707  65.882  1.00  0.00     0.513 A  
BRANCH  28  31
HETATM   31  C   UNL     1     -11.443   7.538  64.833  1.00  0.00    11.987 A  
HETATM   32  C   UNL     1     -10.170   7.055  64.466  1.00  0.00     5.422 A  
HETATM   33  C   UNL     1      -9.988   5.731  64.087  1.00  0.00     2.323 A  
HETATM   34  C   UNL     1     -11.051   4.844  64.052  1.00  0.00     1.477 A  
HETATM   35  F   UNL     1      -8.768   5.318  63.720  1.00  0.00    -0.141 F  
HETATM   36  C   UNL     1     -12.316   5.286  64.429  1.00  0.00     5.295 A  
HETATM   37  C   UNL     1     -12.506   6.615  64.824  1.00  0.00    11.916 A  
ENDBRANCH  28  31
ENDBRANCH  24  25
ENDBRANCH  14  23
TORSDOF 6
ENDMDL
