MODEL        1
REMARK 921   NORMALIZED FREE ENERGY PREDICTED BY IDOCK:   -6.30 KCAL/MOL
REMARK 922        TOTAL FREE ENERGY PREDICTED BY IDOCK:  -10.04 KCAL/MOL
REMARK 923 INTER-LIGAND FREE ENERGY PREDICTED BY IDOCK:   -9.25 KCAL/MOL
REMARK 924 INTRA-LIGAND FREE ENERGY PREDICTED BY IDOCK:   -0.79 KCAL/MOL
REMARK 927      BINDING AFFINITY PREDICTED BY RF-SCORE:    0.00 PKD
ROOT
HETATM    1  O   UNL     1     -11.586  16.351  63.752  1.00  0.00    -1.605 OA 
HETATM    2  N   UNL     1     -12.481  15.281  63.908  1.00  0.00    -0.983 N  
HETATM    3  H   UNL     1     -11.894  17.185  63.417  1.00  0.00     0.000 HD 
HETATM    4  C   UNL     1     -12.039  14.082  64.390  1.00  0.00    -0.458 C  
HETATM    5  H   UNL     1     -13.464  15.400  63.661  1.00  0.00     0.000 HD 
HETATM    6  O   UNL     1     -12.824  13.149  64.545  1.00  0.00    -0.680 OA 
ENDROOT
BRANCH   4   7
HETATM    7  C   UNL     1     -10.557  13.997  64.701  1.00  0.00    -0.416 C  
BRANCH   7   8
HETATM    8  C   UNL     1     -10.294  13.838  66.195  1.00  0.00    -0.301 C  
BRANCH   8   9
HETATM    9  C   UNL     1     -10.172  15.195  66.878  1.00  0.00    -0.259 C  
BRANCH   9  10
HETATM   10  C   UNL     1     -11.328  15.436  67.854  1.00  0.00    -0.328 C  
BRANCH  10  11
HETATM   11  C   UNL     1     -12.014  14.115  68.162  1.00  0.00    -0.367 C  
BRANCH  11  12
HETATM   12  C   UNL     1     -11.968  13.713  69.639  1.00  0.00    -0.402 C  
BRANCH  12  13
HETATM   13  C   UNL     1     -12.019  12.195  69.725  1.00  0.00    -0.302 C  
HETATM   14  N   UNL     1     -12.036  11.702  71.018  1.00  0.00    -0.337 N  
HETATM   15  O   UNL     1     -12.061  11.513  68.702  1.00  0.00    -0.483 OA 
HETATM   16  H   UNL     1     -11.991  12.373  71.785  1.00  0.00     0.000 HD 
BRANCH  14  17
HETATM   17  C   UNL     1     -12.113  10.325  71.343  1.00  0.00    -0.362 A  
HETATM   18  C   UNL     1     -11.018   9.461  71.245  1.00  0.00    -0.440 A  
HETATM   19  C   UNL     1     -11.158   8.091  71.467  1.00  0.00    -0.290 A  
HETATM   20  C   UNL     1     -12.398   7.571  71.817  1.00  0.00    -0.357 A  
HETATM   21  C   UNL     1     -13.486   8.428  71.978  1.00  0.00    -0.375 A  
HETATM   22  C   UNL     1     -13.344   9.803  71.753  1.00  0.00    -0.506 A  
ENDBRANCH  14  17
ENDBRANCH  12  13
ENDBRANCH  11  12
ENDBRANCH  10  11
ENDBRANCH   9  10
ENDBRANCH   8   9
ENDBRANCH   7   8
ENDBRANCH   4   7
TORSDOF 8
ENDMDL
MODEL        2
REMARK 921   NORMALIZED FREE ENERGY PREDICTED BY IDOCK:   -6.28 KCAL/MOL
REMARK 922        TOTAL FREE ENERGY PREDICTED BY IDOCK:  -10.01 KCAL/MOL
REMARK 923 INTER-LIGAND FREE ENERGY PREDICTED BY IDOCK:   -9.01 KCAL/MOL
REMARK 924 INTRA-LIGAND FREE ENERGY PREDICTED BY IDOCK:   -1.00 KCAL/MOL
REMARK 927      BINDING AFFINITY PREDICTED BY RF-SCORE:    0.00 PKD
ROOT
HETATM    1  O   UNL     1     -11.962  15.987  63.823  1.00  0.00    -1.339 OA 
HETATM    2  N   UNL     1     -12.371  14.686  63.492  1.00  0.00    -1.056 N  
HETATM    3  H   UNL     1     -11.876  16.646  63.144  1.00  0.00     0.000 HD 
HETATM    4  C   UNL     1     -12.494  13.739  64.467  1.00  0.00    -0.285 C  
HETATM    5  H   UNL     1     -12.576  14.448  62.521  1.00  0.00     0.000 HD 
HETATM    6  O   UNL     1     -12.870  12.603  64.183  1.00  0.00    -0.695 OA 
ENDROOT
BRANCH   4   7
HETATM    7  C   UNL     1     -12.140  14.181  65.873  1.00  0.00    -0.441 C  
BRANCH   7   8
HETATM    8  C   UNL     1     -11.410  13.089  66.650  1.00  0.00    -0.366 C  
BRANCH   8   9
HETATM    9  C   UNL     1      -9.900  13.211  66.481  1.00  0.00    -0.265 C  
BRANCH   9  10
HETATM   10  C   UNL     1      -9.465  14.676  66.386  1.00  0.00    -0.325 C  
BRANCH  10  11
HETATM   11  C   UNL     1      -8.716  15.065  67.651  1.00  0.00    -0.182 C  
BRANCH  11  12
HETATM   12  C   UNL     1      -9.234  16.340  68.321  1.00  0.00    -0.197 C  
BRANCH  12  13
HETATM   13  C   UNL     1     -10.561  16.024  68.993  1.00  0.00    -0.257 C  
HETATM   14  N   UNL     1     -10.440  15.355  70.198  1.00  0.00    -0.406 N  
HETATM   15  O   UNL     1     -11.622  16.375  68.477  1.00  0.00    -0.302 OA 
HETATM   16  H   UNL     1      -9.503  15.113  70.517  1.00  0.00     0.000 HD 
BRANCH  14  17
HETATM   17  C   UNL     1     -11.537  14.985  71.015  1.00  0.00    -0.322 A  
HETATM   18  C   UNL     1     -11.848  15.643  72.210  1.00  0.00    -0.578 A  
HETATM   19  C   UNL     1     -12.867  15.181  73.043  1.00  0.00    -0.573 A  
HETATM   20  C   UNL     1     -13.607  14.064  72.676  1.00  0.00    -0.623 A  
HETATM   21  C   UNL     1     -13.348  13.433  71.460  1.00  0.00    -0.345 A  
HETATM   22  C   UNL     1     -12.324  13.897  70.625  1.00  0.00    -0.451 A  
ENDBRANCH  14  17
ENDBRANCH  12  13
ENDBRANCH  11  12
ENDBRANCH  10  11
ENDBRANCH   9  10
ENDBRANCH   8   9
ENDBRANCH   7   8
ENDBRANCH   4   7
TORSDOF 8
ENDMDL
MODEL        3
REMARK 921   NORMALIZED FREE ENERGY PREDICTED BY IDOCK:   -6.28 KCAL/MOL
REMARK 922        TOTAL FREE ENERGY PREDICTED BY IDOCK:  -10.00 KCAL/MOL
REMARK 923 INTER-LIGAND FREE ENERGY PREDICTED BY IDOCK:   -9.13 KCAL/MOL
REMARK 924 INTRA-LIGAND FREE ENERGY PREDICTED BY IDOCK:   -0.87 KCAL/MOL
REMARK 927      BINDING AFFINITY PREDICTED BY RF-SCORE:    0.00 PKD
ROOT
HETATM    1  O   UNL     1     -11.481  16.344  63.942  1.00  0.00    -1.569 OA 
HETATM    2  N   UNL     1     -12.289  15.217  63.724  1.00  0.00    -1.037 N  
HETATM    3  H   UNL     1     -11.504  17.071  63.330  1.00  0.00     0.000 HD 
HETATM    4  C   UNL     1     -12.257  14.172  64.604  1.00  0.00    -0.445 C  
HETATM    5  H   UNL     1     -12.900  15.178  62.909  1.00  0.00     0.000 HD 
HETATM    6  O   UNL     1     -12.977  13.191  64.426  1.00  0.00    -0.665 OA 
ENDROOT
BRANCH   4   7
HETATM    7  C   UNL     1     -11.296  14.312  65.768  1.00  0.00    -0.326 C  
BRANCH   7   8
HETATM    8  C   UNL     1     -12.020  14.309  67.112  1.00  0.00    -0.449 C  
BRANCH   8   9
HETATM    9  C   UNL     1     -11.821  12.983  67.838  1.00  0.00    -0.389 C  
BRANCH   9  10
HETATM   10  C   UNL     1     -11.377  13.202  69.288  1.00  0.00    -0.312 C  
BRANCH  10  11
HETATM   11  C   UNL     1     -11.889  14.548  69.776  1.00  0.00    -0.367 C  
BRANCH  11  12
HETATM   12  C   UNL     1     -10.828  15.409  70.467  1.00  0.00    -0.327 C  
BRANCH  12  13
HETATM   13  C   UNL     1     -10.067  16.181  69.400  1.00  0.00    -0.256 C  
HETATM   14  N   UNL     1     -10.587  17.434  69.127  1.00  0.00    -0.382 N  
HETATM   15  O   UNL     1      -9.067  15.695  68.872  1.00  0.00    -0.186 OA 
HETATM   16  H   UNL     1     -11.427  17.721  69.630  1.00  0.00     0.000 HD 
BRANCH  14  17
HETATM   17  C   UNL     1     -10.027  18.342  68.195  1.00  0.00    -0.360 A  
HETATM   18  C   UNL     1      -8.815  19.003  68.415  1.00  0.00    -0.379 A  
HETATM   19  C   UNL     1      -8.351  19.972  67.526  1.00  0.00    -0.381 A  
HETATM   20  C   UNL     1      -9.086  20.274  66.386  1.00  0.00    -0.313 A  
HETATM   21  C   UNL     1     -10.266  19.580  66.122  1.00  0.00    -0.588 A  
HETATM   22  C   UNL     1     -10.731  18.608  67.016  1.00  0.00    -0.400 A  
ENDBRANCH  14  17
ENDBRANCH  12  13
ENDBRANCH  11  12
ENDBRANCH  10  11
ENDBRANCH   9  10
ENDBRANCH   8   9
ENDBRANCH   7   8
ENDBRANCH   4   7
TORSDOF 8
ENDMDL
MODEL        4
REMARK 921   NORMALIZED FREE ENERGY PREDICTED BY IDOCK:   -6.22 KCAL/MOL
REMARK 922        TOTAL FREE ENERGY PREDICTED BY IDOCK:   -9.91 KCAL/MOL
REMARK 923 INTER-LIGAND FREE ENERGY PREDICTED BY IDOCK:   -8.92 KCAL/MOL
REMARK 924 INTRA-LIGAND FREE ENERGY PREDICTED BY IDOCK:   -0.99 KCAL/MOL
REMARK 927      BINDING AFFINITY PREDICTED BY RF-SCORE:    0.00 PKD
ROOT
HETATM    1  O   UNL     1     -11.541  16.418  63.792  1.00  0.00    -1.605 OA 
HETATM    2  N   UNL     1     -12.391  15.303  63.733  1.00  0.00    -0.993 N  
HETATM    3  H   UNL     1     -11.828  17.254  63.443  1.00  0.00     0.000 HD 
HETATM    4  C   UNL     1     -11.978  14.101  64.234  1.00  0.00    -0.435 C  
HETATM    5  H   UNL     1     -13.317  15.390  63.315  1.00  0.00     0.000 HD 
HETATM    6  O   UNL     1     -12.728  13.127  64.201  1.00  0.00    -0.650 OA 
ENDROOT
BRANCH   4   7
HETATM    7  C   UNL     1     -10.576  14.066  64.808  1.00  0.00    -0.441 C  
BRANCH   7   8
HETATM    8  C   UNL     1     -10.350  12.844  65.693  1.00  0.00    -0.295 C  
BRANCH   8   9
HETATM    9  C   UNL     1      -9.687  13.234  67.009  1.00  0.00    -0.238 C  
BRANCH   9  10
HETATM   10  C   UNL     1     -10.630  13.014  68.196  1.00  0.00    -0.257 C  
BRANCH  10  11
HETATM   11  C   UNL     1     -11.885  13.850  68.008  1.00  0.00    -0.411 C  
BRANCH  11  12
HETATM   12  C   UNL     1     -12.149  14.851  69.136  1.00  0.00    -0.267 C  
BRANCH  12  13
HETATM   13  C   UNL     1     -11.181  16.013  68.983  1.00  0.00    -0.347 C  
HETATM   14  N   UNL     1     -11.136  16.549  67.707  1.00  0.00    -0.242 N  
HETATM   15  O   UNL     1     -10.533  16.418  69.947  1.00  0.00    -0.277 OA 
HETATM   16  H   UNL     1     -11.719  16.119  66.989  1.00  0.00     0.000 HD 
BRANCH  14  17
HETATM   17  C   UNL     1     -10.332  17.655  67.337  1.00  0.00    -0.360 A  
HETATM   18  C   UNL     1     -10.781  18.977  67.410  1.00  0.00    -0.559 A  
HETATM   19  C   UNL     1     -10.002  20.031  66.933  1.00  0.00    -0.584 A  
HETATM   20  C   UNL     1      -8.746  19.775  66.397  1.00  0.00    -0.412 A  
HETATM   21  C   UNL     1      -8.260  18.469  66.373  1.00  0.00    -0.289 A  
HETATM   22  C   UNL     1      -9.043  17.411  66.851  1.00  0.00    -0.258 A  
ENDBRANCH  14  17
ENDBRANCH  12  13
ENDBRANCH  11  12
ENDBRANCH  10  11
ENDBRANCH   9  10
ENDBRANCH   8   9
ENDBRANCH   7   8
ENDBRANCH   4   7
TORSDOF 8
ENDMDL
MODEL        5
REMARK 921   NORMALIZED FREE ENERGY PREDICTED BY IDOCK:   -6.14 KCAL/MOL
REMARK 922        TOTAL FREE ENERGY PREDICTED BY IDOCK:   -9.80 KCAL/MOL
REMARK 923 INTER-LIGAND FREE ENERGY PREDICTED BY IDOCK:   -8.68 KCAL/MOL
REMARK 924 INTRA-LIGAND FREE ENERGY PREDICTED BY IDOCK:   -1.12 KCAL/MOL
REMARK 927      BINDING AFFINITY PREDICTED BY RF-SCORE:    0.00 PKD
ROOT
HETATM    1  O   UNL     1     -11.876  15.425  64.047  1.00  0.00    -0.870 OA 
HETATM    2  N   UNL     1     -12.630  14.348  63.553  1.00  0.00    -1.000 N  
HETATM    3  H   UNL     1     -12.240  16.302  64.042  1.00  0.00     0.000 HD 
HETATM    4  C   UNL     1     -12.107  13.087  63.560  1.00  0.00    -0.542 C  
HETATM    5  H   UNL     1     -13.568  14.509  63.188  1.00  0.00     0.000 HD 
HETATM    6  O   UNL     1     -12.772  12.139  63.145  1.00  0.00    -0.621 OA 
ENDROOT
BRANCH   4   7
HETATM    7  C   UNL     1     -10.695  12.955  64.096  1.00  0.00    -0.443 C  
BRANCH   7   8
HETATM    8  C   UNL     1     -10.581  11.854  65.146  1.00  0.00    -0.333 C  
BRANCH   8   9
HETATM    9  C   UNL     1     -11.504  12.127  66.328  1.00  0.00    -0.433 C  
BRANCH   9  10
HETATM   10  C   UNL     1     -10.751  12.032  67.659  1.00  0.00    -0.252 C  
BRANCH  10  11
HETATM   11  C   UNL     1     -10.768  13.387  68.347  1.00  0.00    -0.271 C  
BRANCH  11  12
HETATM   12  C   UNL     1     -11.706  14.409  67.699  1.00  0.00    -0.421 C  
BRANCH  12  13
HETATM   13  C   UNL     1     -10.884  15.621  67.287  1.00  0.00    -0.298 C  
HETATM   14  N   UNL     1     -10.941  16.674  68.184  1.00  0.00    -0.351 N  
HETATM   15  O   UNL     1     -10.227  15.606  66.247  1.00  0.00    -0.270 OA 
HETATM   16  H   UNL     1     -11.529  16.566  69.010  1.00  0.00     0.000 HD 
BRANCH  14  17
HETATM   17  C   UNL     1     -10.234  17.892  68.026  1.00  0.00    -0.376 A  
HETATM   18  C   UNL     1     -10.772  19.001  67.365  1.00  0.00    -0.559 A  
HETATM   19  C   UNL     1     -10.006  20.143  67.133  1.00  0.00    -0.595 A  
HETATM   20  C   UNL     1      -8.693  20.199  67.584  1.00  0.00    -0.380 A  
HETATM   21  C   UNL     1      -8.162  19.125  68.297  1.00  0.00    -0.369 A  
HETATM   22  C   UNL     1      -8.932  17.978  68.528  1.00  0.00    -0.297 A  
ENDBRANCH  14  17
ENDBRANCH  12  13
ENDBRANCH  11  12
ENDBRANCH  10  11
ENDBRANCH   9  10
ENDBRANCH   8   9
ENDBRANCH   7   8
ENDBRANCH   4   7
TORSDOF 8
ENDMDL
MODEL        6
REMARK 921   NORMALIZED FREE ENERGY PREDICTED BY IDOCK:   -6.10 KCAL/MOL
REMARK 922        TOTAL FREE ENERGY PREDICTED BY IDOCK:   -9.75 KCAL/MOL
REMARK 923 INTER-LIGAND FREE ENERGY PREDICTED BY IDOCK:   -9.55 KCAL/MOL
REMARK 924 INTRA-LIGAND FREE ENERGY PREDICTED BY IDOCK:   -0.19 KCAL/MOL
REMARK 927      BINDING AFFINITY PREDICTED BY RF-SCORE:    0.00 PKD
ROOT
HETATM    1  O   UNL     1     -11.572  16.414  63.666  1.00  0.00    -1.514 OA 
HETATM    2  N   UNL     1     -12.436  15.320  63.831  1.00  0.00    -0.983 N  
HETATM    3  H   UNL     1     -11.848  17.165  63.153  1.00  0.00     0.000 HD 
HETATM    4  C   UNL     1     -12.040  14.241  64.569  1.00  0.00    -0.480 C  
HETATM    5  H   UNL     1     -13.359  15.331  63.399  1.00  0.00     0.000 HD 
HETATM    6  O   UNL     1     -12.801  13.289  64.731  1.00  0.00    -0.690 OA 
ENDROOT
BRANCH   4   7
HETATM    7  C   UNL     1     -10.640  14.307  65.146  1.00  0.00    -0.423 C  
BRANCH   7   8
HETATM    8  C   UNL     1     -10.635  14.118  66.660  1.00  0.00    -0.278 C  
BRANCH   8   9
HETATM    9  C   UNL     1     -10.411  15.444  67.378  1.00  0.00    -0.262 C  
BRANCH   9  10
HETATM   10  C   UNL     1     -11.509  15.713  68.411  1.00  0.00    -0.374 C  
BRANCH  10  11
HETATM   11  C   UNL     1     -11.621  14.524  69.352  1.00  0.00    -0.343 C  
BRANCH  11  12
HETATM   12  C   UNL     1     -12.554  14.753  70.544  1.00  0.00    -0.416 C  
BRANCH  12  13
HETATM   13  C   UNL     1     -12.808  13.414  71.218  1.00  0.00    -0.323 C  
HETATM   14  N   UNL     1     -12.184  12.343  70.604  1.00  0.00    -0.427 N  
HETATM   15  O   UNL     1     -13.500  13.347  72.234  1.00  0.00    -0.503 OA 
HETATM   16  H   UNL     1     -11.640  12.527  69.761  1.00  0.00     0.000 HD 
BRANCH  14  17
HETATM   17  C   UNL     1     -12.252  11.007  71.071  1.00  0.00    -0.351 A  
HETATM   18  C   UNL     1     -13.350  10.507  71.781  1.00  0.00    -0.446 A  
HETATM   19  C   UNL     1     -13.334   9.221  72.320  1.00  0.00    -0.547 A  
HETATM   20  C   UNL     1     -12.225   8.406  72.133  1.00  0.00    -0.434 A  
HETATM   21  C   UNL     1     -11.149   8.868  71.377  1.00  0.00    -0.376 A  
HETATM   22  C   UNL     1     -11.165  10.160  70.836  1.00  0.00    -0.383 A  
ENDBRANCH  14  17
ENDBRANCH  12  13
ENDBRANCH  11  12
ENDBRANCH  10  11
ENDBRANCH   9  10
ENDBRANCH   8   9
ENDBRANCH   7   8
ENDBRANCH   4   7
TORSDOF 8
ENDMDL
MODEL        7
REMARK 921   NORMALIZED FREE ENERGY PREDICTED BY IDOCK:   -6.09 KCAL/MOL
REMARK 922        TOTAL FREE ENERGY PREDICTED BY IDOCK:   -9.72 KCAL/MOL
REMARK 923 INTER-LIGAND FREE ENERGY PREDICTED BY IDOCK:   -9.06 KCAL/MOL
REMARK 924 INTRA-LIGAND FREE ENERGY PREDICTED BY IDOCK:   -0.67 KCAL/MOL
REMARK 927      BINDING AFFINITY PREDICTED BY RF-SCORE:    0.00 PKD
ROOT
HETATM    1  O   UNL     1     -11.257  15.300  64.264  1.00  0.00    -0.669 OA 
HETATM    2  N   UNL     1     -12.293  14.464  63.821  1.00  0.00    -1.079 N  
HETATM    3  H   UNL     1     -11.407  16.233  64.364  1.00  0.00     0.000 HD 
HETATM    4  C   UNL     1     -12.077  13.123  63.677  1.00  0.00    -0.513 C  
HETATM    5  H   UNL     1     -13.209  14.858  63.607  1.00  0.00     0.000 HD 
HETATM    6  O   UNL     1     -12.989  12.386  63.307  1.00  0.00    -0.675 OA 
ENDROOT
BRANCH   4   7
HETATM    7  C   UNL     1     -10.676  12.638  63.992  1.00  0.00    -0.457 C  
BRANCH   7   8
HETATM    8  C   UNL     1     -10.669  11.198  64.497  1.00  0.00    -0.368 C  
BRANCH   8   9
HETATM    9  C   UNL     1     -10.063  11.109  65.894  1.00  0.00    -0.296 C  
BRANCH   9  10
HETATM   10  C   UNL     1     -11.035  10.462  66.884  1.00  0.00    -0.167 C  
BRANCH  10  11
HETATM   11  C   UNL     1     -11.449  11.485  67.930  1.00  0.00    -0.372 C  
BRANCH  11  12
HETATM   12  C   UNL     1     -10.643  12.785  67.888  1.00  0.00    -0.232 C  
BRANCH  12  13
HETATM   13  C   UNL     1     -11.379  13.833  68.710  1.00  0.00    -0.283 C  
HETATM   14  N   UNL     1     -11.480  13.528  70.056  1.00  0.00    -0.497 N  
HETATM   15  O   UNL     1     -11.808  14.855  68.178  1.00  0.00    -0.330 OA 
HETATM   16  H   UNL     1     -11.087  12.643  70.375  1.00  0.00     0.000 HD 
BRANCH  14  17
HETATM   17  C   UNL     1     -12.094  14.368  71.018  1.00  0.00    -0.349 A  
HETATM   18  C   UNL     1     -11.443  15.464  71.593  1.00  0.00    -0.492 A  
HETATM   19  C   UNL     1     -12.040  16.200  72.617  1.00  0.00    -0.652 A  
HETATM   20  C   UNL     1     -13.312  15.863  73.060  1.00  0.00    -0.663 A  
HETATM   21  C   UNL     1     -13.998  14.811  72.455  1.00  0.00    -0.575 A  
HETATM   22  C   UNL     1     -13.397  14.071  71.428  1.00  0.00    -0.387 A  
ENDBRANCH  14  17
ENDBRANCH  12  13
ENDBRANCH  11  12
ENDBRANCH  10  11
ENDBRANCH   9  10
ENDBRANCH   8   9
ENDBRANCH   7   8
ENDBRANCH   4   7
TORSDOF 8
ENDMDL
MODEL        8
REMARK 921   NORMALIZED FREE ENERGY PREDICTED BY IDOCK:   -6.05 KCAL/MOL
REMARK 922        TOTAL FREE ENERGY PREDICTED BY IDOCK:   -9.67 KCAL/MOL
REMARK 923 INTER-LIGAND FREE ENERGY PREDICTED BY IDOCK:   -9.12 KCAL/MOL
REMARK 924 INTRA-LIGAND FREE ENERGY PREDICTED BY IDOCK:   -0.56 KCAL/MOL
REMARK 927      BINDING AFFINITY PREDICTED BY RF-SCORE:    0.00 PKD
ROOT
HETATM    1  O   UNL     1     -11.723  16.539  63.875  1.00  0.00    -1.527 OA 
HETATM    2  N   UNL     1     -12.363  15.296  63.758  1.00  0.00    -0.993 N  
HETATM    3  H   UNL     1     -11.963  17.254  63.297  1.00  0.00     0.000 HD 
HETATM    4  C   UNL     1     -12.019  14.268  64.590  1.00  0.00    -0.455 C  
HETATM    5  H   UNL     1     -13.087  15.159  63.052  1.00  0.00     0.000 HD 
HETATM    6  O   UNL     1     -12.591  13.183  64.502  1.00  0.00    -0.594 OA 
ENDROOT
BRANCH   4   7
HETATM    7  C   UNL     1     -10.914  14.560  65.586  1.00  0.00    -0.323 C  
BRANCH   7   8
HETATM    8  C   UNL     1     -10.680  13.392  66.540  1.00  0.00    -0.287 C  
BRANCH   8   9
HETATM    9  C   UNL     1      -9.588  12.467  66.015  1.00  0.00    -0.214 C  
BRANCH   9  10
HETATM   10  C   UNL     1      -9.896  11.001  66.336  1.00  0.00    -0.252 C  
BRANCH  10  11
HETATM   11  C   UNL     1     -11.139  10.924  67.208  1.00  0.00    -0.350 C  
BRANCH  11  12
HETATM   12  C   UNL     1     -10.854  10.630  68.683  1.00  0.00    -0.266 C  
BRANCH  12  13
HETATM   13  C   UNL     1     -11.901  11.342  69.525  1.00  0.00    -0.357 C  
HETATM   14  N   UNL     1     -11.480  12.553  70.047  1.00  0.00    -0.526 N  
HETATM   15  O   UNL     1     -13.018  10.850  69.680  1.00  0.00    -0.131 OA 
HETATM   16  H   UNL     1     -10.525  12.850  69.852  1.00  0.00     0.000 HD 
BRANCH  14  17
HETATM   17  C   UNL     1     -12.293  13.404  70.836  1.00  0.00    -0.353 A  
HETATM   18  C   UNL     1     -12.938  12.973  71.999  1.00  0.00    -0.395 A  
HETATM   19  C   UNL     1     -13.818  13.808  72.688  1.00  0.00    -0.504 A  
HETATM   20  C   UNL     1     -14.043  15.101  72.232  1.00  0.00    -0.633 A  
HETATM   21  C   UNL     1     -13.361  15.566  71.108  1.00  0.00    -0.553 A  
HETATM   22  C   UNL     1     -12.479  14.726  70.417  1.00  0.00    -0.405 A  
ENDBRANCH  14  17
ENDBRANCH  12  13
ENDBRANCH  11  12
ENDBRANCH  10  11
ENDBRANCH   9  10
ENDBRANCH   8   9
ENDBRANCH   7   8
ENDBRANCH   4   7
TORSDOF 8
ENDMDL
MODEL        9
REMARK 921   NORMALIZED FREE ENERGY PREDICTED BY IDOCK:   -6.03 KCAL/MOL
REMARK 922        TOTAL FREE ENERGY PREDICTED BY IDOCK:   -9.63 KCAL/MOL
REMARK 923 INTER-LIGAND FREE ENERGY PREDICTED BY IDOCK:   -8.72 KCAL/MOL
REMARK 924 INTRA-LIGAND FREE ENERGY PREDICTED BY IDOCK:   -0.91 KCAL/MOL
REMARK 927      BINDING AFFINITY PREDICTED BY RF-SCORE:    0.00 PKD
ROOT
HETATM    1  O   UNL     1     -11.838  16.163  63.669  1.00  0.00    -1.370 OA 
HETATM    2  N   UNL     1     -12.492  14.923  63.594  1.00  0.00    -1.008 N  
HETATM    3  H   UNL     1     -12.008  16.831  63.014  1.00  0.00     0.000 HD 
HETATM    4  C   UNL     1     -12.248  13.964  64.535  1.00  0.00    -0.417 C  
HETATM    5  H   UNL     1     -13.149  14.739  62.836  1.00  0.00     0.000 HD 
HETATM    6  O   UNL     1     -12.833  12.883  64.482  1.00  0.00    -0.697 OA 
ENDROOT
BRANCH   4   7
HETATM    7  C   UNL     1     -11.234  14.322  65.604  1.00  0.00    -0.314 C  
BRANCH   7   8
HETATM    8  C   UNL     1     -11.861  14.370  66.994  1.00  0.00    -0.437 C  
BRANCH   8   9
HETATM    9  C   UNL     1     -10.809  14.648  68.061  1.00  0.00    -0.260 C  
BRANCH   9  10
HETATM   10  C   UNL     1      -9.401  14.314  67.558  1.00  0.00    -0.199 C  
BRANCH  10  11
HETATM   11  C   UNL     1      -8.906  13.049  68.241  1.00  0.00    -0.172 C  
BRANCH  11  12
HETATM   12  C   UNL     1      -9.259  11.757  67.500  1.00  0.00    -0.175 C  
BRANCH  12  13
HETATM   13  C   UNL     1     -10.467  11.129  68.178  1.00  0.00    -0.189 C  
HETATM   14  N   UNL     1     -10.344  11.005  69.551  1.00  0.00    -0.430 N  
HETATM   15  O   UNL     1     -11.451  10.798  67.518  1.00  0.00    -0.475 OA 
HETATM   16  H   UNL     1      -9.472  11.312  69.981  1.00  0.00     0.000 HD 
BRANCH  14  17
HETATM   17  C   UNL     1     -11.353  10.478  70.395  1.00  0.00    -0.328 A  
HETATM   18  C   UNL     1     -12.369  11.266  70.945  1.00  0.00    -0.490 A  
HETATM   19  C   UNL     1     -13.278  10.735  71.859  1.00  0.00    -0.524 A  
HETATM   20  C   UNL     1     -13.197   9.394  72.215  1.00  0.00    -0.528 A  
HETATM   21  C   UNL     1     -12.228   8.582  71.630  1.00  0.00    -0.371 A  
HETATM   22  C   UNL     1     -11.314   9.117  70.713  1.00  0.00    -0.337 A  
ENDBRANCH  14  17
ENDBRANCH  12  13
ENDBRANCH  11  12
ENDBRANCH  10  11
ENDBRANCH   9  10
ENDBRANCH   8   9
ENDBRANCH   7   8
ENDBRANCH   4   7
TORSDOF 8
ENDMDL
MODEL       10
REMARK 921   NORMALIZED FREE ENERGY PREDICTED BY IDOCK:   -6.02 KCAL/MOL
REMARK 922        TOTAL FREE ENERGY PREDICTED BY IDOCK:   -9.62 KCAL/MOL
REMARK 923 INTER-LIGAND FREE ENERGY PREDICTED BY IDOCK:   -9.15 KCAL/MOL
REMARK 924 INTRA-LIGAND FREE ENERGY PREDICTED BY IDOCK:   -0.48 KCAL/MOL
REMARK 927      BINDING AFFINITY PREDICTED BY RF-SCORE:    0.00 PKD
ROOT
HETATM    1  O   UNL     1     -11.659  16.316  63.854  1.00  0.00    -1.489 OA 
HETATM    2  N   UNL     1     -12.333  15.093  63.712  1.00  0.00    -1.037 N  
HETATM    3  H   UNL     1     -11.754  16.992  63.192  1.00  0.00     0.000 HD 
HETATM    4  C   UNL     1     -12.196  14.123  64.663  1.00  0.00    -0.445 C  
HETATM    5  H   UNL     1     -12.927  14.930  62.899  1.00  0.00     0.000 HD 
HETATM    6  O   UNL     1     -12.801  13.058  64.551  1.00  0.00    -0.692 OA 
ENDROOT
BRANCH   4   7
HETATM    7  C   UNL     1     -11.271  14.449  65.818  1.00  0.00    -0.326 C  
BRANCH   7   8
HETATM    8  C   UNL     1     -11.975  14.328  67.167  1.00  0.00    -0.449 C  
BRANCH   8   9
HETATM    9  C   UNL     1     -11.569  13.045  67.884  1.00  0.00    -0.385 C  
BRANCH   9  10
HETATM   10  C   UNL     1     -11.839  13.137  69.389  1.00  0.00    -0.383 C  
BRANCH  10  11
HETATM   11  C   UNL     1     -11.992  11.737  69.962  1.00  0.00    -0.421 C  
BRANCH  11  12
HETATM   12  C   UNL     1     -12.834  11.670  71.238  1.00  0.00    -0.430 C  
BRANCH  12  13
HETATM   13  C   UNL     1     -12.795  10.243  71.765  1.00  0.00    -0.460 C  
HETATM   14  N   UNL     1     -11.630   9.560  71.463  1.00  0.00    -0.381 N  
HETATM   15  O   UNL     1     -13.736   9.792  72.416  1.00  0.00    -0.376 OA 
HETATM   16  H   UNL     1     -10.923  10.044  70.909  1.00  0.00     0.000 HD 
BRANCH  14  17
HETATM   17  C   UNL     1     -11.357   8.232  71.875  1.00  0.00    -0.308 A  
HETATM   18  C   UNL     1     -10.821   7.923  73.130  1.00  0.00    -0.318 A  
HETATM   19  C   UNL     1     -10.463   6.615  73.457  1.00  0.00    -0.335 A  
HETATM   20  C   UNL     1     -10.662   5.593  72.538  1.00  0.00    -0.285 A  
HETATM   21  C   UNL     1     -11.250   5.876  71.307  1.00  0.00    -0.280 A  
HETATM   22  C   UNL     1     -11.609   7.189  70.978  1.00  0.00    -0.345 A  
ENDBRANCH  14  17
ENDBRANCH  12  13
ENDBRANCH  11  12
ENDBRANCH  10  11
ENDBRANCH   9  10
ENDBRANCH   8   9
ENDBRANCH   7   8
ENDBRANCH   4   7
TORSDOF 8
ENDMDL
MODEL       11
REMARK 921   NORMALIZED FREE ENERGY PREDICTED BY IDOCK:   -5.98 KCAL/MOL
REMARK 922        TOTAL FREE ENERGY PREDICTED BY IDOCK:   -9.57 KCAL/MOL
REMARK 923 INTER-LIGAND FREE ENERGY PREDICTED BY IDOCK:   -8.70 KCAL/MOL
REMARK 924 INTRA-LIGAND FREE ENERGY PREDICTED BY IDOCK:   -0.87 KCAL/MOL
REMARK 927      BINDING AFFINITY PREDICTED BY RF-SCORE:    0.00 PKD
ROOT
HETATM    1  O   UNL     1      -9.670  12.483  63.602  1.00  0.00    -0.672 OA 
HETATM    2  N   UNL     1     -10.952  12.227  63.091  1.00  0.00    -0.654 N  
HETATM    3  H   UNL     1      -8.917  12.482  63.022  1.00  0.00     0.000 HD 
HETATM    4  C   UNL     1     -12.033  12.228  63.925  1.00  0.00    -0.491 C  
HETATM    5  H   UNL     1     -11.075  12.039  62.096  1.00  0.00     0.000 HD 
HETATM    6  O   UNL     1     -13.160  12.022  63.478  1.00  0.00    -0.764 OA 
ENDROOT
BRANCH   4   7
HETATM    7  C   UNL     1     -11.744  12.489  65.390  1.00  0.00    -0.444 C  
BRANCH   7   8
HETATM    8  C   UNL     1     -12.286  13.840  65.849  1.00  0.00    -0.516 C  
BRANCH   8   9
HETATM    9  C   UNL     1     -11.261  14.946  65.631  1.00  0.00    -0.347 C  
BRANCH   9  10
HETATM   10  C   UNL     1      -9.991  14.701  66.452  1.00  0.00    -0.296 C  
BRANCH  10  11
HETATM   11  C   UNL     1      -9.457  16.028  66.967  1.00  0.00    -0.230 C  
BRANCH  11  12
HETATM   12  C   UNL     1     -10.473  16.843  67.773  1.00  0.00    -0.340 C  
BRANCH  12  13
HETATM   13  C   UNL     1     -10.821  16.065  69.033  1.00  0.00    -0.283 C  
HETATM   14  N   UNL     1     -12.137  15.642  69.092  1.00  0.00    -0.564 N  
HETATM   15  O   UNL     1      -9.962  15.840  69.885  1.00  0.00    -0.276 OA 
HETATM   16  H   UNL     1     -12.755  15.898  68.322  1.00  0.00     0.000 HD 
BRANCH  14  17
HETATM   17  C   UNL     1     -12.680  14.876  70.153  1.00  0.00    -0.219 A  
HETATM   18  C   UNL     1     -13.585  15.402  71.081  1.00  0.00    -0.536 A  
HETATM   19  C   UNL     1     -14.012  14.651  72.176  1.00  0.00    -0.591 A  
HETATM   20  C   UNL     1     -13.556  13.349  72.342  1.00  0.00    -0.708 A  
HETATM   21  C   UNL     1     -12.702  12.791  71.392  1.00  0.00    -0.353 A  
HETATM   22  C   UNL     1     -12.272  13.546  70.294  1.00  0.00    -0.417 A  
ENDBRANCH  14  17
ENDBRANCH  12  13
ENDBRANCH  11  12
ENDBRANCH  10  11
ENDBRANCH   9  10
ENDBRANCH   8   9
ENDBRANCH   7   8
ENDBRANCH   4   7
TORSDOF 8
ENDMDL
MODEL       12
REMARK 921   NORMALIZED FREE ENERGY PREDICTED BY IDOCK:   -5.93 KCAL/MOL
REMARK 922        TOTAL FREE ENERGY PREDICTED BY IDOCK:   -9.49 KCAL/MOL
REMARK 923 INTER-LIGAND FREE ENERGY PREDICTED BY IDOCK:   -8.80 KCAL/MOL
REMARK 924 INTRA-LIGAND FREE ENERGY PREDICTED BY IDOCK:   -0.69 KCAL/MOL
REMARK 927      BINDING AFFINITY PREDICTED BY RF-SCORE:    0.00 PKD
ROOT
HETATM    1  O   UNL     1     -10.419  11.035  62.776  1.00  0.00    -0.756 OA 
HETATM    2  N   UNL     1     -11.711  11.351  63.226  1.00  0.00    -0.834 N  
HETATM    3  H   UNL     1     -10.281  10.274  62.224  1.00  0.00     0.000 HD 
HETATM    4  C   UNL     1     -11.911  12.444  64.019  1.00  0.00    -0.439 C  
HETATM    5  H   UNL     1     -12.501  10.763  62.959  1.00  0.00     0.000 HD 
HETATM    6  O   UNL     1     -13.044  12.734  64.400  1.00  0.00    -0.724 OA 
ENDROOT
BRANCH   4   7
HETATM    7  C   UNL     1     -10.671  13.237  64.384  1.00  0.00    -0.432 C  
BRANCH   7   8
HETATM    8  C   UNL     1     -11.002  14.683  64.742  1.00  0.00    -0.399 C  
BRANCH   8   9
HETATM    9  C   UNL     1     -10.360  15.081  66.066  1.00  0.00    -0.326 C  
BRANCH   9  10
HETATM   10  C   UNL     1      -9.513  13.941  66.641  1.00  0.00    -0.296 C  
BRANCH  10  11
HETATM   11  C   UNL     1      -9.959  13.648  68.064  1.00  0.00    -0.247 C  
BRANCH  11  12
HETATM   12  C   UNL     1     -11.463  13.407  68.214  1.00  0.00    -0.350 C  
BRANCH  12  13
HETATM   13  C   UNL     1     -11.673  11.998  68.747  1.00  0.00    -0.321 C  
HETATM   14  N   UNL     1     -11.710  11.914  70.128  1.00  0.00    -0.497 N  
HETATM   15  O   UNL     1     -11.814  11.052  67.973  1.00  0.00    -0.593 OA 
HETATM   16  H   UNL     1     -11.574  12.773  70.661  1.00  0.00     0.000 HD 
BRANCH  14  17
HETATM   17  C   UNL     1     -11.925  10.712  70.846  1.00  0.00    -0.363 A  
HETATM   18  C   UNL     1     -10.968   9.695  70.925  1.00  0.00    -0.412 A  
HETATM   19  C   UNL     1     -11.257   8.481  71.548  1.00  0.00    -0.345 A  
HETATM   20  C   UNL     1     -12.504   8.280  72.126  1.00  0.00    -0.398 A  
HETATM   21  C   UNL     1     -13.447   9.306  72.108  1.00  0.00    -0.539 A  
HETATM   22  C   UNL     1     -13.156  10.524  71.481  1.00  0.00    -0.532 A  
ENDBRANCH  14  17
ENDBRANCH  12  13
ENDBRANCH  11  12
ENDBRANCH  10  11
ENDBRANCH   9  10
ENDBRANCH   8   9
ENDBRANCH   7   8
ENDBRANCH   4   7
TORSDOF 8
ENDMDL
MODEL       13
REMARK 921   NORMALIZED FREE ENERGY PREDICTED BY IDOCK:   -5.92 KCAL/MOL
REMARK 922        TOTAL FREE ENERGY PREDICTED BY IDOCK:   -9.48 KCAL/MOL
REMARK 923 INTER-LIGAND FREE ENERGY PREDICTED BY IDOCK:   -8.46 KCAL/MOL
REMARK 924 INTRA-LIGAND FREE ENERGY PREDICTED BY IDOCK:   -1.02 KCAL/MOL
REMARK 927      BINDING AFFINITY PREDICTED BY RF-SCORE:    0.00 PKD
ROOT
HETATM    1  O   UNL     1     -11.606  16.402  63.706  1.00  0.00    -1.605 OA 
HETATM    2  N   UNL     1     -11.270  16.412  65.069  1.00  0.00    -0.222 N  
HETATM    3  H   UNL     1     -11.990  17.173  63.305  1.00  0.00     0.000 HD 
HETATM    4  C   UNL     1     -10.718  15.304  65.646  1.00  0.00    -0.365 C  
HETATM    5  H   UNL     1     -11.438  17.248  65.629  1.00  0.00     0.000 HD 
HETATM    6  O   UNL     1     -10.405  15.316  66.835  1.00  0.00    -0.267 OA 
ENDROOT
BRANCH   4   7
HETATM    7  C   UNL     1     -10.534  14.103  64.739  1.00  0.00    -0.432 C  
BRANCH   7   8
HETATM    8  C   UNL     1     -11.776  13.217  64.702  1.00  0.00    -0.403 C  
BRANCH   8   9
HETATM    9  C   UNL     1     -11.398  11.750  64.537  1.00  0.00    -0.349 C  
BRANCH   9  10
HETATM   10  C   UNL     1      -9.992  11.470  65.077  1.00  0.00    -0.305 C  
BRANCH  10  11
HETATM   11  C   UNL     1     -10.095  10.858  66.464  1.00  0.00    -0.269 C  
BRANCH  11  12
HETATM   12  C   UNL     1      -9.760  11.825  67.603  1.00  0.00    -0.186 C  
BRANCH  12  13
HETATM   13  C   UNL     1     -11.042  12.139  68.358  1.00  0.00    -0.245 C  
HETATM   14  N   UNL     1     -10.897  13.098  69.345  1.00  0.00    -0.447 N  
HETATM   15  O   UNL     1     -12.095  11.576  68.063  1.00  0.00    -0.617 OA 
HETATM   16  H   UNL     1      -9.968  13.488  69.499  1.00  0.00     0.000 HD 
BRANCH  14  17
HETATM   17  C   UNL     1     -11.959  13.573  70.155  1.00  0.00    -0.329 A  
HETATM   18  C   UNL     1     -12.425  14.890  70.099  1.00  0.00    -0.353 A  
HETATM   19  C   UNL     1     -13.396  15.350  70.988  1.00  0.00    -0.545 A  
HETATM   20  C   UNL     1     -13.933  14.485  71.933  1.00  0.00    -0.569 A  
HETATM   21  C   UNL     1     -13.522  13.153  71.962  1.00  0.00    -0.598 A  
HETATM   22  C   UNL     1     -12.546  12.693  71.069  1.00  0.00    -0.354 A  
ENDBRANCH  14  17
ENDBRANCH  12  13
ENDBRANCH  11  12
ENDBRANCH  10  11
ENDBRANCH   9  10
ENDBRANCH   8   9
ENDBRANCH   7   8
ENDBRANCH   4   7
TORSDOF 8
ENDMDL
MODEL       14
REMARK 921   NORMALIZED FREE ENERGY PREDICTED BY IDOCK:   -5.89 KCAL/MOL
REMARK 922        TOTAL FREE ENERGY PREDICTED BY IDOCK:   -9.44 KCAL/MOL
REMARK 923 INTER-LIGAND FREE ENERGY PREDICTED BY IDOCK:   -8.97 KCAL/MOL
REMARK 924 INTRA-LIGAND FREE ENERGY PREDICTED BY IDOCK:   -0.46 KCAL/MOL
REMARK 927      BINDING AFFINITY PREDICTED BY RF-SCORE:    0.00 PKD
ROOT
HETATM    1  O   UNL     1     -11.755  16.157  63.828  1.00  0.00    -1.404 OA 
HETATM    2  N   UNL     1     -12.493  14.966  63.731  1.00  0.00    -1.062 N  
HETATM    3  H   UNL     1     -11.830  16.819  63.151  1.00  0.00     0.000 HD 
HETATM    4  C   UNL     1     -12.385  14.014  64.704  1.00  0.00    -0.397 C  
HETATM    5  H   UNL     1     -13.110  14.813  62.934  1.00  0.00     0.000 HD 
HETATM    6  O   UNL     1     -13.044  12.978  64.632  1.00  0.00    -0.723 OA 
ENDROOT
BRANCH   4   7
HETATM    7  C   UNL     1     -11.422  14.322  65.833  1.00  0.00    -0.335 C  
BRANCH   7   8
HETATM    8  C   UNL     1     -12.068  14.136  67.204  1.00  0.00    -0.432 C  
BRANCH   8   9
HETATM    9  C   UNL     1     -11.166  13.329  68.130  1.00  0.00    -0.302 C  
BRANCH   9  10
HETATM   10  C   UNL     1     -11.841  12.028  68.574  1.00  0.00    -0.369 C  
BRANCH  10  11
HETATM   11  C   UNL     1     -11.700  11.873  70.080  1.00  0.00    -0.366 C  
BRANCH  11  12
HETATM   12  C   UNL     1     -12.495  10.705  70.668  1.00  0.00    -0.462 C  
BRANCH  12  13
HETATM   13  C   UNL     1     -11.564   9.510  70.803  1.00  0.00    -0.308 C  
HETATM   14  N   UNL     1     -12.209   8.285  70.782  1.00  0.00    -0.495 N  
HETATM   15  O   UNL     1     -10.349   9.673  70.897  1.00  0.00    -0.300 OA 
HETATM   16  H   UNL     1     -13.225   8.282  70.704  1.00  0.00     0.000 HD 
BRANCH  14  17
HETATM   17  C   UNL     1     -11.545   7.036  70.860  1.00  0.00    -0.328 A  
HETATM   18  C   UNL     1     -11.271   6.398  72.075  1.00  0.00    -0.324 A  
HETATM   19  C   UNL     1     -10.518   5.225  72.119  1.00  0.00    -0.278 A  
HETATM   20  C   UNL     1     -10.052   4.658  70.940  1.00  0.00    -0.257 A  
HETATM   21  C   UNL     1     -10.368   5.248  69.717  1.00  0.00    -0.369 A  
HETATM   22  C   UNL     1     -11.123   6.427  69.674  1.00  0.00    -0.465 A  
ENDBRANCH  14  17
ENDBRANCH  12  13
ENDBRANCH  11  12
ENDBRANCH  10  11
ENDBRANCH   9  10
ENDBRANCH   8   9
ENDBRANCH   7   8
ENDBRANCH   4   7
TORSDOF 8
ENDMDL
MODEL       15
REMARK 921   NORMALIZED FREE ENERGY PREDICTED BY IDOCK:   -5.88 KCAL/MOL
REMARK 922        TOTAL FREE ENERGY PREDICTED BY IDOCK:   -9.42 KCAL/MOL
REMARK 923 INTER-LIGAND FREE ENERGY PREDICTED BY IDOCK:   -8.84 KCAL/MOL
REMARK 924 INTRA-LIGAND FREE ENERGY PREDICTED BY IDOCK:   -0.58 KCAL/MOL
REMARK 927      BINDING AFFINITY PREDICTED BY RF-SCORE:    0.00 PKD
ROOT
HETATM    1  O   UNL     1     -11.659  16.279  63.755  1.00  0.00    -1.539 OA 
HETATM    2  N   UNL     1     -12.487  15.146  63.769  1.00  0.00    -1.007 N  
HETATM    3  H   UNL     1     -11.801  16.963  63.111  1.00  0.00     0.000 HD 
HETATM    4  C   UNL     1     -12.284  14.162  64.694  1.00  0.00    -0.445 C  
HETATM    5  H   UNL     1     -13.241  15.057  63.088  1.00  0.00     0.000 HD 
HETATM    6  O   UNL     1     -13.020  13.177  64.722  1.00  0.00    -0.725 OA 
ENDROOT
BRANCH   4   7
HETATM    7  C   UNL     1     -11.122  14.372  65.644  1.00  0.00    -0.321 C  
BRANCH   7   8
HETATM    8  C   UNL     1     -11.588  14.789  67.037  1.00  0.00    -0.352 C  
BRANCH   8   9
HETATM    9  C   UNL     1     -11.056  13.836  68.101  1.00  0.00    -0.282 C  
BRANCH   9  10
HETATM   10  C   UNL     1     -11.916  13.877  69.368  1.00  0.00    -0.402 C  
BRANCH  10  11
HETATM   11  C   UNL     1     -11.976  12.488  69.984  1.00  0.00    -0.372 C  
BRANCH  11  12
HETATM   12  C   UNL     1     -11.789  11.348  68.980  1.00  0.00    -0.415 C  
BRANCH  12  13
HETATM   13  C   UNL     1     -11.061  10.209  69.678  1.00  0.00    -0.263 C  
HETATM   14  N   UNL     1     -11.889   9.361  70.392  1.00  0.00    -0.454 N  
HETATM   15  O   UNL     1      -9.842  10.086  69.567  1.00  0.00    -0.205 OA 
HETATM   16  H   UNL     1     -12.886   9.573  70.413  1.00  0.00     0.000 HD 
BRANCH  14  17
HETATM   17  C   UNL     1     -11.439   8.216  71.096  1.00  0.00    -0.276 A  
HETATM   18  C   UNL     1     -11.367   6.947  70.512  1.00  0.00    -0.374 A  
HETATM   19  C   UNL     1     -11.025   5.825  71.266  1.00  0.00    -0.299 A  
HETATM   20  C   UNL     1     -10.724   5.964  72.615  1.00  0.00    -0.271 A  
HETATM   21  C   UNL     1     -10.732   7.231  73.197  1.00  0.00    -0.411 A  
HETATM   22  C   UNL     1     -11.077   8.357  72.439  1.00  0.00    -0.431 A  
ENDBRANCH  14  17
ENDBRANCH  12  13
ENDBRANCH  11  12
ENDBRANCH  10  11
ENDBRANCH   9  10
ENDBRANCH   8   9
ENDBRANCH   7   8
ENDBRANCH   4   7
TORSDOF 8
ENDMDL
MODEL       16
REMARK 921   NORMALIZED FREE ENERGY PREDICTED BY IDOCK:   -5.79 KCAL/MOL
REMARK 922        TOTAL FREE ENERGY PREDICTED BY IDOCK:   -9.29 KCAL/MOL
REMARK 923 INTER-LIGAND FREE ENERGY PREDICTED BY IDOCK:   -8.54 KCAL/MOL
REMARK 924 INTRA-LIGAND FREE ENERGY PREDICTED BY IDOCK:   -0.76 KCAL/MOL
REMARK 927      BINDING AFFINITY PREDICTED BY RF-SCORE:    0.00 PKD
ROOT
HETATM    1  O   UNL     1     -12.372  11.252  62.924  1.00  0.00    -0.876 OA 
HETATM    2  N   UNL     1     -13.143  12.177  63.644  1.00  0.00    -0.755 N  
HETATM    3  H   UNL     1     -12.795  10.637  62.335  1.00  0.00     0.000 HD 
HETATM    4  C   UNL     1     -12.537  13.061  64.491  1.00  0.00    -0.320 C  
HETATM    5  H   UNL     1     -14.157  12.191  63.535  1.00  0.00     0.000 HD 
HETATM    6  O   UNL     1     -13.208  13.885  65.109  1.00  0.00    -0.768 OA 
ENDROOT
BRANCH   4   7
HETATM    7  C   UNL     1     -11.030  12.943  64.607  1.00  0.00    -0.357 C  
BRANCH   7   8
HETATM    8  C   UNL     1     -10.401  14.202  65.199  1.00  0.00    -0.429 C  
BRANCH   8   9
HETATM    9  C   UNL     1      -9.613  13.879  66.463  1.00  0.00    -0.299 C  
BRANCH   9  10
HETATM   10  C   UNL     1      -9.834  14.939  67.546  1.00  0.00    -0.217 C  
BRANCH  10  11
HETATM   11  C   UNL     1     -10.425  14.283  68.784  1.00  0.00    -0.249 C  
BRANCH  11  12
HETATM   12  C   UNL     1     -11.882  13.842  68.625  1.00  0.00    -0.409 C  
BRANCH  12  13
HETATM   13  C   UNL     1     -11.981  12.370  68.997  1.00  0.00    -0.241 C  
HETATM   14  N   UNL     1     -11.899  12.123  70.356  1.00  0.00    -0.525 N  
HETATM   15  O   UNL     1     -12.142  11.516  68.127  1.00  0.00    -0.604 OA 
HETATM   16  H   UNL     1     -11.759  12.919  70.978  1.00  0.00     0.000 HD 
BRANCH  14  17
HETATM   17  C   UNL     1     -11.998  10.835  70.938  1.00  0.00    -0.333 A  
HETATM   18  C   UNL     1     -13.135  10.398  71.624  1.00  0.00    -0.553 A  
HETATM   19  C   UNL     1     -13.154   9.166  72.278  1.00  0.00    -0.509 A  
HETATM   20  C   UNL     1     -12.037   8.341  72.230  1.00  0.00    -0.439 A  
HETATM   21  C   UNL     1     -10.918   8.736  71.499  1.00  0.00    -0.377 A  
HETATM   22  C   UNL     1     -10.900   9.974  70.844  1.00  0.00    -0.276 A  
ENDBRANCH  14  17
ENDBRANCH  12  13
ENDBRANCH  11  12
ENDBRANCH  10  11
ENDBRANCH   9  10
ENDBRANCH   8   9
ENDBRANCH   7   8
ENDBRANCH   4   7
TORSDOF 8
ENDMDL
MODEL       17
REMARK 921   NORMALIZED FREE ENERGY PREDICTED BY IDOCK:   -5.79 KCAL/MOL
REMARK 922        TOTAL FREE ENERGY PREDICTED BY IDOCK:   -9.28 KCAL/MOL
REMARK 923 INTER-LIGAND FREE ENERGY PREDICTED BY IDOCK:   -8.52 KCAL/MOL
REMARK 924 INTRA-LIGAND FREE ENERGY PREDICTED BY IDOCK:   -0.76 KCAL/MOL
REMARK 927      BINDING AFFINITY PREDICTED BY RF-SCORE:    0.00 PKD
ROOT
HETATM    1  O   UNL     1     -12.397  12.261  63.048  1.00  0.00    -0.667 OA 
HETATM    2  N   UNL     1     -12.300  13.661  62.997  1.00  0.00    -1.004 N  
HETATM    3  H   UNL     1     -12.337  11.751  62.249  1.00  0.00     0.000 HD 
HETATM    4  C   UNL     1     -12.386  14.395  64.146  1.00  0.00    -0.307 C  
HETATM    5  H   UNL     1     -12.164  14.130  62.102  1.00  0.00     0.000 HD 
HETATM    6  O   UNL     1     -12.283  15.619  64.107  1.00  0.00    -0.576 OA 
ENDROOT
BRANCH   4   7
HETATM    7  C   UNL     1     -12.616  13.609  65.422  1.00  0.00    -0.533 C  
BRANCH   7   8
HETATM    8  C   UNL     1     -11.643  14.013  66.526  1.00  0.00    -0.389 C  
BRANCH   8   9
HETATM    9  C   UNL     1     -10.225  13.561  66.199  1.00  0.00    -0.303 C  
BRANCH   9  10
HETATM   10  C   UNL     1      -9.292  14.757  65.987  1.00  0.00    -0.249 C  
BRANCH  10  11
HETATM   11  C   UNL     1      -9.653  15.861  66.968  1.00  0.00    -0.232 C  
BRANCH  11  12
HETATM   12  C   UNL     1      -9.223  15.583  68.411  1.00  0.00    -0.191 C  
BRANCH  12  13
HETATM   13  C   UNL     1     -10.337  16.041  69.340  1.00  0.00    -0.272 C  
HETATM   14  N   UNL     1     -10.899  15.026  70.094  1.00  0.00    -0.404 N  
HETATM   15  O   UNL     1     -10.657  17.228  69.393  1.00  0.00    -0.300 OA 
HETATM   16  H   UNL     1     -10.550  14.078  69.953  1.00  0.00     0.000 HD 
BRANCH  14  17
HETATM   17  C   UNL     1     -11.929  15.220  71.048  1.00  0.00    -0.343 A  
HETATM   18  C   UNL     1     -13.287  15.145  70.723  1.00  0.00    -0.389 A  
HETATM   19  C   UNL     1     -14.271  15.451  71.663  1.00  0.00    -0.621 A  
HETATM   20  C   UNL     1     -13.905  15.812  72.954  1.00  0.00    -0.565 A  
HETATM   21  C   UNL     1     -12.558  15.832  73.309  1.00  0.00    -0.627 A  
HETATM   22  C   UNL     1     -11.571  15.526  72.364  1.00  0.00    -0.543 A  
ENDBRANCH  14  17
ENDBRANCH  12  13
ENDBRANCH  11  12
ENDBRANCH  10  11
ENDBRANCH   9  10
ENDBRANCH   8   9
ENDBRANCH   7   8
ENDBRANCH   4   7
TORSDOF 8
ENDMDL
MODEL       18
REMARK 921   NORMALIZED FREE ENERGY PREDICTED BY IDOCK:   -5.73 KCAL/MOL
REMARK 922        TOTAL FREE ENERGY PREDICTED BY IDOCK:   -9.20 KCAL/MOL
REMARK 923 INTER-LIGAND FREE ENERGY PREDICTED BY IDOCK:   -8.11 KCAL/MOL
REMARK 924 INTRA-LIGAND FREE ENERGY PREDICTED BY IDOCK:   -1.09 KCAL/MOL
REMARK 927      BINDING AFFINITY PREDICTED BY RF-SCORE:    0.00 PKD
ROOT
HETATM    1  O   UNL     1     -11.480  16.491  63.800  1.00  0.00    -1.615 OA 
HETATM    2  N   UNL     1     -12.290  15.346  63.743  1.00  0.00    -0.920 N  
HETATM    3  H   UNL     1     -11.576  17.175  63.148  1.00  0.00     0.000 HD 
HETATM    4  C   UNL     1     -12.152  14.363  64.680  1.00  0.00    -0.471 C  
HETATM    5  H   UNL     1     -12.983  15.249  63.001  1.00  0.00     0.000 HD 
HETATM    6  O   UNL     1     -12.874  13.368  64.644  1.00  0.00    -0.668 OA 
ENDROOT
BRANCH   4   7
HETATM    7  C   UNL     1     -11.077  14.586  65.726  1.00  0.00    -0.324 C  
BRANCH   7   8
HETATM    8  C   UNL     1     -10.268  13.320  65.994  1.00  0.00    -0.291 C  
BRANCH   8   9
HETATM    9  C   UNL     1     -10.770  12.602  67.241  1.00  0.00    -0.259 C  
BRANCH   9  10
HETATM   10  C   UNL     1     -10.038  13.086  68.497  1.00  0.00    -0.195 C  
BRANCH  10  11
HETATM   11  C   UNL     1      -8.567  13.295  68.177  1.00  0.00    -0.177 C  
BRANCH  11  12
HETATM   12  C   UNL     1      -7.959  14.550  68.807  1.00  0.00    -0.142 C  
BRANCH  12  13
HETATM   13  C   UNL     1      -8.257  15.735  67.901  1.00  0.00    -0.145 C  
HETATM   14  N   UNL     1      -8.998  16.736  68.504  1.00  0.00    -0.236 N  
HETATM   15  O   UNL     1      -7.833  15.760  66.747  1.00  0.00    -0.234 OA 
HETATM   16  H   UNL     1      -9.296  16.594  69.469  1.00  0.00     0.000 HD 
BRANCH  14  17
HETATM   17  C   UNL     1      -9.368  17.946  67.865  1.00  0.00    -0.271 A  
HETATM   18  C   UNL     1     -10.453  18.039  66.988  1.00  0.00    -0.361 A  
HETATM   19  C   UNL     1     -10.720  19.218  66.294  1.00  0.00    -0.477 A  
HETATM   20  C   UNL     1      -9.914  20.333  66.490  1.00  0.00    -0.528 A  
HETATM   21  C   UNL     1      -8.866  20.275  67.406  1.00  0.00    -0.442 A  
HETATM   22  C   UNL     1      -8.598  19.089  68.102  1.00  0.00    -0.355 A  
ENDBRANCH  14  17
ENDBRANCH  12  13
ENDBRANCH  11  12
ENDBRANCH  10  11
ENDBRANCH   9  10
ENDBRANCH   8   9
ENDBRANCH   7   8
ENDBRANCH   4   7
TORSDOF 8
ENDMDL
MODEL       19
REMARK 921   NORMALIZED FREE ENERGY PREDICTED BY IDOCK:   -5.68 KCAL/MOL
REMARK 922        TOTAL FREE ENERGY PREDICTED BY IDOCK:   -9.13 KCAL/MOL
REMARK 923 INTER-LIGAND FREE ENERGY PREDICTED BY IDOCK:   -8.77 KCAL/MOL
REMARK 924 INTRA-LIGAND FREE ENERGY PREDICTED BY IDOCK:   -0.36 KCAL/MOL
REMARK 927      BINDING AFFINITY PREDICTED BY RF-SCORE:    0.00 PKD
ROOT
HETATM    1  O   UNL     1     -10.449  11.043  62.612  1.00  0.00    -0.748 OA 
HETATM    2  N   UNL     1     -11.764  11.355  62.995  1.00  0.00    -0.866 N  
HETATM    3  H   UNL     1     -10.291  10.388  61.942  1.00  0.00     0.000 HD 
HETATM    4  C   UNL     1     -11.991  12.296  63.957  1.00  0.00    -0.462 C  
HETATM    5  H   UNL     1     -12.549  10.878  62.552  1.00  0.00     0.000 HD 
HETATM    6  O   UNL     1     -13.142  12.585  64.281  1.00  0.00    -0.759 OA 
ENDROOT
BRANCH   4   7
HETATM    7  C   UNL     1     -10.759  12.928  64.575  1.00  0.00    -0.392 C  
BRANCH   7   8
HETATM    8  C   UNL     1     -10.953  14.418  64.843  1.00  0.00    -0.416 C  
BRANCH   8   9
HETATM    9  C   UNL     1     -10.708  14.746  66.312  1.00  0.00    -0.313 C  
BRANCH   9  10
HETATM   10  C   UNL     1     -11.794  14.144  67.208  1.00  0.00    -0.452 C  
BRANCH  10  11
HETATM   11  C   UNL     1     -11.207  13.836  68.576  1.00  0.00    -0.304 C  
BRANCH  11  12
HETATM   12  C   UNL     1     -12.055  14.335  69.749  1.00  0.00    -0.401 C  
BRANCH  12  13
HETATM   13  C   UNL     1     -12.359  13.154  70.658  1.00  0.00    -0.326 C  
HETATM   14  N   UNL     1     -11.916  11.937  70.172  1.00  0.00    -0.371 N  
HETATM   15  O   UNL     1     -12.933  13.325  71.733  1.00  0.00    -0.358 OA 
HETATM   16  H   UNL     1     -11.457  11.925  69.262  1.00  0.00     0.000 HD 
BRANCH  14  17
HETATM   17  C   UNL     1     -12.060  10.706  70.860  1.00  0.00    -0.385 A  
HETATM   18  C   UNL     1     -13.240  10.336  71.513  1.00  0.00    -0.484 A  
HETATM   19  C   UNL     1     -13.308   9.168  72.272  1.00  0.00    -0.540 A  
HETATM   20  C   UNL     1     -12.198   8.338  72.365  1.00  0.00    -0.412 A  
HETATM   21  C   UNL     1     -11.034   8.663  71.670  1.00  0.00    -0.378 A  
HETATM   22  C   UNL     1     -10.966   9.837  70.909  1.00  0.00    -0.411 A  
ENDBRANCH  14  17
ENDBRANCH  12  13
ENDBRANCH  11  12
ENDBRANCH  10  11
ENDBRANCH   9  10
ENDBRANCH   8   9
ENDBRANCH   7   8
ENDBRANCH   4   7
TORSDOF 8
ENDMDL
MODEL       20
REMARK 921   NORMALIZED FREE ENERGY PREDICTED BY IDOCK:   -5.68 KCAL/MOL
REMARK 922        TOTAL FREE ENERGY PREDICTED BY IDOCK:   -9.13 KCAL/MOL
REMARK 923 INTER-LIGAND FREE ENERGY PREDICTED BY IDOCK:   -8.08 KCAL/MOL
REMARK 924 INTRA-LIGAND FREE ENERGY PREDICTED BY IDOCK:   -1.05 KCAL/MOL
REMARK 927      BINDING AFFINITY PREDICTED BY RF-SCORE:    0.00 PKD
ROOT
HETATM    1  O   UNL     1     -11.393  16.669  63.820  1.00  0.00    -1.457 OA 
HETATM    2  N   UNL     1     -11.037  16.072  65.039  1.00  0.00    -0.374 N  
HETATM    3  H   UNL     1     -11.128  17.562  63.632  1.00  0.00     0.000 HD 
HETATM    4  C   UNL     1     -11.417  14.788  65.309  1.00  0.00    -0.352 C  
HETATM    5  H   UNL     1     -10.494  16.597  65.724  1.00  0.00     0.000 HD 
HETATM    6  O   UNL     1     -11.091  14.256  66.368  1.00  0.00    -0.313 OA 
ENDROOT
BRANCH   4   7
HETATM    7  C   UNL     1     -12.245  14.101  64.241  1.00  0.00    -0.449 C  
BRANCH   7   8
HETATM    8  C   UNL     1     -12.252  12.584  64.409  1.00  0.00    -0.528 C  
BRANCH   8   9
HETATM    9  C   UNL     1     -11.166  11.933  63.560  1.00  0.00    -0.501 C  
BRANCH   9  10
HETATM   10  C   UNL     1     -10.362  10.910  64.369  1.00  0.00    -0.430 C  
BRANCH  10  11
HETATM   11  C   UNL     1     -10.627  11.117  65.851  1.00  0.00    -0.294 C  
BRANCH  11  12
HETATM   12  C   UNL     1      -9.361  11.211  66.707  1.00  0.00    -0.193 C  
BRANCH  12  13
HETATM   13  C   UNL     1      -9.775  11.438  68.153  1.00  0.00    -0.192 C  
HETATM   14  N   UNL     1     -11.072  11.897  68.305  1.00  0.00    -0.221 N  
HETATM   15  O   UNL     1      -8.993  11.198  69.072  1.00  0.00    -0.126 OA 
HETATM   16  H   UNL     1     -11.621  12.063  67.462  1.00  0.00     0.000 HD 
BRANCH  14  17
HETATM   17  C   UNL     1     -11.685  12.149  69.558  1.00  0.00    -0.336 A  
HETATM   18  C   UNL     1     -12.088  11.127  70.424  1.00  0.00    -0.475 A  
HETATM   19  C   UNL     1     -12.788  11.410  71.596  1.00  0.00    -0.497 A  
HETATM   20  C   UNL     1     -13.070  12.729  71.932  1.00  0.00    -0.474 A  
HETATM   21  C   UNL     1     -12.621  13.761  71.110  1.00  0.00    -0.452 A  
HETATM   22  C   UNL     1     -11.920  13.475  69.931  1.00  0.00    -0.416 A  
ENDBRANCH  14  17
ENDBRANCH  12  13
ENDBRANCH  11  12
ENDBRANCH  10  11
ENDBRANCH   9  10
ENDBRANCH   8   9
ENDBRANCH   7   8
ENDBRANCH   4   7
TORSDOF 8
ENDMDL
MODEL       21
REMARK 921   NORMALIZED FREE ENERGY PREDICTED BY IDOCK:   -5.64 KCAL/MOL
REMARK 922        TOTAL FREE ENERGY PREDICTED BY IDOCK:   -9.07 KCAL/MOL
REMARK 923 INTER-LIGAND FREE ENERGY PREDICTED BY IDOCK:   -8.50 KCAL/MOL
REMARK 924 INTRA-LIGAND FREE ENERGY PREDICTED BY IDOCK:   -0.57 KCAL/MOL
REMARK 927      BINDING AFFINITY PREDICTED BY RF-SCORE:    0.00 PKD
ROOT
HETATM    1  O   UNL     1     -11.336  11.466  62.936  1.00  0.00    -0.814 OA 
HETATM    2  N   UNL     1     -11.831  12.779  62.979  1.00  0.00    -0.784 N  
HETATM    3  H   UNL     1     -11.137  11.059  62.101  1.00  0.00     0.000 HD 
HETATM    4  C   UNL     1     -12.116  13.363  64.180  1.00  0.00    -0.433 C  
HETATM    5  H   UNL     1     -11.978  13.296  62.112  1.00  0.00     0.000 HD 
HETATM    6  O   UNL     1     -12.533  14.519  64.221  1.00  0.00    -0.657 OA 
ENDROOT
BRANCH   4   7
HETATM    7  C   UNL     1     -11.892  12.504  65.408  1.00  0.00    -0.479 C  
BRANCH   7   8
HETATM    8  C   UNL     1     -11.996  13.312  66.699  1.00  0.00    -0.446 C  
BRANCH   8   9
HETATM    9  C   UNL     1     -11.579  12.476  67.904  1.00  0.00    -0.403 C  
BRANCH   9  10
HETATM   10  C   UNL     1     -11.964  13.161  69.219  1.00  0.00    -0.344 C  
BRANCH  10  11
HETATM   11  C   UNL     1     -11.052  14.355  69.453  1.00  0.00    -0.294 C  
BRANCH  11  12
HETATM   12  C   UNL     1     -11.764  15.709  69.397  1.00  0.00    -0.395 C  
BRANCH  12  13
HETATM   13  C   UNL     1     -10.954  16.641  68.509  1.00  0.00    -0.339 C  
HETATM   14  N   UNL     1     -10.525  17.795  69.141  1.00  0.00    -0.414 N  
HETATM   15  O   UNL     1     -10.711  16.337  67.342  1.00  0.00    -0.319 OA 
HETATM   16  H   UNL     1     -10.797  17.935  70.113  1.00  0.00     0.000 HD 
BRANCH  14  17
HETATM   17  C   UNL     1      -9.731  18.793  68.522  1.00  0.00    -0.380 A  
HETATM   18  C   UNL     1     -10.278  19.836  67.767  1.00  0.00    -0.571 A  
HETATM   19  C   UNL     1      -9.460  20.734  67.082  1.00  0.00    -0.444 A  
HETATM   20  C   UNL     1      -8.079  20.615  67.167  1.00  0.00    -0.308 A  
HETATM   21  C   UNL     1      -7.519  19.618  67.964  1.00  0.00    -0.331 A  
HETATM   22  C   UNL     1      -8.341  18.715  68.651  1.00  0.00    -0.344 A  
ENDBRANCH  14  17
ENDBRANCH  12  13
ENDBRANCH  11  12
ENDBRANCH  10  11
ENDBRANCH   9  10
ENDBRANCH   8   9
ENDBRANCH   7   8
ENDBRANCH   4   7
TORSDOF 8
ENDMDL
MODEL       22
REMARK 921   NORMALIZED FREE ENERGY PREDICTED BY IDOCK:   -5.62 KCAL/MOL
REMARK 922        TOTAL FREE ENERGY PREDICTED BY IDOCK:   -9.04 KCAL/MOL
REMARK 923 INTER-LIGAND FREE ENERGY PREDICTED BY IDOCK:   -8.22 KCAL/MOL
REMARK 924 INTRA-LIGAND FREE ENERGY PREDICTED BY IDOCK:   -0.82 KCAL/MOL
REMARK 927      BINDING AFFINITY PREDICTED BY RF-SCORE:    0.00 PKD
ROOT
HETATM    1  O   UNL     1     -13.642  13.511  72.603  1.00  0.00    -0.629 OA 
HETATM    2  N   UNL     1     -13.003  14.528  73.329  1.00  0.00    -0.499 N  
HETATM    3  H   UNL     1     -14.000  12.756  73.057  1.00  0.00     0.000 HD 
HETATM    4  C   UNL     1     -12.488  15.613  72.677  1.00  0.00    -0.428 C  
HETATM    5  H   UNL     1     -12.924  14.458  74.343  1.00  0.00     0.000 HD 
HETATM    6  O   UNL     1     -11.945  16.515  73.312  1.00  0.00    -0.494 OA 
ENDROOT
BRANCH   4   7
HETATM    7  C   UNL     1     -12.631  15.612  71.168  1.00  0.00    -0.511 C  
BRANCH   7   8
HETATM    8  C   UNL     1     -11.334  16.011  70.470  1.00  0.00    -0.420 C  
BRANCH   8   9
HETATM    9  C   UNL     1     -11.425  15.775  68.967  1.00  0.00    -0.394 C  
BRANCH   9  10
HETATM   10  C   UNL     1     -10.124  15.186  68.413  1.00  0.00    -0.225 C  
BRANCH  10  11
HETATM   11  C   UNL     1     -10.293  13.689  68.209  1.00  0.00    -0.251 C  
BRANCH  11  12
HETATM   12  C   UNL     1     -11.750  13.222  68.164  1.00  0.00    -0.397 C  
BRANCH  12  13
HETATM   13  C   UNL     1     -11.819  11.809  68.721  1.00  0.00    -0.320 C  
HETATM   14  N   UNL     1     -11.737  11.740  70.101  1.00  0.00    -0.475 N  
HETATM   15  O   UNL     1     -11.959  10.847  67.968  1.00  0.00    -0.586 OA 
HETATM   16  H   UNL     1     -11.616  12.612  70.616  1.00  0.00     0.000 HD 
BRANCH  14  17
HETATM   17  C   UNL     1     -11.810  10.536  70.843  1.00  0.00    -0.355 A  
HETATM   18  C   UNL     1     -12.952  10.150  71.552  1.00  0.00    -0.547 A  
HETATM   19  C   UNL     1     -12.949   9.013  72.360  1.00  0.00    -0.471 A  
HETATM   20  C   UNL     1     -11.805   8.230  72.448  1.00  0.00    -0.461 A  
HETATM   21  C   UNL     1     -10.678   8.568  71.700  1.00  0.00    -0.351 A  
HETATM   22  C   UNL     1     -10.682   9.711  70.890  1.00  0.00    -0.402 A  
ENDBRANCH  14  17
ENDBRANCH  12  13
ENDBRANCH  11  12
ENDBRANCH  10  11
ENDBRANCH   9  10
ENDBRANCH   8   9
ENDBRANCH   7   8
ENDBRANCH   4   7
TORSDOF 8
ENDMDL
MODEL       23
REMARK 921   NORMALIZED FREE ENERGY PREDICTED BY IDOCK:   -5.61 KCAL/MOL
REMARK 922        TOTAL FREE ENERGY PREDICTED BY IDOCK:   -9.02 KCAL/MOL
REMARK 923 INTER-LIGAND FREE ENERGY PREDICTED BY IDOCK:   -8.29 KCAL/MOL
REMARK 924 INTRA-LIGAND FREE ENERGY PREDICTED BY IDOCK:   -0.73 KCAL/MOL
REMARK 927      BINDING AFFINITY PREDICTED BY RF-SCORE:    0.00 PKD
ROOT
HETATM    1  O   UNL     1     -12.088  10.460  68.396  1.00  0.00    -0.769 OA 
HETATM    2  N   UNL     1     -11.693   9.753  69.542  1.00  0.00    -0.450 N  
HETATM    3  H   UNL     1     -12.012  10.058  67.538  1.00  0.00     0.000 HD 
HETATM    4  C   UNL     1     -11.803  10.331  70.774  1.00  0.00    -0.365 C  
HETATM    5  H   UNL     1     -11.323   8.807  69.454  1.00  0.00     0.000 HD 
HETATM    6  O   UNL     1     -11.474   9.707  71.782  1.00  0.00    -0.365 OA 
ENDROOT
BRANCH   4   7
HETATM    7  C   UNL     1     -12.336  11.750  70.798  1.00  0.00    -0.433 C  
BRANCH   7   8
HETATM    8  C   UNL     1     -13.191  12.019  72.034  1.00  0.00    -0.481 C  
BRANCH   8   9
HETATM    9  C   UNL     1     -13.643  13.474  72.081  1.00  0.00    -0.651 C  
BRANCH   9  10
HETATM   10  C   UNL     1     -12.795  14.292  73.061  1.00  0.00    -0.461 C  
BRANCH  10  11
HETATM   11  C   UNL     1     -11.811  15.151  72.283  1.00  0.00    -0.493 C  
BRANCH  11  12
HETATM   12  C   UNL     1     -12.396  15.787  71.019  1.00  0.00    -0.465 C  
BRANCH  12  13
HETATM   13  C   UNL     1     -11.551  15.357  69.830  1.00  0.00    -0.323 C  
HETATM   14  N   UNL     1     -12.248  15.281  68.637  1.00  0.00    -0.583 N  
HETATM   15  O   UNL     1     -10.349  15.129  69.968  1.00  0.00    -0.238 OA 
HETATM   16  H   UNL     1     -13.246  15.489  68.655  1.00  0.00     0.000 HD 
BRANCH  14  17
HETATM   17  C   UNL     1     -11.663  14.932  67.395  1.00  0.00    -0.293 A  
HETATM   18  C   UNL     1     -12.001  13.767  66.698  1.00  0.00    -0.469 A  
HETATM   19  C   UNL     1     -11.325  13.402  65.535  1.00  0.00    -0.310 A  
HETATM   20  C   UNL     1     -10.315  14.216  65.037  1.00  0.00    -0.443 A  
HETATM   21  C   UNL     1     -10.009  15.411  65.686  1.00  0.00    -0.396 A  
HETATM   22  C   UNL     1     -10.687  15.776  66.856  1.00  0.00    -0.299 A  
ENDBRANCH  14  17
ENDBRANCH  12  13
ENDBRANCH  11  12
ENDBRANCH  10  11
ENDBRANCH   9  10
ENDBRANCH   8   9
ENDBRANCH   7   8
ENDBRANCH   4   7
TORSDOF 8
ENDMDL
MODEL       24
REMARK 921   NORMALIZED FREE ENERGY PREDICTED BY IDOCK:   -5.61 KCAL/MOL
REMARK 922        TOTAL FREE ENERGY PREDICTED BY IDOCK:   -9.02 KCAL/MOL
REMARK 923 INTER-LIGAND FREE ENERGY PREDICTED BY IDOCK:   -8.83 KCAL/MOL
REMARK 924 INTRA-LIGAND FREE ENERGY PREDICTED BY IDOCK:   -0.18 KCAL/MOL
REMARK 927      BINDING AFFINITY PREDICTED BY RF-SCORE:    0.00 PKD
ROOT
HETATM    1  O   UNL     1     -13.931  12.912  72.582  1.00  0.00    -0.727 OA 
HETATM    2  N   UNL     1     -13.710  14.288  72.410  1.00  0.00    -0.478 N  
HETATM    3  H   UNL     1     -14.522  12.607  73.261  1.00  0.00     0.000 HD 
HETATM    4  C   UNL     1     -12.861  14.727  71.434  1.00  0.00    -0.336 C  
HETATM    5  H   UNL     1     -14.184  14.959  73.013  1.00  0.00     0.000 HD 
HETATM    6  O   UNL     1     -12.680  15.932  71.268  1.00  0.00    -0.467 OA 
ENDROOT
BRANCH   4   7
HETATM    7  C   UNL     1     -12.183  13.651  70.608  1.00  0.00    -0.434 C  
BRANCH   7   8
HETATM    8  C   UNL     1     -11.864  14.131  69.195  1.00  0.00    -0.380 C  
BRANCH   8   9
HETATM    9  C   UNL     1     -10.899  13.179  68.498  1.00  0.00    -0.285 C  
BRANCH   9  10
HETATM   10  C   UNL     1     -11.226  13.043  67.008  1.00  0.00    -0.325 C  
BRANCH  10  11
HETATM   11  C   UNL     1     -10.259  13.891  66.198  1.00  0.00    -0.307 C  
BRANCH  11  12
HETATM   12  C   UNL     1     -10.886  14.561  64.973  1.00  0.00    -0.425 C  
BRANCH  12  13
HETATM   13  C   UNL     1     -10.894  16.065  65.199  1.00  0.00    -0.395 C  
HETATM   14  N   UNL     1     -10.419  16.454  66.440  1.00  0.00    -0.304 N  
HETATM   15  O   UNL     1     -11.279  16.828  64.314  1.00  0.00    -1.163 OA 
HETATM   16  H   UNL     1     -10.133  15.723  67.091  1.00  0.00     0.000 HD 
BRANCH  14  17
HETATM   17  C   UNL     1     -10.305  17.801  66.862  1.00  0.00    -0.344 A  
HETATM   18  C   UNL     1     -10.310  18.878  65.969  1.00  0.00    -0.485 A  
HETATM   19  C   UNL     1     -10.084  20.182  66.411  1.00  0.00    -0.569 A  
HETATM   20  C   UNL     1      -9.876  20.427  67.762  1.00  0.00    -0.494 A  
HETATM   21  C   UNL     1      -9.928  19.372  68.672  1.00  0.00    -0.527 A  
HETATM   22  C   UNL     1     -10.153  18.064  68.227  1.00  0.00    -0.390 A  
ENDBRANCH  14  17
ENDBRANCH  12  13
ENDBRANCH  11  12
ENDBRANCH  10  11
ENDBRANCH   9  10
ENDBRANCH   8   9
ENDBRANCH   7   8
ENDBRANCH   4   7
TORSDOF 8
ENDMDL
MODEL       25
REMARK 921   NORMALIZED FREE ENERGY PREDICTED BY IDOCK:   -5.56 KCAL/MOL
REMARK 922        TOTAL FREE ENERGY PREDICTED BY IDOCK:   -8.94 KCAL/MOL
REMARK 923 INTER-LIGAND FREE ENERGY PREDICTED BY IDOCK:   -8.29 KCAL/MOL
REMARK 924 INTRA-LIGAND FREE ENERGY PREDICTED BY IDOCK:   -0.65 KCAL/MOL
REMARK 927      BINDING AFFINITY PREDICTED BY RF-SCORE:    0.00 PKD
ROOT
HETATM    1  O   UNL     1      -8.083  20.291  65.577  1.00  0.00    -0.465 OA 
HETATM    2  N   UNL     1      -9.424  20.342  65.986  1.00  0.00    -0.651 N  
HETATM    3  H   UNL     1      -7.731  20.969  65.012  1.00  0.00     0.000 HD 
HETATM    4  C   UNL     1      -9.929  19.368  66.799  1.00  0.00    -0.378 C  
HETATM    5  H   UNL     1     -10.022  21.108  65.677  1.00  0.00     0.000 HD 
HETATM    6  O   UNL     1     -11.099  19.420  67.174  1.00  0.00    -0.445 OA 
ENDROOT
BRANCH   4   7
HETATM    7  C   UNL     1      -8.971  18.257  67.181  1.00  0.00    -0.264 C  
BRANCH   7   8
HETATM    8  C   UNL     1      -9.678  16.911  67.314  1.00  0.00    -0.251 C  
BRANCH   8   9
HETATM    9  C   UNL     1      -9.065  15.875  66.379  1.00  0.00    -0.355 C  
BRANCH   9  10
HETATM   10  C   UNL     1     -10.127  14.912  65.838  1.00  0.00    -0.348 C  
BRANCH  10  11
HETATM   11  C   UNL     1     -10.400  13.829  66.870  1.00  0.00    -0.266 C  
BRANCH  11  12
HETATM   12  C   UNL     1     -11.881  13.647  67.211  1.00  0.00    -0.429 C  
BRANCH  12  13
HETATM   13  C   UNL     1     -12.032  13.670  68.724  1.00  0.00    -0.359 C  
HETATM   14  N   UNL     1     -12.485  14.876  69.230  1.00  0.00    -0.575 N  
HETATM   15  O   UNL     1     -11.779  12.668  69.392  1.00  0.00    -0.297 OA 
HETATM   16  H   UNL     1     -12.654  15.636  68.571  1.00  0.00     0.000 HD 
BRANCH  14  17
HETATM   17  C   UNL     1     -12.730  15.120  70.604  1.00  0.00    -0.398 A  
HETATM   18  C   UNL     1     -13.905  14.718  71.248  1.00  0.00    -0.460 A  
HETATM   19  C   UNL     1     -14.158  15.073  72.573  1.00  0.00    -0.503 A  
HETATM   20  C   UNL     1     -13.222  15.817  73.280  1.00  0.00    -0.687 A  
HETATM   21  C   UNL     1     -12.020  16.174  72.671  1.00  0.00    -0.653 A  
HETATM   22  C   UNL     1     -11.767  15.818  71.340  1.00  0.00    -0.508 A  
ENDBRANCH  14  17
ENDBRANCH  12  13
ENDBRANCH  11  12
ENDBRANCH  10  11
ENDBRANCH   9  10
ENDBRANCH   8   9
ENDBRANCH   7   8
ENDBRANCH   4   7
TORSDOF 8
ENDMDL
MODEL       26
REMARK 921   NORMALIZED FREE ENERGY PREDICTED BY IDOCK:   -5.55 KCAL/MOL
REMARK 922        TOTAL FREE ENERGY PREDICTED BY IDOCK:   -8.93 KCAL/MOL
REMARK 923 INTER-LIGAND FREE ENERGY PREDICTED BY IDOCK:   -8.31 KCAL/MOL
REMARK 924 INTRA-LIGAND FREE ENERGY PREDICTED BY IDOCK:   -0.62 KCAL/MOL
REMARK 927      BINDING AFFINITY PREDICTED BY RF-SCORE:    0.00 PKD
ROOT
HETATM    1  O   UNL     1     -11.765  16.367  70.564  1.00  0.00    -0.482 OA 
HETATM    2  N   UNL     1     -11.950  16.476  71.951  1.00  0.00    -0.641 N  
HETATM    3  H   UNL     1     -11.010  16.772  70.152  1.00  0.00     0.000 HD 
HETATM    4  C   UNL     1     -13.034  15.893  72.544  1.00  0.00    -0.452 C  
HETATM    5  H   UNL     1     -11.275  16.990  72.517  1.00  0.00     0.000 HD 
HETATM    6  O   UNL     1     -13.190  15.971  73.761  1.00  0.00    -0.601 OA 
ENDROOT
BRANCH   4   7
HETATM    7  C   UNL     1     -13.995  15.176  71.616  1.00  0.00    -0.618 C  
BRANCH   7   8
HETATM    8  C   UNL     1     -14.337  13.776  72.117  1.00  0.00    -0.465 C  
BRANCH   8   9
HETATM    9  C   UNL     1     -13.090  12.904  72.204  1.00  0.00    -0.466 C  
BRANCH   9  10
HETATM   10  C   UNL     1     -13.406  11.442  71.875  1.00  0.00    -0.409 C  
BRANCH  10  11
HETATM   11  C   UNL     1     -12.573  11.000  70.682  1.00  0.00    -0.427 C  
BRANCH  11  12
HETATM   12  C   UNL     1     -11.978  12.154  69.870  1.00  0.00    -0.380 C  
BRANCH  12  13
HETATM   13  C   UNL     1     -11.719  11.661  68.455  1.00  0.00    -0.307 C  
HETATM   14  N   UNL     1     -11.682  12.666  67.504  1.00  0.00    -0.363 N  
HETATM   15  O   UNL     1     -11.542  10.464  68.233  1.00  0.00    -0.321 OA 
HETATM   16  H   UNL     1     -11.850  13.623  67.814  1.00  0.00     0.000 HD 
BRANCH  14  17
HETATM   17  C   UNL     1     -11.426  12.449  66.127  1.00  0.00    -0.379 A  
HETATM   18  C   UNL     1     -10.152  12.151  65.631  1.00  0.00    -0.274 A  
HETATM   19  C   UNL     1      -9.918  12.054  64.260  1.00  0.00    -0.266 A  
HETATM   20  C   UNL     1     -10.966  12.228  63.365  1.00  0.00    -0.467 A  
HETATM   21  C   UNL     1     -12.252  12.465  63.846  1.00  0.00    -0.603 A  
HETATM   22  C   UNL     1     -12.487  12.564  65.224  1.00  0.00    -0.390 A  
ENDBRANCH  14  17
ENDBRANCH  12  13
ENDBRANCH  11  12
ENDBRANCH  10  11
ENDBRANCH   9  10
ENDBRANCH   8   9
ENDBRANCH   7   8
ENDBRANCH   4   7
TORSDOF 8
ENDMDL
MODEL       27
REMARK 921   NORMALIZED FREE ENERGY PREDICTED BY IDOCK:   -5.54 KCAL/MOL
REMARK 922        TOTAL FREE ENERGY PREDICTED BY IDOCK:   -8.91 KCAL/MOL
REMARK 923 INTER-LIGAND FREE ENERGY PREDICTED BY IDOCK:   -8.14 KCAL/MOL
REMARK 924 INTRA-LIGAND FREE ENERGY PREDICTED BY IDOCK:   -0.77 KCAL/MOL
REMARK 927      BINDING AFFINITY PREDICTED BY RF-SCORE:    0.00 PKD
ROOT
HETATM    1  O   UNL     1     -13.737   9.667  70.812  1.00  0.00    -0.567 OA 
HETATM    2  N   UNL     1     -12.436   9.162  70.956  1.00  0.00    -0.458 N  
HETATM    3  H   UNL     1     -14.484   9.138  71.069  1.00  0.00     0.000 HD 
HETATM    4  C   UNL     1     -11.362   9.922  70.587  1.00  0.00    -0.339 C  
HETATM    5  H   UNL     1     -12.291   8.227  71.337  1.00  0.00     0.000 HD 
HETATM    6  O   UNL     1     -10.220   9.490  70.730  1.00  0.00    -0.275 OA 
ENDROOT
BRANCH   4   7
HETATM    7  C   UNL     1     -11.681  11.286  70.006  1.00  0.00    -0.428 C  
BRANCH   7   8
HETATM    8  C   UNL     1     -10.786  11.624  68.817  1.00  0.00    -0.262 C  
BRANCH   8   9
HETATM    9  C   UNL     1     -11.472  11.282  67.500  1.00  0.00    -0.324 C  
BRANCH   9  10
HETATM   10  C   UNL     1     -11.252  12.379  66.453  1.00  0.00    -0.365 C  
BRANCH  10  11
HETATM   11  C   UNL     1     -12.130  13.575  66.783  1.00  0.00    -0.425 C  
BRANCH  11  12
HETATM   12  C   UNL     1     -11.354  14.868  67.049  1.00  0.00    -0.345 C  
BRANCH  12  13
HETATM   13  C   UNL     1     -11.217  15.045  68.553  1.00  0.00    -0.287 C  
HETATM   14  N   UNL     1     -12.416  14.986  69.242  1.00  0.00    -0.581 N  
HETATM   15  O   UNL     1     -10.109  15.201  69.065  1.00  0.00    -0.225 OA 
HETATM   16  H   UNL     1     -13.270  14.858  68.701  1.00  0.00     0.000 HD 
BRANCH  14  17
HETATM   17  C   UNL     1     -12.530  15.093  70.650  1.00  0.00    -0.388 A  
HETATM   18  C   UNL     1     -11.885  16.090  71.390  1.00  0.00    -0.531 A  
HETATM   19  C   UNL     1     -11.932  16.098  72.783  1.00  0.00    -0.638 A  
HETATM   20  C   UNL     1     -12.650  15.117  73.456  1.00  0.00    -0.682 A  
HETATM   21  C   UNL     1     -13.348  14.152  72.732  1.00  0.00    -0.618 A  
HETATM   22  C   UNL     1     -13.300  14.145  71.332  1.00  0.00    -0.402 A  
ENDBRANCH  14  17
ENDBRANCH  12  13
ENDBRANCH  11  12
ENDBRANCH  10  11
ENDBRANCH   9  10
ENDBRANCH   8   9
ENDBRANCH   7   8
ENDBRANCH   4   7
TORSDOF 8
ENDMDL
MODEL       28
REMARK 921   NORMALIZED FREE ENERGY PREDICTED BY IDOCK:   -5.53 KCAL/MOL
REMARK 922        TOTAL FREE ENERGY PREDICTED BY IDOCK:   -8.91 KCAL/MOL
REMARK 923 INTER-LIGAND FREE ENERGY PREDICTED BY IDOCK:   -8.38 KCAL/MOL
REMARK 924 INTRA-LIGAND FREE ENERGY PREDICTED BY IDOCK:   -0.53 KCAL/MOL
REMARK 927      BINDING AFFINITY PREDICTED BY RF-SCORE:    0.00 PKD
ROOT
HETATM    1  O   UNL     1     -12.834  11.437  62.870  1.00  0.00    -0.881 OA 
HETATM    2  N   UNL     1     -11.456  11.220  63.028  1.00  0.00    -0.818 N  
HETATM    3  H   UNL     1     -13.362  10.813  62.386  1.00  0.00     0.000 HD 
HETATM    4  C   UNL     1     -10.698  12.116  63.725  1.00  0.00    -0.437 C  
HETATM    5  H   UNL     1     -11.022  10.391  62.623  1.00  0.00     0.000 HD 
HETATM    6  O   UNL     1      -9.494  11.919  63.881  1.00  0.00    -0.118 OA 
ENDROOT
BRANCH   4   7
HETATM    7  C   UNL     1     -11.429  13.330  64.265  1.00  0.00    -0.435 C  
BRANCH   7   8
HETATM    8  C   UNL     1     -10.624  14.052  65.341  1.00  0.00    -0.351 C  
BRANCH   8   9
HETATM    9  C   UNL     1     -10.689  15.563  65.153  1.00  0.00    -0.460 C  
BRANCH   9  10
HETATM   10  C   UNL     1      -9.656  16.281  66.028  1.00  0.00    -0.371 C  
BRANCH  10  11
HETATM   11  C   UNL     1     -10.372  17.191  67.012  1.00  0.00    -0.308 C  
BRANCH  11  12
HETATM   12  C   UNL     1      -9.587  17.466  68.297  1.00  0.00    -0.292 C  
BRANCH  12  13
HETATM   13  C   UNL     1      -9.987  16.429  69.335  1.00  0.00    -0.214 C  
HETATM   14  N   UNL     1     -11.262  16.600  69.844  1.00  0.00    -0.391 N  
HETATM   15  O   UNL     1      -9.213  15.524  69.644  1.00  0.00    -0.275 OA 
HETATM   16  H   UNL     1     -11.806  17.395  69.511  1.00  0.00     0.000 HD 
BRANCH  14  17
HETATM   17  C   UNL     1     -11.860  15.739  70.798  1.00  0.00    -0.404 A  
HETATM   18  C   UNL     1     -12.482  14.535  70.448  1.00  0.00    -0.407 A  
HETATM   19  C   UNL     1     -13.156  13.770  71.399  1.00  0.00    -0.413 A  
HETATM   20  C   UNL     1     -13.192  14.187  72.724  1.00  0.00    -0.604 A  
HETATM   21  C   UNL     1     -12.526  15.353  73.099  1.00  0.00    -0.572 A  
HETATM   22  C   UNL     1     -11.851  16.122  72.142  1.00  0.00    -0.626 A  
ENDBRANCH  14  17
ENDBRANCH  12  13
ENDBRANCH  11  12
ENDBRANCH  10  11
ENDBRANCH   9  10
ENDBRANCH   8   9
ENDBRANCH   7   8
ENDBRANCH   4   7
TORSDOF 8
ENDMDL
MODEL       29
REMARK 921   NORMALIZED FREE ENERGY PREDICTED BY IDOCK:   -5.53 KCAL/MOL
REMARK 922        TOTAL FREE ENERGY PREDICTED BY IDOCK:   -8.90 KCAL/MOL
REMARK 923 INTER-LIGAND FREE ENERGY PREDICTED BY IDOCK:   -8.09 KCAL/MOL
REMARK 924 INTRA-LIGAND FREE ENERGY PREDICTED BY IDOCK:   -0.81 KCAL/MOL
REMARK 927      BINDING AFFINITY PREDICTED BY RF-SCORE:    0.00 PKD
ROOT
HETATM    1  O   UNL     1     -12.300  11.592  62.853  1.00  0.00    -0.923 OA 
HETATM    2  N   UNL     1     -11.907  12.917  63.104  1.00  0.00    -0.848 N  
HETATM    3  H   UNL     1     -12.552  11.329  61.976  1.00  0.00     0.000 HD 
HETATM    4  C   UNL     1     -11.545  13.296  64.365  1.00  0.00    -0.382 C  
HETATM    5  H   UNL     1     -11.892  13.596  62.343  1.00  0.00     0.000 HD 
HETATM    6  O   UNL     1     -11.183  14.450  64.584  1.00  0.00    -0.377 OA 
ENDROOT
BRANCH   4   7
HETATM    7  C   UNL     1     -11.629  12.222  65.432  1.00  0.00    -0.412 C  
BRANCH   7   8
HETATM    8  C   UNL     1     -10.292  11.514  65.638  1.00  0.00    -0.308 C  
BRANCH   8   9
HETATM    9  C   UNL     1      -9.825  11.635  67.084  1.00  0.00    -0.205 C  
BRANCH   9  10
HETATM   10  C   UNL     1      -8.544  12.469  67.189  1.00  0.00    -0.200 C  
BRANCH  10  11
HETATM   11  C   UNL     1      -8.722  13.536  68.257  1.00  0.00    -0.172 C  
BRANCH  11  12
HETATM   12  C   UNL     1      -9.460  14.788  67.776  1.00  0.00    -0.204 C  
BRANCH  12  13
HETATM   13  C   UNL     1     -10.731  14.942  68.598  1.00  0.00    -0.250 C  
HETATM   14  N   UNL     1     -10.542  14.807  69.963  1.00  0.00    -0.466 N  
HETATM   15  O   UNL     1     -11.804  15.186  68.049  1.00  0.00    -0.331 OA 
HETATM   16  H   UNL     1      -9.601  14.598  70.295  1.00  0.00     0.000 HD 
BRANCH  14  17
HETATM   17  C   UNL     1     -11.573  14.941  70.925  1.00  0.00    -0.297 A  
HETATM   18  C   UNL     1     -11.663  16.034  71.793  1.00  0.00    -0.593 A  
HETATM   19  C   UNL     1     -12.626  16.077  72.801  1.00  0.00    -0.565 A  
HETATM   20  C   UNL     1     -13.534  15.034  72.935  1.00  0.00    -0.565 A  
HETATM   21  C   UNL     1     -13.496  13.966  72.039  1.00  0.00    -0.543 A  
HETATM   22  C   UNL     1     -12.527  13.923  71.029  1.00  0.00    -0.452 A  
ENDBRANCH  14  17
ENDBRANCH  12  13
ENDBRANCH  11  12
ENDBRANCH  10  11
ENDBRANCH   9  10
ENDBRANCH   8   9
ENDBRANCH   7   8
ENDBRANCH   4   7
TORSDOF 8
ENDMDL
MODEL       30
REMARK 921   NORMALIZED FREE ENERGY PREDICTED BY IDOCK:   -5.53 KCAL/MOL
REMARK 922        TOTAL FREE ENERGY PREDICTED BY IDOCK:   -8.90 KCAL/MOL
REMARK 923 INTER-LIGAND FREE ENERGY PREDICTED BY IDOCK:   -8.20 KCAL/MOL
REMARK 924 INTRA-LIGAND FREE ENERGY PREDICTED BY IDOCK:   -0.70 KCAL/MOL
REMARK 927      BINDING AFFINITY PREDICTED BY RF-SCORE:    0.00 PKD
ROOT
HETATM    1  O   UNL     1     -14.353   8.573  72.970  1.00  0.00    -0.963 OA 
HETATM    2  N   UNL     1     -14.006   7.650  71.971  1.00  0.00    -0.549 N  
HETATM    3  H   UNL     1     -15.255   8.641  73.263  1.00  0.00     0.000 HD 
HETATM    4  C   UNL     1     -12.711   7.552  71.551  1.00  0.00    -0.359 C  
HETATM    5  H   UNL     1     -14.722   7.052  71.559  1.00  0.00     0.000 HD 
HETATM    6  O   UNL     1     -12.400   6.732  70.689  1.00  0.00    -0.359 OA 
ENDROOT
BRANCH   4   7
HETATM    7  C   UNL     1     -11.726   8.503  72.203  1.00  0.00    -0.448 C  
BRANCH   7   8
HETATM    8  C   UNL     1     -11.370   9.674  71.291  1.00  0.00    -0.458 C  
BRANCH   8   9
HETATM    9  C   UNL     1     -10.092   9.392  70.510  1.00  0.00    -0.335 C  
BRANCH   9  10
HETATM   10  C   UNL     1     -10.101  10.096  69.150  1.00  0.00    -0.226 C  
BRANCH  10  11
HETATM   11  C   UNL     1     -11.488  10.659  68.881  1.00  0.00    -0.334 C  
BRANCH  11  12
HETATM   12  C   UNL     1     -11.505  11.855  67.925  1.00  0.00    -0.385 C  
BRANCH  12  13
HETATM   13  C   UNL     1     -11.904  13.094  68.713  1.00  0.00    -0.324 C  
HETATM   14  N   UNL     1     -12.124  12.862  70.059  1.00  0.00    -0.317 N  
HETATM   15  O   UNL     1     -11.989  14.188  68.156  1.00  0.00    -0.351 OA 
HETATM   16  H   UNL     1     -12.028  11.906  70.400  1.00  0.00     0.000 HD 
BRANCH  14  17
HETATM   17  C   UNL     1     -12.475  13.868  70.993  1.00  0.00    -0.377 A  
HETATM   18  C   UNL     1     -11.657  14.971  71.262  1.00  0.00    -0.384 A  
HETATM   19  C   UNL     1     -11.983  15.881  72.267  1.00  0.00    -0.617 A  
HETATM   20  C   UNL     1     -13.151  15.713  73.000  1.00  0.00    -0.641 A  
HETATM   21  C   UNL     1     -14.007  14.654  72.702  1.00  0.00    -0.408 A  
HETATM   22  C   UNL     1     -13.678  13.739  71.694  1.00  0.00    -0.364 A  
ENDBRANCH  14  17
ENDBRANCH  12  13
ENDBRANCH  11  12
ENDBRANCH  10  11
ENDBRANCH   9  10
ENDBRANCH   8   9
ENDBRANCH   7   8
ENDBRANCH   4   7
TORSDOF 8
ENDMDL
MODEL       31
REMARK 921   NORMALIZED FREE ENERGY PREDICTED BY IDOCK:   -5.52 KCAL/MOL
REMARK 922        TOTAL FREE ENERGY PREDICTED BY IDOCK:   -8.89 KCAL/MOL
REMARK 923 INTER-LIGAND FREE ENERGY PREDICTED BY IDOCK:   -8.27 KCAL/MOL
REMARK 924 INTRA-LIGAND FREE ENERGY PREDICTED BY IDOCK:   -0.62 KCAL/MOL
REMARK 927      BINDING AFFINITY PREDICTED BY RF-SCORE:    0.00 PKD
ROOT
HETATM    1  O   UNL     1     -14.248   8.744  73.187  1.00  0.00    -1.112 OA 
HETATM    2  N   UNL     1     -12.892   8.583  72.862  1.00  0.00    -0.549 N  
HETATM    3  H   UNL     1     -14.645   8.199  73.856  1.00  0.00     0.000 HD 
HETATM    4  C   UNL     1     -12.321   9.367  71.900  1.00  0.00    -0.375 C  
HETATM    5  H   UNL     1     -12.333   7.881  73.345  1.00  0.00     0.000 HD 
HETATM    6  O   UNL     1     -11.129   9.241  71.627  1.00  0.00    -0.349 OA 
ENDROOT
BRANCH   4   7
HETATM    7  C   UNL     1     -13.241  10.362  71.220  1.00  0.00    -0.431 C  
BRANCH   7   8
HETATM    8  C   UNL     1     -12.943  11.798  71.641  1.00  0.00    -0.467 C  
BRANCH   8   9
HETATM    9  C   UNL     1     -12.273  12.573  70.512  1.00  0.00    -0.382 C  
BRANCH   9  10
HETATM   10  C   UNL     1     -11.990  14.022  70.919  1.00  0.00    -0.343 C  
BRANCH  10  11
HETATM   11  C   UNL     1     -12.692  14.964  69.954  1.00  0.00    -0.126 C  
BRANCH  11  12
HETATM   12  C   UNL     1     -11.743  15.769  69.062  1.00  0.00    -0.405 C  
BRANCH  12  13
HETATM   13  C   UNL     1     -11.257  14.866  67.939  1.00  0.00    -0.315 C  
HETATM   14  N   UNL     1     -12.271  14.329  67.165  1.00  0.00    -0.589 N  
HETATM   15  O   UNL     1     -10.054  14.679  67.765  1.00  0.00    -0.226 OA 
HETATM   16  H   UNL     1     -13.233  14.555  67.416  1.00  0.00     0.000 HD 
BRANCH  14  17
HETATM   17  C   UNL     1     -12.057  13.485  66.047  1.00  0.00    -0.445 A  
HETATM   18  C   UNL     1     -11.536  12.192  66.162  1.00  0.00    -0.429 A  
HETATM   19  C   UNL     1     -11.235  11.433  65.032  1.00  0.00    -0.159 A  
HETATM   20  C   UNL     1     -11.478  11.952  63.766  1.00  0.00    -0.542 A  
HETATM   21  C   UNL     1     -12.054  13.215  63.636  1.00  0.00    -0.583 A  
HETATM   22  C   UNL     1     -12.354  13.977  64.773  1.00  0.00    -0.437 A  
ENDBRANCH  14  17
ENDBRANCH  12  13
ENDBRANCH  11  12
ENDBRANCH  10  11
ENDBRANCH   9  10
ENDBRANCH   8   9
ENDBRANCH   7   8
ENDBRANCH   4   7
TORSDOF 8
ENDMDL
MODEL       32
REMARK 921   NORMALIZED FREE ENERGY PREDICTED BY IDOCK:   -5.51 KCAL/MOL
REMARK 922        TOTAL FREE ENERGY PREDICTED BY IDOCK:   -8.87 KCAL/MOL
REMARK 923 INTER-LIGAND FREE ENERGY PREDICTED BY IDOCK:   -8.32 KCAL/MOL
REMARK 924 INTRA-LIGAND FREE ENERGY PREDICTED BY IDOCK:   -0.55 KCAL/MOL
REMARK 927      BINDING AFFINITY PREDICTED BY RF-SCORE:    0.00 PKD
ROOT
HETATM    1  O   UNL     1     -13.666  13.854  72.754  1.00  0.00    -0.686 OA 
HETATM    2  N   UNL     1     -13.733  12.467  72.552  1.00  0.00    -0.502 N  
HETATM    3  H   UNL     1     -14.142  14.253  73.474  1.00  0.00     0.000 HD 
HETATM    4  C   UNL     1     -13.049  11.893  71.518  1.00  0.00    -0.275 C  
HETATM    5  H   UNL     1     -14.292  11.887  73.177  1.00  0.00     0.000 HD 
HETATM    6  O   UNL     1     -13.090  10.676  71.349  1.00  0.00    -0.392 OA 
ENDROOT
BRANCH   4   7
HETATM    7  C   UNL     1     -12.271  12.841  70.627  1.00  0.00    -0.374 C  
BRANCH   7   8
HETATM    8  C   UNL     1     -11.810  12.167  69.338  1.00  0.00    -0.370 C  
BRANCH   8   9
HETATM    9  C   UNL     1     -11.360  13.199  68.310  1.00  0.00    -0.333 C  
BRANCH   9  10
HETATM   10  C   UNL     1     -11.730  12.769  66.888  1.00  0.00    -0.447 C  
BRANCH  10  11
HETATM   11  C   UNL     1     -12.238  13.973  66.111  1.00  0.00    -0.494 C  
BRANCH  11  12
HETATM   12  C   UNL     1     -11.305  14.435  64.988  1.00  0.00    -0.373 C  
BRANCH  12  13
HETATM   13  C   UNL     1     -10.991  15.908  65.200  1.00  0.00    -0.377 C  
HETATM   14  N   UNL     1     -10.330  16.181  66.385  1.00  0.00    -0.305 N  
HETATM   15  O   UNL     1     -11.300  16.741  64.349  1.00  0.00    -1.089 OA 
HETATM   16  H   UNL     1     -10.135  15.402  67.012  1.00  0.00     0.000 HD 
BRANCH  14  17
HETATM   17  C   UNL     1      -9.910  17.475  66.780  1.00  0.00    -0.306 A  
HETATM   18  C   UNL     1     -10.779  18.416  67.342  1.00  0.00    -0.397 A  
HETATM   19  C   UNL     1     -10.354  19.716  67.616  1.00  0.00    -0.583 A  
HETATM   20  C   UNL     1      -9.039  20.083  67.354  1.00  0.00    -0.460 A  
HETATM   21  C   UNL     1      -8.146  19.139  66.852  1.00  0.00    -0.277 A  
HETATM   22  C   UNL     1      -8.574  17.835  66.575  1.00  0.00    -0.283 A  
ENDBRANCH  14  17
ENDBRANCH  12  13
ENDBRANCH  11  12
ENDBRANCH  10  11
ENDBRANCH   9  10
ENDBRANCH   8   9
ENDBRANCH   7   8
ENDBRANCH   4   7
TORSDOF 8
ENDMDL
MODEL       33
REMARK 921   NORMALIZED FREE ENERGY PREDICTED BY IDOCK:   -5.49 KCAL/MOL
REMARK 922        TOTAL FREE ENERGY PREDICTED BY IDOCK:   -8.84 KCAL/MOL
REMARK 923 INTER-LIGAND FREE ENERGY PREDICTED BY IDOCK:   -7.88 KCAL/MOL
REMARK 924 INTRA-LIGAND FREE ENERGY PREDICTED BY IDOCK:   -0.97 KCAL/MOL
REMARK 927      BINDING AFFINITY PREDICTED BY RF-SCORE:    0.00 PKD
ROOT
HETATM    1  O   UNL     1     -12.274  11.498  62.899  1.00  0.00    -0.942 OA 
HETATM    2  N   UNL     1     -11.973  12.854  63.101  1.00  0.00    -0.822 N  
HETATM    3  H   UNL     1     -12.516  11.188  62.034  1.00  0.00     0.000 HD 
HETATM    4  C   UNL     1     -11.625  13.299  64.344  1.00  0.00    -0.382 C  
HETATM    5  H   UNL     1     -12.013  13.507  62.319  1.00  0.00     0.000 HD 
HETATM    6  O   UNL     1     -11.342  14.483  64.521  1.00  0.00    -0.368 OA 
ENDROOT
BRANCH   4   7
HETATM    7  C   UNL     1     -11.621  12.258  65.447  1.00  0.00    -0.412 C  
BRANCH   7   8
HETATM    8  C   UNL     1     -10.210  11.784  65.781  1.00  0.00    -0.276 C  
BRANCH   8   9
HETATM    9  C   UNL     1     -10.033  10.308  65.443  1.00  0.00    -0.371 C  
BRANCH   9  10
HETATM   10  C   UNL     1      -9.414   9.536  66.612  1.00  0.00    -0.222 C  
BRANCH  10  11
HETATM   11  C   UNL     1     -10.429   8.544  67.157  1.00  0.00    -0.370 C  
BRANCH  11  12
HETATM   12  C   UNL     1     -10.251   8.216  68.641  1.00  0.00    -0.226 C  
BRANCH  12  13
HETATM   13  C   UNL     1     -10.457   9.492  69.443  1.00  0.00    -0.217 C  
HETATM   14  N   UNL     1     -11.714  10.053  69.301  1.00  0.00    -0.477 N  
HETATM   15  O   UNL     1      -9.558   9.932  70.158  1.00  0.00    -0.245 OA 
HETATM   16  H   UNL     1     -12.373   9.595  68.671  1.00  0.00     0.000 HD 
BRANCH  14  17
HETATM   17  C   UNL     1     -12.143  11.223  69.974  1.00  0.00    -0.348 A  
HETATM   18  C   UNL     1     -11.910  12.511  69.480  1.00  0.00    -0.375 A  
HETATM   19  C   UNL     1     -12.248  13.641  70.224  1.00  0.00    -0.423 A  
HETATM   20  C   UNL     1     -12.853  13.495  71.466  1.00  0.00    -0.440 A  
HETATM   21  C   UNL     1     -13.148  12.219  71.945  1.00  0.00    -0.469 A  
HETATM   22  C   UNL     1     -12.805  11.085  71.198  1.00  0.00    -0.491 A  
ENDBRANCH  14  17
ENDBRANCH  12  13
ENDBRANCH  11  12
ENDBRANCH  10  11
ENDBRANCH   9  10
ENDBRANCH   8   9
ENDBRANCH   7   8
ENDBRANCH   4   7
TORSDOF 8
ENDMDL
MODEL       34
REMARK 921   NORMALIZED FREE ENERGY PREDICTED BY IDOCK:   -5.48 KCAL/MOL
REMARK 922        TOTAL FREE ENERGY PREDICTED BY IDOCK:   -8.83 KCAL/MOL
REMARK 923 INTER-LIGAND FREE ENERGY PREDICTED BY IDOCK:   -8.42 KCAL/MOL
REMARK 924 INTRA-LIGAND FREE ENERGY PREDICTED BY IDOCK:   -0.42 KCAL/MOL
REMARK 927      BINDING AFFINITY PREDICTED BY RF-SCORE:    0.00 PKD
ROOT
HETATM    1  O   UNL     1     -11.536  16.349  63.753  1.00  0.00    -1.605 OA 
HETATM    2  N   UNL     1     -12.534  15.415  64.073  1.00  0.00    -0.863 N  
HETATM    3  H   UNL     1     -11.775  17.239  63.523  1.00  0.00     0.000 HD 
HETATM    4  C   UNL     1     -12.192  14.134  64.403  1.00  0.00    -0.439 C  
HETATM    5  H   UNL     1     -13.515  15.692  64.059  1.00  0.00     0.000 HD 
HETATM    6  O   UNL     1     -13.062  13.319  64.702  1.00  0.00    -0.665 OA 
ENDROOT
BRANCH   4   7
HETATM    7  C   UNL     1     -10.711  13.811  64.367  1.00  0.00    -0.333 C  
BRANCH   7   8
HETATM    8  C   UNL     1     -10.453  12.343  64.043  1.00  0.00    -0.443 C  
BRANCH   8   9
HETATM    9  C   UNL     1      -9.745  11.642  65.197  1.00  0.00    -0.245 C  
BRANCH   9  10
HETATM   10  C   UNL     1      -9.844  10.119  65.072  1.00  0.00    -0.392 C  
BRANCH  10  11
HETATM   11  C   UNL     1      -9.557   9.480  66.421  1.00  0.00    -0.273 C  
BRANCH  11  12
HETATM   12  C   UNL     1     -10.134   8.072  66.585  1.00  0.00    -0.329 C  
BRANCH  12  13
HETATM   13  C   UNL     1      -9.985   7.659  68.041  1.00  0.00    -0.175 C  
HETATM   14  N   UNL     1     -10.980   8.145  68.872  1.00  0.00    -0.427 N  
HETATM   15  O   UNL     1      -9.054   6.935  68.393  1.00  0.00    -0.128 OA 
HETATM   16  H   UNL     1     -11.696   8.742  68.459  1.00  0.00     0.000 HD 
BRANCH  14  17
HETATM   17  C   UNL     1     -11.065   7.865  70.258  1.00  0.00    -0.229 A  
HETATM   18  C   UNL     1     -10.480   8.680  71.233  1.00  0.00    -0.311 A  
HETATM   19  C   UNL     1     -10.490   8.314  72.579  1.00  0.00    -0.406 A  
HETATM   20  C   UNL     1     -11.112   7.135  72.970  1.00  0.00    -0.323 A  
HETATM   21  C   UNL     1     -11.752   6.343  72.018  1.00  0.00    -0.376 A  
HETATM   22  C   UNL     1     -11.740   6.711  70.667  1.00  0.00    -0.452 A  
ENDBRANCH  14  17
ENDBRANCH  12  13
ENDBRANCH  11  12
ENDBRANCH  10  11
ENDBRANCH   9  10
ENDBRANCH   8   9
ENDBRANCH   7   8
ENDBRANCH   4   7
TORSDOF 8
ENDMDL
MODEL       35
REMARK 921   NORMALIZED FREE ENERGY PREDICTED BY IDOCK:   -5.45 KCAL/MOL
REMARK 922        TOTAL FREE ENERGY PREDICTED BY IDOCK:   -8.79 KCAL/MOL
REMARK 923 INTER-LIGAND FREE ENERGY PREDICTED BY IDOCK:   -8.42 KCAL/MOL
REMARK 924 INTRA-LIGAND FREE ENERGY PREDICTED BY IDOCK:   -0.37 KCAL/MOL
REMARK 927      BINDING AFFINITY PREDICTED BY RF-SCORE:    0.00 PKD
ROOT
HETATM    1  O   UNL     1     -14.259   8.868  73.356  1.00  0.00    -1.241 OA 
HETATM    2  N   UNL     1     -13.615   7.959  72.502  1.00  0.00    -0.464 N  
HETATM    3  H   UNL     1     -14.903   8.558  73.982  1.00  0.00     0.000 HD 
HETATM    4  C   UNL     1     -12.689   8.403  71.602  1.00  0.00    -0.331 C  
HETATM    5  H   UNL     1     -13.838   6.965  72.554  1.00  0.00     0.000 HD 
HETATM    6  O   UNL     1     -12.110   7.607  70.865  1.00  0.00    -0.284 OA 
ENDROOT
BRANCH   4   7
HETATM    7  C   UNL     1     -12.447   9.900  71.580  1.00  0.00    -0.507 C  
BRANCH   7   8
HETATM    8  C   UNL     1     -11.367  10.291  70.577  1.00  0.00    -0.422 C  
BRANCH   8   9
HETATM    9  C   UNL     1     -11.893  11.309  69.572  1.00  0.00    -0.427 C  
BRANCH   9  10
HETATM   10  C   UNL     1     -12.041  12.696  70.207  1.00  0.00    -0.372 C  
BRANCH  10  11
HETATM   11  C   UNL     1     -11.820  13.763  69.148  1.00  0.00    -0.398 C  
BRANCH  11  12
HETATM   12  C   UNL     1     -11.710  15.185  69.703  1.00  0.00    -0.353 C  
BRANCH  12  13
HETATM   13  C   UNL     1     -11.054  16.064  68.649  1.00  0.00    -0.349 C  
HETATM   14  N   UNL     1     -10.724  17.332  69.094  1.00  0.00    -0.350 N  
HETATM   15  O   UNL     1     -10.839  15.628  67.519  1.00  0.00    -0.307 OA 
HETATM   16  H   UNL     1     -10.961  17.577  70.055  1.00  0.00     0.000 HD 
BRANCH  14  17
HETATM   17  C   UNL     1     -10.078  18.311  68.298  1.00  0.00    -0.386 A  
HETATM   18  C   UNL     1     -10.753  19.077  67.342  1.00  0.00    -0.559 A  
HETATM   19  C   UNL     1     -10.065  19.951  66.502  1.00  0.00    -0.607 A  
HETATM   20  C   UNL     1      -8.688  20.090  66.627  1.00  0.00    -0.397 A  
HETATM   21  C   UNL     1      -8.009  19.378  67.615  1.00  0.00    -0.318 A  
HETATM   22  C   UNL     1      -8.702  18.499  68.458  1.00  0.00    -0.352 A  
ENDBRANCH  14  17
ENDBRANCH  12  13
ENDBRANCH  11  12
ENDBRANCH  10  11
ENDBRANCH   9  10
ENDBRANCH   8   9
ENDBRANCH   7   8
ENDBRANCH   4   7
TORSDOF 8
ENDMDL
MODEL       36
REMARK 921   NORMALIZED FREE ENERGY PREDICTED BY IDOCK:   -5.44 KCAL/MOL
REMARK 922        TOTAL FREE ENERGY PREDICTED BY IDOCK:   -8.78 KCAL/MOL
REMARK 923 INTER-LIGAND FREE ENERGY PREDICTED BY IDOCK:   -8.38 KCAL/MOL
REMARK 924 INTRA-LIGAND FREE ENERGY PREDICTED BY IDOCK:   -0.40 KCAL/MOL
REMARK 927      BINDING AFFINITY PREDICTED BY RF-SCORE:    0.00 PKD
ROOT
HETATM    1  O   UNL     1     -14.182   8.943  73.335  1.00  0.00    -1.241 OA 
HETATM    2  N   UNL     1     -13.269   8.288  72.495  1.00  0.00    -0.584 N  
HETATM    3  H   UNL     1     -14.671   8.449  73.983  1.00  0.00     0.000 HD 
HETATM    4  C   UNL     1     -12.566   8.998  71.564  1.00  0.00    -0.338 C  
HETATM    5  H   UNL     1     -13.130   7.281  72.580  1.00  0.00     0.000 HD 
HETATM    6  O   UNL     1     -11.751   8.430  70.839  1.00  0.00    -0.284 OA 
ENDROOT
BRANCH   4   7
HETATM    7  C   UNL     1     -12.863  10.483  71.495  1.00  0.00    -0.568 C  
BRANCH   7   8
HETATM    8  C   UNL     1     -12.099  11.168  70.365  1.00  0.00    -0.475 C  
BRANCH   8   9
HETATM    9  C   UNL     1     -12.078  12.680  70.556  1.00  0.00    -0.360 C  
BRANCH   9  10
HETATM   10  C   UNL     1     -12.205  13.414  69.218  1.00  0.00    -0.222 C  
BRANCH  10  11
HETATM   11  C   UNL     1     -10.824  13.603  68.611  1.00  0.00    -0.283 C  
BRANCH  11  12
HETATM   12  C   UNL     1     -10.834  13.923  67.114  1.00  0.00    -0.288 C  
BRANCH  12  13
HETATM   13  C   UNL     1     -10.170  15.275  66.907  1.00  0.00    -0.268 C  
HETATM   14  N   UNL     1     -10.864  16.337  67.458  1.00  0.00    -0.303 N  
HETATM   15  O   UNL     1      -9.096  15.359  66.312  1.00  0.00    -0.288 OA 
HETATM   16  H   UNL     1     -11.750  16.138  67.924  1.00  0.00     0.000 HD 
BRANCH  14  17
HETATM   17  C   UNL     1     -10.423  17.683  67.417  1.00  0.00    -0.356 A  
HETATM   18  C   UNL     1      -9.914  18.349  68.538  1.00  0.00    -0.415 A  
HETATM   19  C   UNL     1      -9.593  19.705  68.486  1.00  0.00    -0.467 A  
HETATM   20  C   UNL     1      -9.754  20.409  67.299  1.00  0.00    -0.602 A  
HETATM   21  C   UNL     1     -10.204  19.746  66.159  1.00  0.00    -0.618 A  
HETATM   22  C   UNL     1     -10.527  18.384  66.212  1.00  0.00    -0.421 A  
ENDBRANCH  14  17
ENDBRANCH  12  13
ENDBRANCH  11  12
ENDBRANCH  10  11
ENDBRANCH   9  10
ENDBRANCH   8   9
ENDBRANCH   7   8
ENDBRANCH   4   7
TORSDOF 8
ENDMDL
MODEL       37
REMARK 921   NORMALIZED FREE ENERGY PREDICTED BY IDOCK:   -5.44 KCAL/MOL
REMARK 922        TOTAL FREE ENERGY PREDICTED BY IDOCK:   -8.77 KCAL/MOL
REMARK 923 INTER-LIGAND FREE ENERGY PREDICTED BY IDOCK:   -8.15 KCAL/MOL
REMARK 924 INTRA-LIGAND FREE ENERGY PREDICTED BY IDOCK:   -0.62 KCAL/MOL
REMARK 927      BINDING AFFINITY PREDICTED BY RF-SCORE:    0.00 PKD
ROOT
HETATM    1  O   UNL     1     -14.093  15.535  70.662  1.00  0.00    -0.849 OA 
HETATM    2  N   UNL     1     -13.385  15.730  71.858  1.00  0.00    -0.443 N  
HETATM    3  H   UNL     1     -14.200  16.253  70.050  1.00  0.00     0.000 HD 
HETATM    4  C   UNL     1     -13.231  14.698  72.739  1.00  0.00    -0.497 C  
HETATM    5  H   UNL     1     -12.985  16.645  72.070  1.00  0.00     0.000 HD 
HETATM    6  O   UNL     1     -12.596  14.861  73.779  1.00  0.00    -0.529 OA 
ENDROOT
BRANCH   4   7
HETATM    7  C   UNL     1     -13.886  13.387  72.349  1.00  0.00    -0.665 C  
BRANCH   7   8
HETATM    8  C   UNL     1     -12.999  12.558  71.424  1.00  0.00    -0.347 C  
BRANCH   8   9
HETATM    9  C   UNL     1     -13.107  11.072  71.749  1.00  0.00    -0.554 C  
BRANCH   9  10
HETATM   10  C   UNL     1     -12.062  10.255  70.982  1.00  0.00    -0.487 C  
BRANCH  10  11
HETATM   11  C   UNL     1     -11.538  11.073  69.813  1.00  0.00    -0.401 C  
BRANCH  11  12
HETATM   12  C   UNL     1     -11.166  10.242  68.583  1.00  0.00    -0.263 C  
BRANCH  12  13
HETATM   13  C   UNL     1     -10.888  11.193  67.428  1.00  0.00    -0.266 C  
HETATM   14  N   UNL     1     -11.649  12.349  67.450  1.00  0.00    -0.350 N  
HETATM   15  O   UNL     1     -10.034  10.919  66.585  1.00  0.00    -0.195 OA 
HETATM   16  H   UNL     1     -12.330  12.457  68.201  1.00  0.00     0.000 HD 
BRANCH  14  17
HETATM   17  C   UNL     1     -11.540  13.390  66.496  1.00  0.00    -0.357 A  
HETATM   18  C   UNL     1     -10.678  14.480  66.658  1.00  0.00    -0.305 A  
HETATM   19  C   UNL     1     -10.680  15.541  65.752  1.00  0.00    -0.362 A  
HETATM   20  C   UNL     1     -11.530  15.511  64.654  1.00  0.00    -0.326 A  
HETATM   21  C   UNL     1     -12.351  14.404  64.446  1.00  0.00    -0.428 A  
HETATM   22  C   UNL     1     -12.350  13.340  65.357  1.00  0.00    -0.528 A  
ENDBRANCH  14  17
ENDBRANCH  12  13
ENDBRANCH  11  12
ENDBRANCH  10  11
ENDBRANCH   9  10
ENDBRANCH   8   9
ENDBRANCH   7   8
ENDBRANCH   4   7
TORSDOF 8
ENDMDL
MODEL       38
REMARK 921   NORMALIZED FREE ENERGY PREDICTED BY IDOCK:   -5.34 KCAL/MOL
REMARK 922        TOTAL FREE ENERGY PREDICTED BY IDOCK:   -8.63 KCAL/MOL
REMARK 923 INTER-LIGAND FREE ENERGY PREDICTED BY IDOCK:   -7.42 KCAL/MOL
REMARK 924 INTRA-LIGAND FREE ENERGY PREDICTED BY IDOCK:   -1.20 KCAL/MOL
REMARK 927      BINDING AFFINITY PREDICTED BY RF-SCORE:    0.00 PKD
ROOT
HETATM    1  O   UNL     1     -11.821  12.112  70.673  1.00  0.00    -0.492 OA 
HETATM    2  N   UNL     1     -11.905  13.400  70.121  1.00  0.00    -0.472 N  
HETATM    3  H   UNL     1     -11.831  11.997  71.616  1.00  0.00     0.000 HD 
HETATM    4  C   UNL     1     -11.890  13.566  68.766  1.00  0.00    -0.355 C  
HETATM    5  H   UNL     1     -11.977  14.212  70.734  1.00  0.00     0.000 HD 
HETATM    6  O   UNL     1     -11.983  14.692  68.279  1.00  0.00    -0.310 OA 
ENDROOT
BRANCH   4   7
HETATM    7  C   UNL     1     -11.751  12.301  67.942  1.00  0.00    -0.410 C  
BRANCH   7   8
HETATM    8  C   UNL     1     -10.290  11.931  67.703  1.00  0.00    -0.217 C  
BRANCH   8   9
HETATM    9  C   UNL     1      -9.862  12.279  66.282  1.00  0.00    -0.254 C  
BRANCH   9  10
HETATM   10  C   UNL     1     -11.042  12.202  65.308  1.00  0.00    -0.367 C  
BRANCH  10  11
HETATM   11  C   UNL     1     -10.992  13.388  64.359  1.00  0.00    -0.413 C  
BRANCH  11  12
HETATM   12  C   UNL     1     -12.114  14.408  64.569  1.00  0.00    -0.498 C  
BRANCH  12  13
HETATM   13  C   UNL     1     -11.487  15.782  64.750  1.00  0.00    -0.255 C  
HETATM   14  N   UNL     1     -10.758  15.922  65.917  1.00  0.00    -0.317 N  
HETATM   15  O   UNL     1     -11.629  16.651  63.890  1.00  0.00    -1.204 OA 
HETATM   16  H   UNL     1     -10.720  15.127  66.555  1.00  0.00     0.000 HD 
BRANCH  14  17
HETATM   17  C   UNL     1     -10.061  17.101  66.283  1.00  0.00    -0.320 A  
HETATM   18  C   UNL     1      -8.676  17.238  66.138  1.00  0.00    -0.198 A  
HETATM   19  C   UNL     1      -8.011  18.369  66.611  1.00  0.00    -0.278 A  
HETATM   20  C   UNL     1      -8.731  19.393  67.214  1.00  0.00    -0.336 A  
HETATM   21  C   UNL     1     -10.118  19.297  67.311  1.00  0.00    -0.481 A  
HETATM   22  C   UNL     1     -10.785  18.161  66.837  1.00  0.00    -0.246 A  
ENDBRANCH  14  17
ENDBRANCH  12  13
ENDBRANCH  11  12
ENDBRANCH  10  11
ENDBRANCH   9  10
ENDBRANCH   8   9
ENDBRANCH   7   8
ENDBRANCH   4   7
TORSDOF 8
ENDMDL
MODEL       39
REMARK 921   NORMALIZED FREE ENERGY PREDICTED BY IDOCK:   -5.34 KCAL/MOL
REMARK 922        TOTAL FREE ENERGY PREDICTED BY IDOCK:   -8.62 KCAL/MOL
REMARK 923 INTER-LIGAND FREE ENERGY PREDICTED BY IDOCK:   -7.60 KCAL/MOL
REMARK 924 INTRA-LIGAND FREE ENERGY PREDICTED BY IDOCK:   -1.03 KCAL/MOL
REMARK 927      BINDING AFFINITY PREDICTED BY RF-SCORE:    0.00 PKD
ROOT
HETATM    1  O   UNL     1     -14.123   8.962  73.349  1.00  0.00    -1.256 OA 
HETATM    2  N   UNL     1     -13.507   9.777  72.387  1.00  0.00    -0.629 N  
HETATM    3  H   UNL     1     -14.955   9.220  73.729  1.00  0.00     0.000 HD 
HETATM    4  C   UNL     1     -12.311   9.407  71.841  1.00  0.00    -0.375 C  
HETATM    5  H   UNL     1     -13.953  10.646  72.095  1.00  0.00     0.000 HD 
HETATM    6  O   UNL     1     -11.778  10.110  70.984  1.00  0.00    -0.337 OA 
ENDROOT
BRANCH   4   7
HETATM    7  C   UNL     1     -11.714   8.114  72.361  1.00  0.00    -0.461 C  
BRANCH   7   8
HETATM    8  C   UNL     1     -12.229   6.898  71.596  1.00  0.00    -0.403 C  
BRANCH   8   9
HETATM    9  C   UNL     1     -11.415   6.661  70.330  1.00  0.00    -0.449 C  
BRANCH   9  10
HETATM   10  C   UNL     1      -9.933   6.980  70.550  1.00  0.00    -0.191 C  
BRANCH  10  11
HETATM   11  C   UNL     1      -9.475   7.996  69.516  1.00  0.00    -0.160 C  
BRANCH  11  12
HETATM   12  C   UNL     1     -10.427   8.154  68.328  1.00  0.00    -0.210 C  
BRANCH  12  13
HETATM   13  C   UNL     1     -10.341   9.589  67.832  1.00  0.00    -0.227 C  
HETATM   14  N   UNL     1     -11.513  10.311  67.979  1.00  0.00    -0.497 N  
HETATM   15  O   UNL     1      -9.289  10.028  67.368  1.00  0.00    -0.146 OA 
HETATM   16  H   UNL     1     -12.321   9.831  68.374  1.00  0.00     0.000 HD 
BRANCH  14  17
HETATM   17  C   UNL     1     -11.660  11.673  67.617  1.00  0.00    -0.279 A  
HETATM   18  C   UNL     1     -11.669  12.107  66.288  1.00  0.00    -0.389 A  
HETATM   19  C   UNL     1     -11.704  13.465  65.973  1.00  0.00    -0.398 A  
HETATM   20  C   UNL     1     -11.757  14.409  66.991  1.00  0.00    -0.420 A  
HETATM   21  C   UNL     1     -11.810  13.990  68.320  1.00  0.00    -0.406 A  
HETATM   22  C   UNL     1     -11.773  12.626  68.634  1.00  0.00    -0.364 A  
ENDBRANCH  14  17
ENDBRANCH  12  13
ENDBRANCH  11  12
ENDBRANCH  10  11
ENDBRANCH   9  10
ENDBRANCH   8   9
ENDBRANCH   7   8
ENDBRANCH   4   7
TORSDOF 8
ENDMDL
MODEL       40
REMARK 921   NORMALIZED FREE ENERGY PREDICTED BY IDOCK:   -5.33 KCAL/MOL
REMARK 922        TOTAL FREE ENERGY PREDICTED BY IDOCK:   -8.61 KCAL/MOL
REMARK 923 INTER-LIGAND FREE ENERGY PREDICTED BY IDOCK:   -8.07 KCAL/MOL
REMARK 924 INTRA-LIGAND FREE ENERGY PREDICTED BY IDOCK:   -0.54 KCAL/MOL
REMARK 927      BINDING AFFINITY PREDICTED BY RF-SCORE:    0.00 PKD
ROOT
HETATM    1  O   UNL     1      -9.529  20.985  66.977  1.00  0.00    -0.688 OA 
HETATM    2  N   UNL     1      -8.848  20.106  66.121  1.00  0.00    -0.564 N  
HETATM    3  H   UNL     1      -9.654  21.893  66.725  1.00  0.00     0.000 HD 
HETATM    4  C   UNL     1      -8.668  18.801  66.482  1.00  0.00    -0.312 C  
HETATM    5  H   UNL     1      -8.488  20.442  65.228  1.00  0.00     0.000 HD 
HETATM    6  O   UNL     1      -8.089  18.024  65.726  1.00  0.00    -0.525 OA 
ENDROOT
BRANCH   4   7
HETATM    7  C   UNL     1      -9.215  18.405  67.840  1.00  0.00    -0.294 C  
BRANCH   7   8
HETATM    8  C   UNL     1     -10.235  17.275  67.739  1.00  0.00    -0.332 C  
BRANCH   8   9
HETATM    9  C   UNL     1     -10.736  16.863  69.118  1.00  0.00    -0.298 C  
BRANCH   9  10
HETATM   10  C   UNL     1     -11.785  15.752  69.023  1.00  0.00    -0.405 C  
BRANCH  10  11
HETATM   11  C   UNL     1     -11.118  14.405  69.250  1.00  0.00    -0.300 C  
BRANCH  11  12
HETATM   12  C   UNL     1     -11.250  13.434  68.074  1.00  0.00    -0.298 C  
BRANCH  12  13
HETATM   13  C   UNL     1     -11.690  12.082  68.615  1.00  0.00    -0.326 C  
HETATM   14  N   UNL     1     -11.423  11.897  69.961  1.00  0.00    -0.516 N  
HETATM   15  O   UNL     1     -12.249  11.268  67.882  1.00  0.00    -0.570 OA 
HETATM   16  H   UNL     1     -10.947  12.647  70.460  1.00  0.00     0.000 HD 
BRANCH  14  17
HETATM   17  C   UNL     1     -11.771  10.731  70.687  1.00  0.00    -0.342 A  
HETATM   18  C   UNL     1     -13.020  10.558  71.293  1.00  0.00    -0.532 A  
HETATM   19  C   UNL     1     -13.286   9.447  72.092  1.00  0.00    -0.541 A  
HETATM   20  C   UNL     1     -12.309   8.476  72.273  1.00  0.00    -0.450 A  
HETATM   21  C   UNL     1     -11.081   8.603  71.627  1.00  0.00    -0.375 A  
HETATM   22  C   UNL     1     -10.814   9.721  70.826  1.00  0.00    -0.403 A  
ENDBRANCH  14  17
ENDBRANCH  12  13
ENDBRANCH  11  12
ENDBRANCH  10  11
ENDBRANCH   9  10
ENDBRANCH   8   9
ENDBRANCH   7   8
ENDBRANCH   4   7
TORSDOF 8
ENDMDL
MODEL       41
REMARK 921   NORMALIZED FREE ENERGY PREDICTED BY IDOCK:   -5.32 KCAL/MOL
REMARK 922        TOTAL FREE ENERGY PREDICTED BY IDOCK:   -8.60 KCAL/MOL
REMARK 923 INTER-LIGAND FREE ENERGY PREDICTED BY IDOCK:   -7.79 KCAL/MOL
REMARK 924 INTRA-LIGAND FREE ENERGY PREDICTED BY IDOCK:   -0.81 KCAL/MOL
REMARK 927      BINDING AFFINITY PREDICTED BY RF-SCORE:    0.00 PKD
ROOT
HETATM    1  O   UNL     1      -9.684  12.631  63.367  1.00  0.00    -0.620 OA 
HETATM    2  N   UNL     1     -10.863  11.902  63.146  1.00  0.00    -0.687 N  
HETATM    3  H   UNL     1      -8.845  12.267  63.109  1.00  0.00     0.000 HD 
HETATM    4  C   UNL     1     -12.070  12.424  63.517  1.00  0.00    -0.558 C  
HETATM    5  H   UNL     1     -10.819  10.982  62.708  1.00  0.00     0.000 HD 
HETATM    6  O   UNL     1     -13.106  11.796  63.308  1.00  0.00    -0.598 OA 
ENDROOT
BRANCH   4   7
HETATM    7  C   UNL     1     -12.029  13.784  64.185  1.00  0.00    -0.473 C  
BRANCH   7   8
HETATM    8  C   UNL     1     -12.748  13.782  65.532  1.00  0.00    -0.530 C  
BRANCH   8   9
HETATM    9  C   UNL     1     -11.844  14.318  66.636  1.00  0.00    -0.442 C  
BRANCH   9  10
HETATM   10  C   UNL     1     -10.844  13.256  67.104  1.00  0.00    -0.268 C  
BRANCH  10  11
HETATM   11  C   UNL     1      -9.441  13.660  66.679  1.00  0.00    -0.285 C  
BRANCH  11  12
HETATM   12  C   UNL     1      -8.533  14.088  67.835  1.00  0.00    -0.170 C  
BRANCH  12  13
HETATM   13  C   UNL     1      -8.734  15.576  68.078  1.00  0.00    -0.163 C  
HETATM   14  N   UNL     1      -8.975  16.310  66.930  1.00  0.00    -0.204 N  
HETATM   15  O   UNL     1      -8.697  16.033  69.220  1.00  0.00    -0.248 OA 
HETATM   16  H   UNL     1      -8.975  15.814  66.039  1.00  0.00     0.000 HD 
BRANCH  14  17
HETATM   17  C   UNL     1      -9.222  17.705  66.915  1.00  0.00    -0.263 A  
HETATM   18  C   UNL     1      -8.228  18.648  66.635  1.00  0.00    -0.289 A  
HETATM   19  C   UNL     1      -8.482  20.015  66.738  1.00  0.00    -0.380 A  
HETATM   20  C   UNL     1      -9.748  20.458  67.098  1.00  0.00    -0.601 A  
HETATM   21  C   UNL     1     -10.766  19.532  67.321  1.00  0.00    -0.604 A  
HETATM   22  C   UNL     1     -10.509  18.159  67.219  1.00  0.00    -0.407 A  
ENDBRANCH  14  17
ENDBRANCH  12  13
ENDBRANCH  11  12
ENDBRANCH  10  11
ENDBRANCH   9  10
ENDBRANCH   8   9
ENDBRANCH   7   8
ENDBRANCH   4   7
TORSDOF 8
ENDMDL
MODEL       42
REMARK 921   NORMALIZED FREE ENERGY PREDICTED BY IDOCK:   -5.32 KCAL/MOL
REMARK 922        TOTAL FREE ENERGY PREDICTED BY IDOCK:   -8.60 KCAL/MOL
REMARK 923 INTER-LIGAND FREE ENERGY PREDICTED BY IDOCK:   -7.69 KCAL/MOL
REMARK 924 INTRA-LIGAND FREE ENERGY PREDICTED BY IDOCK:   -0.91 KCAL/MOL
REMARK 927      BINDING AFFINITY PREDICTED BY RF-SCORE:    0.00 PKD
ROOT
HETATM    1  O   UNL     1     -11.785  16.289  63.708  1.00  0.00    -1.511 OA 
HETATM    2  N   UNL     1     -10.942  15.770  64.704  1.00  0.00    -0.662 N  
HETATM    3  H   UNL     1     -11.607  17.143  63.333  1.00  0.00     0.000 HD 
HETATM    4  C   UNL     1     -11.197  14.542  65.244  1.00  0.00    -0.352 C  
HETATM    5  H   UNL     1     -10.140  16.311  65.025  1.00  0.00     0.000 HD 
HETATM    6  O   UNL     1     -10.450  14.077  66.104  1.00  0.00    -0.285 OA 
ENDROOT
BRANCH   4   7
HETATM    7  C   UNL     1     -12.429  13.828  64.723  1.00  0.00    -0.386 C  
BRANCH   7   8
HETATM    8  C   UNL     1     -12.138  13.041  63.448  1.00  0.00    -0.591 C  
BRANCH   8   9
HETATM    9  C   UNL     1     -11.595  11.654  63.772  1.00  0.00    -0.430 C  
BRANCH   9  10
HETATM   10  C   UNL     1     -10.135  11.508  63.332  1.00  0.00    -0.454 C  
BRANCH  10  11
HETATM   11  C   UNL     1      -9.581  10.190  63.847  1.00  0.00    -0.302 C  
BRANCH  11  12
HETATM   12  C   UNL     1      -8.377  10.338  64.781  1.00  0.00    -0.173 C  
BRANCH  12  13
HETATM   13  C   UNL     1      -8.884  10.737  66.158  1.00  0.00    -0.177 C  
HETATM   14  N   UNL     1     -10.027  10.065  66.557  1.00  0.00    -0.214 N  
HETATM   15  O   UNL     1      -8.281  11.575  66.828  1.00  0.00    -0.158 OA 
HETATM   16  H   UNL     1     -10.438   9.396  65.907  1.00  0.00     0.000 HD 
BRANCH  14  17
HETATM   17  C   UNL     1     -10.661  10.250  67.811  1.00  0.00    -0.250 A  
HETATM   18  C   UNL     1     -11.482  11.347  68.091  1.00  0.00    -0.375 A  
HETATM   19  C   UNL     1     -11.999  11.552  69.370  1.00  0.00    -0.392 A  
HETATM   20  C   UNL     1     -11.720  10.642  70.383  1.00  0.00    -0.446 A  
HETATM   21  C   UNL     1     -10.953   9.512  70.104  1.00  0.00    -0.302 A  
HETATM   22  C   UNL     1     -10.434   9.308  68.819  1.00  0.00    -0.233 A  
ENDBRANCH  14  17
ENDBRANCH  12  13
ENDBRANCH  11  12
ENDBRANCH  10  11
ENDBRANCH   9  10
ENDBRANCH   8   9
ENDBRANCH   7   8
ENDBRANCH   4   7
TORSDOF 8
ENDMDL
MODEL       43
REMARK 921   NORMALIZED FREE ENERGY PREDICTED BY IDOCK:   -5.31 KCAL/MOL
REMARK 922        TOTAL FREE ENERGY PREDICTED BY IDOCK:   -8.58 KCAL/MOL
REMARK 923 INTER-LIGAND FREE ENERGY PREDICTED BY IDOCK:   -8.02 KCAL/MOL
REMARK 924 INTRA-LIGAND FREE ENERGY PREDICTED BY IDOCK:   -0.55 KCAL/MOL
REMARK 927      BINDING AFFINITY PREDICTED BY RF-SCORE:    0.00 PKD
ROOT
HETATM    1  O   UNL     1      -9.603  20.983  66.937  1.00  0.00    -0.671 OA 
HETATM    2  N   UNL     1      -9.907  20.159  65.842  1.00  0.00    -0.591 N  
HETATM    3  H   UNL     1      -9.189  21.827  66.798  1.00  0.00     0.000 HD 
HETATM    4  C   UNL     1     -10.502  18.947  66.042  1.00  0.00    -0.446 C  
HETATM    5  H   UNL     1      -9.682  20.467  64.896  1.00  0.00     0.000 HD 
HETATM    6  O   UNL     1     -10.786  18.231  65.084  1.00  0.00    -0.656 OA 
ENDROOT
BRANCH   4   7
HETATM    7  C   UNL     1     -10.770  18.567  67.486  1.00  0.00    -0.419 C  
BRANCH   7   8
HETATM    8  C   UNL     1     -10.580  17.073  67.729  1.00  0.00    -0.350 C  
BRANCH   8   9
HETATM    9  C   UNL     1     -10.050  16.809  69.134  1.00  0.00    -0.280 C  
BRANCH   9  10
HETATM   10  C   UNL     1     -11.165  16.335  70.072  1.00  0.00    -0.324 C  
BRANCH  10  11
HETATM   11  C   UNL     1     -12.064  15.356  69.334  1.00  0.00    -0.308 C  
BRANCH  11  12
HETATM   12  C   UNL     1     -11.667  13.887  69.505  1.00  0.00    -0.369 C  
BRANCH  12  13
HETATM   13  C   UNL     1     -11.083  13.392  68.191  1.00  0.00    -0.258 C  
HETATM   14  N   UNL     1     -12.006  12.791  67.352  1.00  0.00    -0.335 N  
HETATM   15  O   UNL     1      -9.890  13.555  67.936  1.00  0.00    -0.221 OA 
HETATM   16  H   UNL     1     -12.967  12.710  67.681  1.00  0.00     0.000 HD 
BRANCH  14  17
HETATM   17  C   UNL     1     -11.699  12.283  66.066  1.00  0.00    -0.388 A  
HETATM   18  C   UNL     1     -10.657  11.378  65.837  1.00  0.00    -0.317 A  
HETATM   19  C   UNL     1     -10.315  10.986  64.543  1.00  0.00    -0.420 A  
HETATM   20  C   UNL     1     -11.031  11.477  63.459  1.00  0.00    -0.453 A  
HETATM   21  C   UNL     1     -12.110  12.332  63.675  1.00  0.00    -0.648 A  
HETATM   22  C   UNL     1     -12.453  12.727  64.975  1.00  0.00    -0.572 A  
ENDBRANCH  14  17
ENDBRANCH  12  13
ENDBRANCH  11  12
ENDBRANCH  10  11
ENDBRANCH   9  10
ENDBRANCH   8   9
ENDBRANCH   7   8
ENDBRANCH   4   7
TORSDOF 8
ENDMDL
MODEL       44
REMARK 921   NORMALIZED FREE ENERGY PREDICTED BY IDOCK:   -5.30 KCAL/MOL
REMARK 922        TOTAL FREE ENERGY PREDICTED BY IDOCK:   -8.56 KCAL/MOL
REMARK 923 INTER-LIGAND FREE ENERGY PREDICTED BY IDOCK:   -8.07 KCAL/MOL
REMARK 924 INTRA-LIGAND FREE ENERGY PREDICTED BY IDOCK:   -0.49 KCAL/MOL
REMARK 927      BINDING AFFINITY PREDICTED BY RF-SCORE:    0.00 PKD
ROOT
HETATM    1  O   UNL     1     -12.553  15.048  63.736  1.00  0.00    -0.997 OA 
HETATM    2  N   UNL     1     -12.309  13.830  63.081  1.00  0.00    -1.106 N  
HETATM    3  H   UNL     1     -12.562  15.860  63.242  1.00  0.00     0.000 HD 
HETATM    4  C   UNL     1     -12.297  12.663  63.790  1.00  0.00    -0.478 C  
HETATM    5  H   UNL     1     -12.142  13.818  62.075  1.00  0.00     0.000 HD 
HETATM    6  O   UNL     1     -12.102  11.593  63.216  1.00  0.00    -0.409 OA 
ENDROOT
BRANCH   4   7
HETATM    7  C   UNL     1     -12.528  12.788  65.283  1.00  0.00    -0.528 C  
BRANCH   7   8
HETATM    8  C   UNL     1     -11.301  12.374  66.089  1.00  0.00    -0.398 C  
BRANCH   8   9
HETATM    9  C   UNL     1     -11.605  12.361  67.583  1.00  0.00    -0.421 C  
BRANCH   9  10
HETATM   10  C   UNL     1     -11.848  13.777  68.116  1.00  0.00    -0.411 C  
BRANCH  10  11
HETATM   11  C   UNL     1     -10.662  14.661  67.765  1.00  0.00    -0.265 C  
BRANCH  11  12
HETATM   12  C   UNL     1     -11.020  15.880  66.910  1.00  0.00    -0.172 C  
BRANCH  12  13
HETATM   13  C   UNL     1      -9.764  16.715  66.716  1.00  0.00    -0.261 C  
HETATM   14  N   UNL     1      -9.603  17.722  67.652  1.00  0.00    -0.262 N  
HETATM   15  O   UNL     1      -8.980  16.461  65.803  1.00  0.00    -0.455 OA 
HETATM   16  H   UNL     1     -10.329  17.836  68.359  1.00  0.00     0.000 HD 
BRANCH  14  17
HETATM   17  C   UNL     1      -8.495  18.604  67.688  1.00  0.00    -0.267 A  
HETATM   18  C   UNL     1      -7.554  18.597  68.723  1.00  0.00    -0.327 A  
HETATM   19  C   UNL     1      -6.540  19.553  68.782  1.00  0.00    -0.330 A  
HETATM   20  C   UNL     1      -6.440  20.517  67.786  1.00  0.00    -0.330 A  
HETATM   21  C   UNL     1      -7.333  20.500  66.716  1.00  0.00    -0.315 A  
HETATM   22  C   UNL     1      -8.352  19.540  66.659  1.00  0.00    -0.340 A  
ENDBRANCH  14  17
ENDBRANCH  12  13
ENDBRANCH  11  12
ENDBRANCH  10  11
ENDBRANCH   9  10
ENDBRANCH   8   9
ENDBRANCH   7   8
ENDBRANCH   4   7
TORSDOF 8
ENDMDL
MODEL       45
REMARK 921   NORMALIZED FREE ENERGY PREDICTED BY IDOCK:   -5.28 KCAL/MOL
REMARK 922        TOTAL FREE ENERGY PREDICTED BY IDOCK:   -8.54 KCAL/MOL
REMARK 923 INTER-LIGAND FREE ENERGY PREDICTED BY IDOCK:   -8.71 KCAL/MOL
REMARK 924 INTRA-LIGAND FREE ENERGY PREDICTED BY IDOCK:    0.17 KCAL/MOL
REMARK 927      BINDING AFFINITY PREDICTED BY RF-SCORE:    0.00 PKD
ROOT
HETATM    1  O   UNL     1     -12.251  11.219  62.903  1.00  0.00    -0.884 OA 
HETATM    2  N   UNL     1     -12.837  12.481  63.083  1.00  0.00    -0.654 N  
HETATM    3  H   UNL     1     -12.741  10.522  62.481  1.00  0.00     0.000 HD 
HETATM    4  C   UNL     1     -12.133  13.482  63.689  1.00  0.00    -0.400 C  
HETATM    5  H   UNL     1     -13.789  12.651  62.760  1.00  0.00     0.000 HD 
HETATM    6  O   UNL     1     -12.636  14.595  63.831  1.00  0.00    -0.834 OA 
ENDROOT
BRANCH   4   7
HETATM    7  C   UNL     1     -10.737  13.123  64.159  1.00  0.00    -0.399 C  
BRANCH   7   8
HETATM    8  C   UNL     1     -10.320  13.931  65.385  1.00  0.00    -0.364 C  
BRANCH   8   9
HETATM    9  C   UNL     1     -10.326  13.066  66.640  1.00  0.00    -0.263 C  
BRANCH   9  10
HETATM   10  C   UNL     1     -11.322  11.909  66.516  1.00  0.00    -0.403 C  
BRANCH  10  11
HETATM   11  C   UNL     1     -10.793  10.703  67.275  1.00  0.00    -0.345 C  
BRANCH  11  12
HETATM   12  C   UNL     1     -10.136  11.043  68.616  1.00  0.00    -0.207 C  
BRANCH  12  13
HETATM   13  C   UNL     1     -11.220  11.498  69.580  1.00  0.00    -0.204 C  
HETATM   14  N   UNL     1     -11.198  12.853  69.859  1.00  0.00    -0.482 N  
HETATM   15  O   UNL     1     -12.036  10.693  70.028  1.00  0.00    -0.289 OA 
HETATM   16  H   UNL     1     -10.465  13.417  69.428  1.00  0.00     0.000 HD 
BRANCH  14  17
HETATM   17  C   UNL     1     -12.128  13.507  70.704  1.00  0.00    -0.309 A  
HETATM   18  C   UNL     1     -12.918  12.823  71.634  1.00  0.00    -0.402 A  
HETATM   19  C   UNL     1     -13.901  13.485  72.370  1.00  0.00    -0.687 A  
HETATM   20  C   UNL     1     -14.087  14.852  72.202  1.00  0.00    -0.616 A  
HETATM   21  C   UNL     1     -13.267  15.558  71.324  1.00  0.00    -0.588 A  
HETATM   22  C   UNL     1     -12.282  14.892  70.584  1.00  0.00    -0.379 A  
ENDBRANCH  14  17
ENDBRANCH  12  13
ENDBRANCH  11  12
ENDBRANCH  10  11
ENDBRANCH   9  10
ENDBRANCH   8   9
ENDBRANCH   7   8
ENDBRANCH   4   7
TORSDOF 8
ENDMDL
MODEL       46
REMARK 921   NORMALIZED FREE ENERGY PREDICTED BY IDOCK:   -5.28 KCAL/MOL
REMARK 922        TOTAL FREE ENERGY PREDICTED BY IDOCK:   -8.53 KCAL/MOL
REMARK 923 INTER-LIGAND FREE ENERGY PREDICTED BY IDOCK:   -7.48 KCAL/MOL
REMARK 924 INTRA-LIGAND FREE ENERGY PREDICTED BY IDOCK:   -1.05 KCAL/MOL
REMARK 927      BINDING AFFINITY PREDICTED BY RF-SCORE:    0.00 PKD
ROOT
HETATM    1  O   UNL     1     -13.051  15.981  74.381  1.00  0.00    -0.895 OA 
HETATM    2  N   UNL     1     -12.173  16.442  73.387  1.00  0.00    -0.503 N  
HETATM    3  H   UNL     1     -12.940  16.263  75.281  1.00  0.00     0.000 HD 
HETATM    4  C   UNL     1     -12.332  16.038  72.092  1.00  0.00    -0.482 C  
HETATM    5  H   UNL     1     -11.417  17.080  73.632  1.00  0.00     0.000 HD 
HETATM    6  O   UNL     1     -11.576  16.455  71.217  1.00  0.00    -0.414 OA 
ENDROOT
BRANCH   4   7
HETATM    7  C   UNL     1     -13.467  15.067  71.833  1.00  0.00    -0.500 C  
BRANCH   7   8
HETATM    8  C   UNL     1     -12.963  13.647  71.593  1.00  0.00    -0.448 C  
BRANCH   8   9
HETATM    9  C   UNL     1     -12.704  13.400  70.111  1.00  0.00    -0.024 C  
BRANCH   9  10
HETATM   10  C   UNL     1     -11.205  13.275  69.818  1.00  0.00    -0.029 C  
BRANCH  10  11
HETATM   11  C   UNL     1     -10.962  13.476  68.332  1.00  0.00    -0.289 C  
BRANCH  11  12
HETATM   12  C   UNL     1     -11.871  14.522  67.682  1.00  0.00    -0.395 C  
BRANCH  12  13
HETATM   13  C   UNL     1     -11.012  15.694  67.233  1.00  0.00    -0.275 C  
HETATM   14  N   UNL     1     -11.021  16.770  68.104  1.00  0.00    -0.349 N  
HETATM   15  O   UNL     1     -10.366  15.630  66.188  1.00  0.00    -0.285 OA 
HETATM   16  H   UNL     1     -11.604  16.703  68.938  1.00  0.00     0.000 HD 
BRANCH  14  17
HETATM   17  C   UNL     1     -10.273  17.957  67.909  1.00  0.00    -0.371 A  
HETATM   18  C   UNL     1     -10.742  19.032  67.147  1.00  0.00    -0.541 A  
HETATM   19  C   UNL     1      -9.933  20.138  66.887  1.00  0.00    -0.600 A  
HETATM   20  C   UNL     1      -8.647  20.193  67.410  1.00  0.00    -0.413 A  
HETATM   21  C   UNL     1      -8.187  19.157  68.222  1.00  0.00    -0.369 A  
HETATM   22  C   UNL     1      -9.001  18.046  68.482  1.00  0.00    -0.297 A  
ENDBRANCH  14  17
ENDBRANCH  12  13
ENDBRANCH  11  12
ENDBRANCH  10  11
ENDBRANCH   9  10
ENDBRANCH   8   9
ENDBRANCH   7   8
ENDBRANCH   4   7
TORSDOF 8
ENDMDL
MODEL       47
REMARK 921   NORMALIZED FREE ENERGY PREDICTED BY IDOCK:   -5.20 KCAL/MOL
REMARK 922        TOTAL FREE ENERGY PREDICTED BY IDOCK:   -8.42 KCAL/MOL
REMARK 923 INTER-LIGAND FREE ENERGY PREDICTED BY IDOCK:   -7.82 KCAL/MOL
REMARK 924 INTRA-LIGAND FREE ENERGY PREDICTED BY IDOCK:   -0.61 KCAL/MOL
REMARK 927      BINDING AFFINITY PREDICTED BY RF-SCORE:    0.00 PKD
ROOT
HETATM    1  O   UNL     1     -11.367   5.997  66.229  1.00  0.00    -0.684 OA 
HETATM    2  N   UNL     1     -11.359   6.766  67.403  1.00  0.00    -0.739 N  
HETATM    3  H   UNL     1     -11.898   5.210  66.178  1.00  0.00     0.000 HD 
HETATM    4  C   UNL     1     -10.596   7.896  67.475  1.00  0.00    -0.242 C  
HETATM    5  H   UNL     1     -11.924   6.480  68.202  1.00  0.00     0.000 HD 
HETATM    6  O   UNL     1     -10.601   8.582  68.496  1.00  0.00    -0.193 OA 
ENDROOT
BRANCH   4   7
HETATM    7  C   UNL     1      -9.770   8.221  66.246  1.00  0.00    -0.253 C  
BRANCH   7   8
HETATM    8  C   UNL     1     -10.018   9.643  65.749  1.00  0.00    -0.342 C  
BRANCH   8   9
HETATM    9  C   UNL     1      -9.219   9.929  64.483  1.00  0.00    -0.315 C  
BRANCH   9  10
HETATM   10  C   UNL     1      -9.985  10.857  63.536  1.00  0.00    -0.419 C  
BRANCH  10  11
HETATM   11  C   UNL     1     -11.166  11.468  64.272  1.00  0.00    -0.358 C  
BRANCH  11  12
HETATM   12  C   UNL     1     -11.926  12.527  63.469  1.00  0.00    -0.629 C  
BRANCH  12  13
HETATM   13  C   UNL     1     -11.978  13.807  64.290  1.00  0.00    -0.443 C  
HETATM   14  N   UNL     1     -11.089  13.835  65.350  1.00  0.00    -0.296 N  
HETATM   15  O   UNL     1     -12.747  14.716  63.982  1.00  0.00    -0.772 OA 
HETATM   16  H   UNL     1     -10.506  13.013  65.506  1.00  0.00     0.000 HD 
BRANCH  14  17
HETATM   17  C   UNL     1     -10.937  14.934  66.232  1.00  0.00    -0.338 A  
HETATM   18  C   UNL     1     -11.437  14.932  67.539  1.00  0.00    -0.361 A  
HETATM   19  C   UNL     1     -11.366  16.072  68.339  1.00  0.00    -0.355 A  
HETATM   20  C   UNL     1     -10.768  17.225  67.848  1.00  0.00    -0.351 A  
HETATM   21  C   UNL     1     -10.212  17.224  66.570  1.00  0.00    -0.325 A  
HETATM   22  C   UNL     1     -10.285  16.080  65.766  1.00  0.00    -0.401 A  
ENDBRANCH  14  17
ENDBRANCH  12  13
ENDBRANCH  11  12
ENDBRANCH  10  11
ENDBRANCH   9  10
ENDBRANCH   8   9
ENDBRANCH   7   8
ENDBRANCH   4   7
TORSDOF 8
ENDMDL
MODEL       48
REMARK 921   NORMALIZED FREE ENERGY PREDICTED BY IDOCK:   -5.17 KCAL/MOL
REMARK 922        TOTAL FREE ENERGY PREDICTED BY IDOCK:   -8.38 KCAL/MOL
REMARK 923 INTER-LIGAND FREE ENERGY PREDICTED BY IDOCK:   -7.92 KCAL/MOL
REMARK 924 INTRA-LIGAND FREE ENERGY PREDICTED BY IDOCK:   -0.46 KCAL/MOL
REMARK 927      BINDING AFFINITY PREDICTED BY RF-SCORE:    0.00 PKD
ROOT
HETATM    1  O   UNL     1      -9.483  11.939  63.108  1.00  0.00    -0.581 OA 
HETATM    2  N   UNL     1     -10.833  11.575  62.990  1.00  0.00    -0.762 N  
HETATM    3  H   UNL     1      -8.809  11.404  62.706  1.00  0.00     0.000 HD 
HETATM    4  C   UNL     1     -11.802  12.345  63.568  1.00  0.00    -0.521 C  
HETATM    5  H   UNL     1     -11.091  10.736  62.471  1.00  0.00     0.000 HD 
HETATM    6  O   UNL     1     -12.987  12.039  63.450  1.00  0.00    -0.772 OA 
ENDROOT
BRANCH   4   7
HETATM    7  C   UNL     1     -11.317  13.556  64.341  1.00  0.00    -0.407 C  
BRANCH   7   8
HETATM    8  C   UNL     1     -11.969  13.655  65.717  1.00  0.00    -0.425 C  
BRANCH   8   9
HETATM    9  C   UNL     1     -11.435  12.578  66.655  1.00  0.00    -0.417 C  
BRANCH   9  10
HETATM   10  C   UNL     1     -11.975  12.758  68.077  1.00  0.00    -0.315 C  
BRANCH  10  11
HETATM   11  C   UNL     1     -11.363  11.707  68.988  1.00  0.00    -0.337 C  
BRANCH  11  12
HETATM   12  C   UNL     1     -11.916  11.713  70.416  1.00  0.00    -0.448 C  
BRANCH  12  13
HETATM   13  C   UNL     1     -12.090  10.272  70.870  1.00  0.00    -0.368 C  
HETATM   14  N   UNL     1     -10.904   9.568  70.986  1.00  0.00    -0.329 N  
HETATM   15  O   UNL     1     -13.209   9.827  71.120  1.00  0.00    -0.371 OA 
HETATM   16  H   UNL     1     -10.039  10.049  70.743  1.00  0.00     0.000 HD 
BRANCH  14  17
HETATM   17  C   UNL     1     -10.818   8.223  71.422  1.00  0.00    -0.239 A  
HETATM   18  C   UNL     1     -10.716   7.144  70.537  1.00  0.00    -0.259 A  
HETATM   19  C   UNL     1     -10.744   5.828  70.998  1.00  0.00    -0.326 A  
HETATM   20  C   UNL     1     -10.849   5.575  72.360  1.00  0.00    -0.301 A  
HETATM   21  C   UNL     1     -10.890   6.640  73.259  1.00  0.00    -0.290 A  
HETATM   22  C   UNL     1     -10.863   7.961  72.794  1.00  0.00    -0.451 A  
ENDBRANCH  14  17
ENDBRANCH  12  13
ENDBRANCH  11  12
ENDBRANCH  10  11
ENDBRANCH   9  10
ENDBRANCH   8   9
ENDBRANCH   7   8
ENDBRANCH   4   7
TORSDOF 8
ENDMDL
MODEL       49
REMARK 921   NORMALIZED FREE ENERGY PREDICTED BY IDOCK:   -5.17 KCAL/MOL
REMARK 922        TOTAL FREE ENERGY PREDICTED BY IDOCK:   -8.37 KCAL/MOL
REMARK 923 INTER-LIGAND FREE ENERGY PREDICTED BY IDOCK:   -7.20 KCAL/MOL
REMARK 924 INTRA-LIGAND FREE ENERGY PREDICTED BY IDOCK:   -1.18 KCAL/MOL
REMARK 927      BINDING AFFINITY PREDICTED BY RF-SCORE:    0.00 PKD
ROOT
HETATM    1  O   UNL     1     -10.952  16.185  64.105  1.00  0.00    -1.061 OA 
HETATM    2  N   UNL     1     -11.124  17.279  64.968  1.00  0.00     0.011 N  
HETATM    3  H   UNL     1     -11.497  16.099  63.331  1.00  0.00     0.000 HD 
HETATM    4  C   UNL     1     -10.341  17.403  66.079  1.00  0.00    -0.304 C  
HETATM    5  H   UNL     1     -11.834  17.982  64.763  1.00  0.00     0.000 HD 
HETATM    6  O   UNL     1     -10.477  18.370  66.827  1.00  0.00    -0.380 OA 
ENDROOT
BRANCH   4   7
HETATM    7  C   UNL     1      -9.334  16.294  66.312  1.00  0.00    -0.360 C  
BRANCH   7   8
HETATM    8  C   UNL     1      -8.662  16.407  67.677  1.00  0.00    -0.188 C  
BRANCH   8   9
HETATM    9  C   UNL     1      -9.131  15.298  68.612  1.00  0.00    -0.193 C  
BRANCH   9  10
HETATM   10  C   UNL     1     -10.253  15.781  69.535  1.00  0.00    -0.271 C  
BRANCH  10  11
HETATM   11  C   UNL     1     -11.590  15.279  69.012  1.00  0.00    -0.360 C  
BRANCH  11  12
HETATM   12  C   UNL     1     -11.902  13.827  69.382  1.00  0.00    -0.392 C  
BRANCH  12  13
HETATM   13  C   UNL     1     -11.797  12.977  68.125  1.00  0.00    -0.340 C  
HETATM   14  N   UNL     1     -11.693  13.709  66.955  1.00  0.00    -0.366 N  
HETATM   15  O   UNL     1     -11.787  11.749  68.200  1.00  0.00    -0.451 OA 
HETATM   16  H   UNL     1     -11.718  14.726  67.024  1.00  0.00     0.000 HD 
BRANCH  14  17
HETATM   17  C   UNL     1     -11.553  13.134  65.667  1.00  0.00    -0.338 A  
HETATM   18  C   UNL     1     -12.647  12.822  64.853  1.00  0.00    -0.541 A  
HETATM   19  C   UNL     1     -12.475  12.156  63.640  1.00  0.00    -0.658 A  
HETATM   20  C   UNL     1     -11.198  11.817  63.212  1.00  0.00    -0.357 A  
HETATM   21  C   UNL     1     -10.093  12.175  63.983  1.00  0.00    -0.357 A  
HETATM   22  C   UNL     1     -10.267  12.842  65.202  1.00  0.00    -0.288 A  
ENDBRANCH  14  17
ENDBRANCH  12  13
ENDBRANCH  11  12
ENDBRANCH  10  11
ENDBRANCH   9  10
ENDBRANCH   8   9
ENDBRANCH   7   8
ENDBRANCH   4   7
TORSDOF 8
ENDMDL
MODEL       50
REMARK 921   NORMALIZED FREE ENERGY PREDICTED BY IDOCK:   -5.17 KCAL/MOL
REMARK 922        TOTAL FREE ENERGY PREDICTED BY IDOCK:   -8.37 KCAL/MOL
REMARK 923 INTER-LIGAND FREE ENERGY PREDICTED BY IDOCK:   -7.77 KCAL/MOL
REMARK 924 INTRA-LIGAND FREE ENERGY PREDICTED BY IDOCK:   -0.60 KCAL/MOL
REMARK 927      BINDING AFFINITY PREDICTED BY RF-SCORE:    0.00 PKD
ROOT
HETATM    1  O   UNL     1     -11.798   6.689  69.227  1.00  0.00    -0.629 OA 
HETATM    2  N   UNL     1     -11.275   6.343  70.483  1.00  0.00    -0.326 N  
HETATM    3  H   UNL     1     -11.330   6.452  68.435  1.00  0.00     0.000 HD 
HETATM    4  C   UNL     1     -11.947   6.684  71.622  1.00  0.00    -0.347 C  
HETATM    5  H   UNL     1     -10.392   5.836  70.545  1.00  0.00     0.000 HD 
HETATM    6  O   UNL     1     -11.501   6.365  72.722  1.00  0.00    -0.229 OA 
ENDROOT
BRANCH   4   7
HETATM    7  C   UNL     1     -13.234   7.461  71.427  1.00  0.00    -0.395 C  
BRANCH   7   8
HETATM    8  C   UNL     1     -13.235   8.772  72.208  1.00  0.00    -0.456 C  
BRANCH   8   9
HETATM    9  C   UNL     1     -12.184   9.733  71.667  1.00  0.00    -0.488 C  
BRANCH   9  10
HETATM   10  C   UNL     1     -12.826  11.000  71.094  1.00  0.00    -0.491 C  
BRANCH  10  11
HETATM   11  C   UNL     1     -11.993  11.507  69.928  1.00  0.00    -0.426 C  
BRANCH  11  12
HETATM   12  C   UNL     1     -12.025  13.027  69.748  1.00  0.00    -0.377 C  
BRANCH  12  13
HETATM   13  C   UNL     1     -11.731  13.344  68.290  1.00  0.00    -0.356 C  
HETATM   14  N   UNL     1     -11.714  12.236  67.462  1.00  0.00    -0.352 N  
HETATM   15  O   UNL     1     -11.554  14.507  67.927  1.00  0.00    -0.311 OA 
HETATM   16  H   UNL     1     -11.870  11.322  67.886  1.00  0.00     0.000 HD 
BRANCH  14  17
HETATM   17  C   UNL     1     -11.492  12.291  66.064  1.00  0.00    -0.381 A  
HETATM   18  C   UNL     1     -12.450  12.768  65.162  1.00  0.00    -0.565 A  
HETATM   19  C   UNL     1     -12.239  12.704  63.785  1.00  0.00    -0.600 A  
HETATM   20  C   UNL     1     -11.049  12.183  63.292  1.00  0.00    -0.408 A  
HETATM   21  C   UNL     1     -10.060  11.760  64.178  1.00  0.00    -0.344 A  
HETATM   22  C   UNL     1     -10.274  11.823  65.561  1.00  0.00    -0.291 A  
ENDBRANCH  14  17
ENDBRANCH  12  13
ENDBRANCH  11  12
ENDBRANCH  10  11
ENDBRANCH   9  10
ENDBRANCH   8   9
ENDBRANCH   7   8
ENDBRANCH   4   7
TORSDOF 8
ENDMDL
MODEL       51
REMARK 921   NORMALIZED FREE ENERGY PREDICTED BY IDOCK:   -5.16 KCAL/MOL
REMARK 922        TOTAL FREE ENERGY PREDICTED BY IDOCK:   -8.36 KCAL/MOL
REMARK 923 INTER-LIGAND FREE ENERGY PREDICTED BY IDOCK:   -7.41 KCAL/MOL
REMARK 924 INTRA-LIGAND FREE ENERGY PREDICTED BY IDOCK:   -0.95 KCAL/MOL
REMARK 927      BINDING AFFINITY PREDICTED BY RF-SCORE:    0.00 PKD
ROOT
HETATM    1  O   UNL     1     -10.746  18.479  65.429  1.00  0.00    -0.585 OA 
HETATM    2  N   UNL     1     -10.944  19.013  66.712  1.00  0.00    -0.236 N  
HETATM    3  H   UNL     1     -11.449  18.010  64.995  1.00  0.00     0.000 HD 
HETATM    4  C   UNL     1      -9.934  19.687  67.336  1.00  0.00    -0.385 C  
HETATM    5  H   UNL     1     -11.843  18.897  67.179  1.00  0.00     0.000 HD 
HETATM    6  O   UNL     1     -10.110  20.172  68.452  1.00  0.00    -0.406 OA 
ENDROOT
BRANCH   4   7
HETATM    7  C   UNL     1      -8.627  19.782  66.574  1.00  0.00    -0.396 C  
BRANCH   7   8
HETATM    8  C   UNL     1      -7.551  18.877  67.167  1.00  0.00    -0.240 C  
BRANCH   8   9
HETATM    9  C   UNL     1      -7.288  17.676  66.266  1.00  0.00    -0.345 C  
BRANCH   9  10
HETATM   10  C   UNL     1      -7.114  16.392  67.083  1.00  0.00    -0.235 C  
BRANCH  10  11
HETATM   11  C   UNL     1      -7.868  16.522  68.397  1.00  0.00    -0.187 C  
BRANCH  11  12
HETATM   12  C   UNL     1      -8.802  15.349  68.704  1.00  0.00    -0.186 C  
BRANCH  12  13
HETATM   13  C   UNL     1     -10.012  15.882  69.455  1.00  0.00    -0.274 C  
HETATM   14  N   UNL     1     -10.570  14.979  70.343  1.00  0.00    -0.509 N  
HETATM   15  O   UNL     1     -10.407  17.032  69.267  1.00  0.00    -0.308 OA 
HETATM   16  H   UNL     1     -10.154  14.050  70.403  1.00  0.00     0.000 HD 
BRANCH  14  17
HETATM   17  C   UNL     1     -11.683  15.263  71.172  1.00  0.00    -0.360 A  
HETATM   18  C   UNL     1     -11.551  15.673  72.504  1.00  0.00    -0.507 A  
HETATM   19  C   UNL     1     -12.669  15.836  73.321  1.00  0.00    -0.640 A  
HETATM   20  C   UNL     1     -13.941  15.617  72.806  1.00  0.00    -0.563 A  
HETATM   21  C   UNL     1     -14.092  15.268  71.465  1.00  0.00    -0.625 A  
HETATM   22  C   UNL     1     -12.968  15.102  70.645  1.00  0.00    -0.420 A  
ENDBRANCH  14  17
ENDBRANCH  12  13
ENDBRANCH  11  12
ENDBRANCH  10  11
ENDBRANCH   9  10
ENDBRANCH   8   9
ENDBRANCH   7   8
ENDBRANCH   4   7
TORSDOF 8
ENDMDL
MODEL       52
REMARK 921   NORMALIZED FREE ENERGY PREDICTED BY IDOCK:   -5.15 KCAL/MOL
REMARK 922        TOTAL FREE ENERGY PREDICTED BY IDOCK:   -8.35 KCAL/MOL
REMARK 923 INTER-LIGAND FREE ENERGY PREDICTED BY IDOCK:   -8.19 KCAL/MOL
REMARK 924 INTRA-LIGAND FREE ENERGY PREDICTED BY IDOCK:   -0.16 KCAL/MOL
REMARK 927      BINDING AFFINITY PREDICTED BY RF-SCORE:    0.00 PKD
ROOT
HETATM    1  O   UNL     1     -11.883  13.262  70.269  1.00  0.00    -0.459 OA 
HETATM    2  N   UNL     1     -11.779  11.874  70.450  1.00  0.00    -0.523 N  
HETATM    3  H   UNL     1     -12.329  13.794  70.918  1.00  0.00     0.000 HD 
HETATM    4  C   UNL     1     -11.137  11.109  69.519  1.00  0.00    -0.252 C  
HETATM    5  H   UNL     1     -12.182  11.437  71.279  1.00  0.00     0.000 HD 
HETATM    6  O   UNL     1     -11.027   9.895  69.684  1.00  0.00    -0.233 OA 
ENDROOT
BRANCH   4   7
HETATM    7  C   UNL     1     -10.596  11.847  68.310  1.00  0.00    -0.236 C  
BRANCH   7   8
HETATM    8  C   UNL     1     -10.649  10.992  67.047  1.00  0.00    -0.303 C  
BRANCH   8   9
HETATM    9  C   UNL     1     -11.215  11.783  65.873  1.00  0.00    -0.345 C  
BRANCH   9  10
HETATM   10  C   UNL     1     -12.092  12.943  66.352  1.00  0.00    -0.400 C  
BRANCH  10  11
HETATM   11  C   UNL     1     -12.340  13.901  65.197  1.00  0.00    -0.471 C  
BRANCH  11  12
HETATM   12  C   UNL     1     -11.067  14.516  64.609  1.00  0.00    -0.356 C  
BRANCH  12  13
HETATM   13  C   UNL     1     -11.028  15.989  64.985  1.00  0.00    -0.380 C  
HETATM   14  N   UNL     1     -10.534  16.236  66.254  1.00  0.00    -0.318 N  
HETATM   15  O   UNL     1     -11.395  16.849  64.185  1.00  0.00    -1.208 OA 
HETATM   16  H   UNL     1     -10.267  15.435  66.826  1.00  0.00     0.000 HD 
BRANCH  14  17
HETATM   17  C   UNL     1     -10.375  17.530  66.808  1.00  0.00    -0.314 A  
HETATM   18  C   UNL     1     -10.309  18.687  66.025  1.00  0.00    -0.436 A  
HETATM   19  C   UNL     1     -10.042  19.931  66.597  1.00  0.00    -0.598 A  
HETATM   20  C   UNL     1      -9.863  20.036  67.971  1.00  0.00    -0.522 A  
HETATM   21  C   UNL     1      -9.987  18.901  68.772  1.00  0.00    -0.466 A  
HETATM   22  C   UNL     1     -10.253  17.653  68.196  1.00  0.00    -0.371 A  
ENDBRANCH  14  17
ENDBRANCH  12  13
ENDBRANCH  11  12
ENDBRANCH  10  11
ENDBRANCH   9  10
ENDBRANCH   8   9
ENDBRANCH   7   8
ENDBRANCH   4   7
TORSDOF 8
ENDMDL
MODEL       53
REMARK 921   NORMALIZED FREE ENERGY PREDICTED BY IDOCK:   -5.14 KCAL/MOL
REMARK 922        TOTAL FREE ENERGY PREDICTED BY IDOCK:   -8.33 KCAL/MOL
REMARK 923 INTER-LIGAND FREE ENERGY PREDICTED BY IDOCK:   -7.24 KCAL/MOL
REMARK 924 INTRA-LIGAND FREE ENERGY PREDICTED BY IDOCK:   -1.09 KCAL/MOL
REMARK 927      BINDING AFFINITY PREDICTED BY RF-SCORE:    0.00 PKD
ROOT
HETATM    1  O   UNL     1     -11.652   6.711  67.158  1.00  0.00    -0.749 OA 
HETATM    2  N   UNL     1     -10.821   7.587  67.873  1.00  0.00    -0.469 N  
HETATM    3  H   UNL     1     -11.777   6.830  66.223  1.00  0.00     0.000 HD 
HETATM    4  C   UNL     1     -10.642   7.416  69.216  1.00  0.00    -0.213 C  
HETATM    5  H   UNL     1     -10.351   8.352  67.389  1.00  0.00     0.000 HD 
HETATM    6  O   UNL     1      -9.900   8.171  69.842  1.00  0.00    -0.182 OA 
ENDROOT
BRANCH   4   7
HETATM    7  C   UNL     1     -11.406   6.270  69.849  1.00  0.00    -0.504 C  
BRANCH   7   8
HETATM    8  C   UNL     1     -11.811   6.577  71.288  1.00  0.00    -0.385 C  
BRANCH   8   9
HETATM    9  C   UNL     1     -13.115   7.365  71.334  1.00  0.00    -0.401 C  
BRANCH   9  10
HETATM   10  C   UNL     1     -12.943   8.686  72.089  1.00  0.00    -0.432 C  
BRANCH  10  11
HETATM   11  C   UNL     1     -13.145   9.848  71.129  1.00  0.00    -0.453 C  
BRANCH  11  12
HETATM   12  C   UNL     1     -11.973  10.831  71.077  1.00  0.00    -0.409 C  
BRANCH  12  13
HETATM   13  C   UNL     1     -11.814  11.313  69.644  1.00  0.00    -0.360 C  
HETATM   14  N   UNL     1     -11.383  12.623  69.532  1.00  0.00    -0.448 N  
HETATM   15  O   UNL     1     -12.041  10.556  68.701  1.00  0.00    -0.324 OA 
HETATM   16  H   UNL     1     -11.234  13.151  70.391  1.00  0.00     0.000 HD 
BRANCH  14  17
HETATM   17  C   UNL     1     -11.135  13.277  68.299  1.00  0.00    -0.266 A  
HETATM   18  C   UNL     1     -12.160  13.746  67.471  1.00  0.00    -0.366 A  
HETATM   19  C   UNL     1     -11.881  14.284  66.214  1.00  0.00    -0.420 A  
HETATM   20  C   UNL     1     -10.565  14.384  65.781  1.00  0.00    -0.326 A  
HETATM   21  C   UNL     1      -9.529  13.977  66.621  1.00  0.00    -0.300 A  
HETATM   22  C   UNL     1      -9.810  13.435  67.882  1.00  0.00    -0.237 A  
ENDBRANCH  14  17
ENDBRANCH  12  13
ENDBRANCH  11  12
ENDBRANCH  10  11
ENDBRANCH   9  10
ENDBRANCH   8   9
ENDBRANCH   7   8
ENDBRANCH   4   7
TORSDOF 8
ENDMDL
MODEL       54
REMARK 921   NORMALIZED FREE ENERGY PREDICTED BY IDOCK:   -5.13 KCAL/MOL
REMARK 922        TOTAL FREE ENERGY PREDICTED BY IDOCK:   -8.31 KCAL/MOL
REMARK 923 INTER-LIGAND FREE ENERGY PREDICTED BY IDOCK:   -7.36 KCAL/MOL
REMARK 924 INTRA-LIGAND FREE ENERGY PREDICTED BY IDOCK:   -0.95 KCAL/MOL
REMARK 927      BINDING AFFINITY PREDICTED BY RF-SCORE:    0.00 PKD
ROOT
HETATM    1  O   UNL     1     -12.164  15.408  63.763  1.00  0.00    -0.984 OA 
HETATM    2  N   UNL     1     -12.469  14.168  63.180  1.00  0.00    -1.037 N  
HETATM    3  H   UNL     1     -12.317  16.211  63.280  1.00  0.00     0.000 HD 
HETATM    4  C   UNL     1     -12.249  13.013  63.874  1.00  0.00    -0.437 C  
HETATM    5  H   UNL     1     -12.856  14.130  62.237  1.00  0.00     0.000 HD 
HETATM    6  O   UNL     1     -12.533  11.926  63.374  1.00  0.00    -0.578 OA 
ENDROOT
BRANCH   4   7
HETATM    7  C   UNL     1     -11.645  13.171  65.256  1.00  0.00    -0.350 C  
BRANCH   7   8
HETATM    8  C   UNL     1     -10.296  12.468  65.375  1.00  0.00    -0.305 C  
BRANCH   8   9
HETATM    9  C   UNL     1     -10.380  11.277  66.322  1.00  0.00    -0.294 C  
BRANCH   9  10
HETATM   10  C   UNL     1      -9.299  11.346  67.405  1.00  0.00    -0.171 C  
BRANCH  10  11
HETATM   11  C   UNL     1      -8.363  12.507  67.112  1.00  0.00    -0.179 C  
BRANCH  11  12
HETATM   12  C   UNL     1      -8.074  13.402  68.320  1.00  0.00    -0.152 C  
BRANCH  12  13
HETATM   13  C   UNL     1      -9.007  14.602  68.263  1.00  0.00    -0.184 C  
HETATM   14  N   UNL     1      -8.409  15.762  67.802  1.00  0.00    -0.152 N  
HETATM   15  O   UNL     1     -10.188  14.491  68.590  1.00  0.00    -0.232 OA 
HETATM   16  H   UNL     1      -7.418  15.727  67.568  1.00  0.00     0.000 HD 
BRANCH  14  17
HETATM   17  C   UNL     1      -9.089  16.994  67.636  1.00  0.00    -0.229 A  
HETATM   18  C   UNL     1      -9.262  17.911  68.678  1.00  0.00    -0.269 A  
HETATM   19  C   UNL     1     -10.031  19.061  68.504  1.00  0.00    -0.486 A  
HETATM   20  C   UNL     1     -10.617  19.322  67.272  1.00  0.00    -0.590 A  
HETATM   21  C   UNL     1     -10.403  18.449  66.207  1.00  0.00    -0.440 A  
HETATM   22  C   UNL     1      -9.632  17.293  66.382  1.00  0.00    -0.290 A  
ENDBRANCH  14  17
ENDBRANCH  12  13
ENDBRANCH  11  12
ENDBRANCH  10  11
ENDBRANCH   9  10
ENDBRANCH   8   9
ENDBRANCH   7   8
ENDBRANCH   4   7
TORSDOF 8
ENDMDL
MODEL       55
REMARK 921   NORMALIZED FREE ENERGY PREDICTED BY IDOCK:   -5.12 KCAL/MOL
REMARK 922        TOTAL FREE ENERGY PREDICTED BY IDOCK:   -8.31 KCAL/MOL
REMARK 923 INTER-LIGAND FREE ENERGY PREDICTED BY IDOCK:   -7.63 KCAL/MOL
REMARK 924 INTRA-LIGAND FREE ENERGY PREDICTED BY IDOCK:   -0.67 KCAL/MOL
REMARK 927      BINDING AFFINITY PREDICTED BY RF-SCORE:    0.00 PKD
ROOT
HETATM    1  O   UNL     1     -10.062  11.625  62.884  1.00  0.00    -0.612 OA 
HETATM    2  N   UNL     1     -11.454  11.463  62.970  1.00  0.00    -0.852 N  
HETATM    3  H   UNL     1      -9.564  11.126  62.246  1.00  0.00     0.000 HD 
HETATM    4  C   UNL     1     -12.170  12.180  63.886  1.00  0.00    -0.489 C  
HETATM    5  H   UNL     1     -11.931  10.810  62.348  1.00  0.00     0.000 HD 
HETATM    6  O   UNL     1     -13.392  12.054  63.952  1.00  0.00    -0.669 OA 
ENDROOT
BRANCH   4   7
HETATM    7  C   UNL     1     -11.369  13.102  64.784  1.00  0.00    -0.352 C  
BRANCH   7   8
HETATM    8  C   UNL     1     -11.991  14.492  64.878  1.00  0.00    -0.425 C  
BRANCH   8   9
HETATM    9  C   UNL     1     -10.981  15.511  65.393  1.00  0.00    -0.365 C  
BRANCH   9  10
HETATM   10  C   UNL     1      -9.874  14.838  66.209  1.00  0.00    -0.316 C  
BRANCH  10  11
HETATM   11  C   UNL     1      -9.558  15.687  67.430  1.00  0.00    -0.217 C  
BRANCH  11  12
HETATM   12  C   UNL     1     -10.613  16.749  67.746  1.00  0.00    -0.341 C  
BRANCH  12  13
HETATM   13  C   UNL     1      -9.903  18.068  68.011  1.00  0.00    -0.323 C  
HETATM   14  N   UNL     1      -8.563  18.068  67.667  1.00  0.00    -0.244 N  
HETATM   15  O   UNL     1     -10.519  19.028  68.473  1.00  0.00    -0.316 OA 
HETATM   16  H   UNL     1      -8.165  17.205  67.297  1.00  0.00     0.000 HD 
BRANCH  14  17
HETATM   17  C   UNL     1      -7.709  19.191  67.795  1.00  0.00    -0.262 A  
HETATM   18  C   UNL     1      -7.554  20.145  66.783  1.00  0.00    -0.328 A  
HETATM   19  C   UNL     1      -6.622  21.176  66.901  1.00  0.00    -0.386 A  
HETATM   20  C   UNL     1      -5.848  21.280  68.051  1.00  0.00    -0.376 A  
HETATM   21  C   UNL     1      -6.033  20.373  69.093  1.00  0.00    -0.381 A  
HETATM   22  C   UNL     1      -6.969  19.337  68.972  1.00  0.00    -0.381 A  
ENDBRANCH  14  17
ENDBRANCH  12  13
ENDBRANCH  11  12
ENDBRANCH  10  11
ENDBRANCH   9  10
ENDBRANCH   8   9
ENDBRANCH   7   8
ENDBRANCH   4   7
TORSDOF 8
ENDMDL
MODEL       56
REMARK 921   NORMALIZED FREE ENERGY PREDICTED BY IDOCK:   -5.12 KCAL/MOL
REMARK 922        TOTAL FREE ENERGY PREDICTED BY IDOCK:   -8.30 KCAL/MOL
REMARK 923 INTER-LIGAND FREE ENERGY PREDICTED BY IDOCK:   -7.85 KCAL/MOL
REMARK 924 INTRA-LIGAND FREE ENERGY PREDICTED BY IDOCK:   -0.45 KCAL/MOL
REMARK 927      BINDING AFFINITY PREDICTED BY RF-SCORE:    0.00 PKD
ROOT
HETATM    1  O   UNL     1     -14.259   8.190  70.967  1.00  0.00    -0.646 OA 
HETATM    2  N   UNL     1     -12.868   8.374  70.981  1.00  0.00    -0.503 N  
HETATM    3  H   UNL     1     -14.626   7.350  70.719  1.00  0.00     0.000 HD 
HETATM    4  C   UNL     1     -12.341   9.582  71.337  1.00  0.00    -0.364 C  
HETATM    5  H   UNL     1     -12.250   7.603  70.725  1.00  0.00     0.000 HD 
HETATM    6  O   UNL     1     -11.122   9.740  71.369  1.00  0.00    -0.359 OA 
ENDROOT
BRANCH   4   7
HETATM    7  C   UNL     1     -13.340  10.671  71.673  1.00  0.00    -0.407 C  
BRANCH   7   8
HETATM    8  C   UNL     1     -12.832  12.056  71.279  1.00  0.00    -0.364 C  
BRANCH   8   9
HETATM    9  C   UNL     1     -13.377  13.127  72.216  1.00  0.00    -0.621 C  
BRANCH   9  10
HETATM   10  C   UNL     1     -13.717  14.413  71.458  1.00  0.00    -0.458 C  
BRANCH  10  11
HETATM   11  C   UNL     1     -12.710  14.622  70.339  1.00  0.00    -0.370 C  
BRANCH  11  12
HETATM   12  C   UNL     1     -11.637  15.670  70.646  1.00  0.00    -0.394 C  
BRANCH  12  13
HETATM   13  C   UNL     1     -11.088  16.196  69.329  1.00  0.00    -0.327 C  
HETATM   14  N   UNL     1     -10.585  17.484  69.399  1.00  0.00    -0.350 N  
HETATM   15  O   UNL     1     -11.095  15.489  68.323  1.00  0.00    -0.292 OA 
HETATM   16  H   UNL     1     -10.643  17.970  70.294  1.00  0.00     0.000 HD 
BRANCH  14  17
HETATM   17  C   UNL     1      -9.996  18.168  68.308  1.00  0.00    -0.369 A  
HETATM   18  C   UNL     1      -8.709  17.882  67.839  1.00  0.00    -0.252 A  
HETATM   19  C   UNL     1      -8.121  18.650  66.835  1.00  0.00    -0.256 A  
HETATM   20  C   UNL     1      -8.826  19.704  66.267  1.00  0.00    -0.410 A  
HETATM   21  C   UNL     1     -10.132  19.963  66.681  1.00  0.00    -0.598 A  
HETATM   22  C   UNL     1     -10.722  19.191  67.690  1.00  0.00    -0.514 A  
ENDBRANCH  14  17
ENDBRANCH  12  13
ENDBRANCH  11  12
ENDBRANCH  10  11
ENDBRANCH   9  10
ENDBRANCH   8   9
ENDBRANCH   7   8
ENDBRANCH   4   7
TORSDOF 8
ENDMDL
MODEL       57
REMARK 921   NORMALIZED FREE ENERGY PREDICTED BY IDOCK:   -5.10 KCAL/MOL
REMARK 922        TOTAL FREE ENERGY PREDICTED BY IDOCK:   -8.28 KCAL/MOL
REMARK 923 INTER-LIGAND FREE ENERGY PREDICTED BY IDOCK:   -7.85 KCAL/MOL
REMARK 924 INTRA-LIGAND FREE ENERGY PREDICTED BY IDOCK:   -0.43 KCAL/MOL
REMARK 927      BINDING AFFINITY PREDICTED BY RF-SCORE:    0.00 PKD
ROOT
HETATM    1  O   UNL     1     -14.410   8.650  73.160  1.00  0.00    -1.076 OA 
HETATM    2  N   UNL     1     -13.929   7.701  72.245  1.00  0.00    -0.542 N  
HETATM    3  H   UNL     1     -15.252   8.520  73.582  1.00  0.00     0.000 HD 
HETATM    4  C   UNL     1     -12.719   7.887  71.639  1.00  0.00    -0.330 C  
HETATM    5  H   UNL     1     -14.483   6.872  72.032  1.00  0.00     0.000 HD 
HETATM    6  O   UNL     1     -12.286   7.049  70.850  1.00  0.00    -0.369 OA 
ENDROOT
BRANCH   4   7
HETATM    7  C   UNL     1     -11.984   9.164  71.999  1.00  0.00    -0.421 C  
BRANCH   7   8
HETATM    8  C   UNL     1     -11.468   9.895  70.762  1.00  0.00    -0.433 C  
BRANCH   8   9
HETATM    9  C   UNL     1     -12.145  11.252  70.606  1.00  0.00    -0.480 C  
BRANCH   9  10
HETATM   10  C   UNL     1     -13.146  11.511  71.736  1.00  0.00    -0.503 C  
BRANCH  10  11
HETATM   11  C   UNL     1     -13.001  12.945  72.221  1.00  0.00    -0.313 C  
BRANCH  11  12
HETATM   12  C   UNL     1     -13.521  13.996  71.237  1.00  0.00    -0.308 C  
BRANCH  12  13
HETATM   13  C   UNL     1     -12.338  14.547  70.455  1.00  0.00    -0.337 C  
HETATM   14  N   UNL     1     -12.525  14.566  69.084  1.00  0.00    -0.575 N  
HETATM   15  O   UNL     1     -11.334  14.950  71.042  1.00  0.00    -0.282 OA 
HETATM   16  H   UNL     1     -13.403  14.197  68.717  1.00  0.00     0.000 HD 
BRANCH  14  17
HETATM   17  C   UNL     1     -11.575  15.063  68.158  1.00  0.00    -0.340 A  
HETATM   18  C   UNL     1     -11.220  16.414  68.088  1.00  0.00    -0.273 A  
HETATM   19  C   UNL     1     -10.365  16.884  67.092  1.00  0.00    -0.304 A  
HETATM   20  C   UNL     1      -9.831  15.998  66.165  1.00  0.00    -0.351 A  
HETATM   21  C   UNL     1     -10.127  14.640  66.258  1.00  0.00    -0.307 A  
HETATM   22  C   UNL     1     -10.987  14.169  67.258  1.00  0.00    -0.304 A  
ENDBRANCH  14  17
ENDBRANCH  12  13
ENDBRANCH  11  12
ENDBRANCH  10  11
ENDBRANCH   9  10
ENDBRANCH   8   9
ENDBRANCH   7   8
ENDBRANCH   4   7
TORSDOF 8
ENDMDL
MODEL       58
REMARK 921   NORMALIZED FREE ENERGY PREDICTED BY IDOCK:   -5.10 KCAL/MOL
REMARK 922        TOTAL FREE ENERGY PREDICTED BY IDOCK:   -8.28 KCAL/MOL
REMARK 923 INTER-LIGAND FREE ENERGY PREDICTED BY IDOCK:   -7.39 KCAL/MOL
REMARK 924 INTRA-LIGAND FREE ENERGY PREDICTED BY IDOCK:   -0.89 KCAL/MOL
REMARK 927      BINDING AFFINITY PREDICTED BY RF-SCORE:    0.00 PKD
ROOT
HETATM    1  O   UNL     1     -10.300  18.795  68.848  1.00  0.00    -0.470 OA 
HETATM    2  N   UNL     1     -10.908  18.425  67.639  1.00  0.00    -0.352 N  
HETATM    3  H   UNL     1     -10.781  18.722  69.665  1.00  0.00     0.000 HD 
HETATM    4  C   UNL     1     -10.217  18.529  66.465  1.00  0.00    -0.410 C  
HETATM    5  H   UNL     1     -11.867  18.077  67.636  1.00  0.00     0.000 HD 
HETATM    6  O   UNL     1     -10.740  18.188  65.406  1.00  0.00    -0.620 OA 
ENDROOT
BRANCH   4   7
HETATM    7  C   UNL     1      -8.809  19.082  66.569  1.00  0.00    -0.334 C  
BRANCH   7   8
HETATM    8  C   UNL     1      -7.756  18.037  66.212  1.00  0.00    -0.293 C  
BRANCH   8   9
HETATM    9  C   UNL     1      -7.390  17.191  67.426  1.00  0.00    -0.176 C  
BRANCH   9  10
HETATM   10  C   UNL     1      -7.732  15.715  67.202  1.00  0.00    -0.258 C  
BRANCH  10  11
HETATM   11  C   UNL     1      -8.989  15.363  67.982  1.00  0.00    -0.171 C  
BRANCH  11  12
HETATM   12  C   UNL     1      -9.853  14.283  67.327  1.00  0.00    -0.244 C  
BRANCH  12  13
HETATM   13  C   UNL     1     -11.168  14.195  68.085  1.00  0.00    -0.276 C  
HETATM   14  N   UNL     1     -11.033  14.256  69.461  1.00  0.00    -0.389 N  
HETATM   15  O   UNL     1     -12.234  14.099  67.478  1.00  0.00    -0.370 OA 
HETATM   16  H   UNL     1     -10.092  14.329  69.845  1.00  0.00     0.000 HD 
BRANCH  14  17
HETATM   17  C   UNL     1     -12.121  14.224  70.369  1.00  0.00    -0.339 A  
HETATM   18  C   UNL     1     -12.876  15.358  70.688  1.00  0.00    -0.484 A  
HETATM   19  C   UNL     1     -13.866  15.312  71.669  1.00  0.00    -0.615 A  
HETATM   20  C   UNL     1     -14.133  14.117  72.326  1.00  0.00    -0.630 A  
HETATM   21  C   UNL     1     -13.431  12.965  71.977  1.00  0.00    -0.568 A  
HETATM   22  C   UNL     1     -12.435  13.013  70.993  1.00  0.00    -0.385 A  
ENDBRANCH  14  17
ENDBRANCH  12  13
ENDBRANCH  11  12
ENDBRANCH  10  11
ENDBRANCH   9  10
ENDBRANCH   8   9
ENDBRANCH   7   8
ENDBRANCH   4   7
TORSDOF 8
ENDMDL
MODEL       59
REMARK 921   NORMALIZED FREE ENERGY PREDICTED BY IDOCK:   -5.10 KCAL/MOL
REMARK 922        TOTAL FREE ENERGY PREDICTED BY IDOCK:   -8.27 KCAL/MOL
REMARK 923 INTER-LIGAND FREE ENERGY PREDICTED BY IDOCK:   -7.25 KCAL/MOL
REMARK 924 INTRA-LIGAND FREE ENERGY PREDICTED BY IDOCK:   -1.02 KCAL/MOL
REMARK 927      BINDING AFFINITY PREDICTED BY RF-SCORE:    0.00 PKD
ROOT
HETATM    1  O   UNL     1     -10.903  10.923  69.986  1.00  0.00    -0.435 OA 
HETATM    2  N   UNL     1      -9.561  10.558  69.791  1.00  0.00    -0.423 N  
HETATM    3  H   UNL     1     -11.209  11.162  70.853  1.00  0.00     0.000 HD 
HETATM    4  C   UNL     1      -9.121  10.215  68.545  1.00  0.00    -0.134 C  
HETATM    5  H   UNL     1      -8.915  10.551  70.580  1.00  0.00     0.000 HD 
HETATM    6  O   UNL     1      -7.942   9.913  68.366  1.00  0.00    -0.094 OA 
ENDROOT
BRANCH   4   7
HETATM    7  C   UNL     1     -10.162  10.229  67.443  1.00  0.00    -0.265 C  
BRANCH   7   8
HETATM    8  C   UNL     1      -9.846  11.268  66.370  1.00  0.00    -0.243 C  
BRANCH   8   9
HETATM    9  C   UNL     1     -10.990  11.387  65.369  1.00  0.00    -0.249 C  
BRANCH   9  10
HETATM   10  C   UNL     1     -11.506  12.827  65.280  1.00  0.00    -0.360 C  
BRANCH  10  11
HETATM   11  C   UNL     1     -10.798  13.684  66.316  1.00  0.00    -0.282 C  
BRANCH  11  12
HETATM   12  C   UNL     1     -11.700  14.714  67.001  1.00  0.00    -0.379 C  
BRANCH  12  13
HETATM   13  C   UNL     1     -11.711  14.424  68.494  1.00  0.00    -0.335 C  
HETATM   14  N   UNL     1     -12.389  15.366  69.248  1.00  0.00    -0.606 N  
HETATM   15  O   UNL     1     -11.169  13.414  68.939  1.00  0.00    -0.252 OA 
HETATM   16  H   UNL     1     -12.792  16.166  68.762  1.00  0.00     0.000 HD 
BRANCH  14  17
HETATM   17  C   UNL     1     -12.557  15.289  70.653  1.00  0.00    -0.417 A  
HETATM   18  C   UNL     1     -11.903  16.148  71.543  1.00  0.00    -0.528 A  
HETATM   19  C   UNL     1     -12.006  15.971  72.923  1.00  0.00    -0.611 A  
HETATM   20  C   UNL     1     -12.792  14.944  73.431  1.00  0.00    -0.638 A  
HETATM   21  C   UNL     1     -13.498  14.118  72.558  1.00  0.00    -0.634 A  
HETATM   22  C   UNL     1     -13.392  14.295  71.173  1.00  0.00    -0.363 A  
ENDBRANCH  14  17
ENDBRANCH  12  13
ENDBRANCH  11  12
ENDBRANCH  10  11
ENDBRANCH   9  10
ENDBRANCH   8   9
ENDBRANCH   7   8
ENDBRANCH   4   7
TORSDOF 8
ENDMDL
MODEL       60
REMARK 921   NORMALIZED FREE ENERGY PREDICTED BY IDOCK:   -5.09 KCAL/MOL
REMARK 922        TOTAL FREE ENERGY PREDICTED BY IDOCK:   -8.26 KCAL/MOL
REMARK 923 INTER-LIGAND FREE ENERGY PREDICTED BY IDOCK:   -7.00 KCAL/MOL
REMARK 924 INTRA-LIGAND FREE ENERGY PREDICTED BY IDOCK:   -1.25 KCAL/MOL
REMARK 927      BINDING AFFINITY PREDICTED BY RF-SCORE:    0.00 PKD
ROOT
HETATM    1  O   UNL     1     -11.800  16.100  63.586  1.00  0.00    -1.370 OA 
HETATM    2  N   UNL     1     -12.181  15.461  64.776  1.00  0.00    -0.044 N  
HETATM    3  H   UNL     1     -11.672  17.042  63.571  1.00  0.00     0.000 HD 
HETATM    4  C   UNL     1     -12.364  14.108  64.797  1.00  0.00    -0.417 C  
HETATM    5  H   UNL     1     -12.321  16.007  65.625  1.00  0.00     0.000 HD 
HETATM    6  O   UNL     1     -12.680  13.542  65.843  1.00  0.00    -0.424 OA 
ENDROOT
BRANCH   4   7
HETATM    7  C   UNL     1     -12.160  13.388  63.479  1.00  0.00    -0.497 C  
BRANCH   7   8
HETATM    8  C   UNL     1     -11.814  11.915  63.678  1.00  0.00    -0.573 C  
BRANCH   8   9
HETATM    9  C   UNL     1     -10.377  11.627  63.258  1.00  0.00    -0.444 C  
BRANCH   9  10
HETATM   10  C   UNL     1      -9.694  10.658  64.228  1.00  0.00    -0.372 C  
BRANCH  10  11
HETATM   11  C   UNL     1     -10.037  11.047  65.657  1.00  0.00    -0.310 C  
BRANCH  11  12
HETATM   12  C   UNL     1      -8.840  11.052  66.611  1.00  0.00    -0.168 C  
BRANCH  12  13
HETATM   13  C   UNL     1      -8.736  12.432  67.243  1.00  0.00    -0.191 C  
HETATM   14  N   UNL     1      -9.402  13.425  66.548  1.00  0.00    -0.367 N  
HETATM   15  O   UNL     1      -8.117  12.592  68.295  1.00  0.00    -0.155 OA 
HETATM   16  H   UNL     1      -9.875  13.166  65.682  1.00  0.00     0.000 HD 
BRANCH  14  17
HETATM   17  C   UNL     1      -9.470  14.778  66.963  1.00  0.00    -0.231 A  
HETATM   18  C   UNL     1     -10.405  15.240  67.895  1.00  0.00    -0.246 A  
HETATM   19  C   UNL     1     -10.513  16.597  68.196  1.00  0.00    -0.321 A  
HETATM   20  C   UNL     1      -9.665  17.511  67.583  1.00  0.00    -0.275 A  
HETATM   21  C   UNL     1      -8.688  17.060  66.697  1.00  0.00    -0.282 A  
HETATM   22  C   UNL     1      -8.581  15.696  66.395  1.00  0.00    -0.319 A  
ENDBRANCH  14  17
ENDBRANCH  12  13
ENDBRANCH  11  12
ENDBRANCH  10  11
ENDBRANCH   9  10
ENDBRANCH   8   9
ENDBRANCH   7   8
ENDBRANCH   4   7
TORSDOF 8
ENDMDL
MODEL       61
REMARK 921   NORMALIZED FREE ENERGY PREDICTED BY IDOCK:   -5.09 KCAL/MOL
REMARK 922        TOTAL FREE ENERGY PREDICTED BY IDOCK:   -8.25 KCAL/MOL
REMARK 923 INTER-LIGAND FREE ENERGY PREDICTED BY IDOCK:   -7.35 KCAL/MOL
REMARK 924 INTRA-LIGAND FREE ENERGY PREDICTED BY IDOCK:   -0.90 KCAL/MOL
REMARK 927      BINDING AFFINITY PREDICTED BY RF-SCORE:    0.00 PKD
ROOT
HETATM    1  O   UNL     1      -9.343  16.172  68.579  1.00  0.00    -0.196 OA 
HETATM    2  N   UNL     1      -9.438  17.219  67.648  1.00  0.00    -0.244 N  
HETATM    3  H   UNL     1      -8.763  16.252  69.327  1.00  0.00     0.000 HD 
HETATM    4  C   UNL     1     -10.272  17.106  66.573  1.00  0.00    -0.322 C  
HETATM    5  H   UNL     1      -8.883  18.065  67.776  1.00  0.00     0.000 HD 
HETATM    6  O   UNL     1     -10.371  18.029  65.767  1.00  0.00    -0.583 OA 
ENDROOT
BRANCH   4   7
HETATM    7  C   UNL     1     -11.032  15.800  66.456  1.00  0.00    -0.165 C  
BRANCH   7   8
HETATM    8  C   UNL     1     -10.825  15.136  65.097  1.00  0.00    -0.437 C  
BRANCH   8   9
HETATM    9  C   UNL     1     -11.644  13.856  64.982  1.00  0.00    -0.350 C  
BRANCH   9  10
HETATM   10  C   UNL     1     -12.243  13.451  66.332  1.00  0.00    -0.435 C  
BRANCH  10  11
HETATM   11  C   UNL     1     -11.507  12.234  66.868  1.00  0.00    -0.418 C  
BRANCH  11  12
HETATM   12  C   UNL     1     -10.597  12.527  68.064  1.00  0.00    -0.237 C  
BRANCH  12  13
HETATM   13  C   UNL     1     -11.472  12.817  69.273  1.00  0.00    -0.289 C  
HETATM   14  N   UNL     1     -11.378  14.116  69.742  1.00  0.00    -0.383 N  
HETATM   15  O   UNL     1     -12.199  11.943  69.743  1.00  0.00    -0.251 OA 
HETATM   16  H   UNL     1     -10.733  14.748  69.269  1.00  0.00     0.000 HD 
BRANCH  14  17
HETATM   17  C   UNL     1     -12.122  14.623  70.836  1.00  0.00    -0.328 A  
HETATM   18  C   UNL     1     -13.513  14.510  70.924  1.00  0.00    -0.266 A  
HETATM   19  C   UNL     1     -14.222  15.117  71.961  1.00  0.00    -0.673 A  
HETATM   20  C   UNL     1     -13.539  15.827  72.941  1.00  0.00    -0.660 A  
HETATM   21  C   UNL     1     -12.148  15.898  72.900  1.00  0.00    -0.612 A  
HETATM   22  C   UNL     1     -11.438  15.288  71.858  1.00  0.00    -0.504 A  
ENDBRANCH  14  17
ENDBRANCH  12  13
ENDBRANCH  11  12
ENDBRANCH  10  11
ENDBRANCH   9  10
ENDBRANCH   8   9
ENDBRANCH   7   8
ENDBRANCH   4   7
TORSDOF 8
ENDMDL
MODEL       62
REMARK 921   NORMALIZED FREE ENERGY PREDICTED BY IDOCK:   -5.08 KCAL/MOL
REMARK 922        TOTAL FREE ENERGY PREDICTED BY IDOCK:   -8.24 KCAL/MOL
REMARK 923 INTER-LIGAND FREE ENERGY PREDICTED BY IDOCK:   -7.37 KCAL/MOL
REMARK 924 INTRA-LIGAND FREE ENERGY PREDICTED BY IDOCK:   -0.87 KCAL/MOL
REMARK 927      BINDING AFFINITY PREDICTED BY RF-SCORE:    0.00 PKD
ROOT
HETATM    1  O   UNL     1     -12.152  11.432  62.974  1.00  0.00    -0.934 OA 
HETATM    2  N   UNL     1     -12.955  12.277  63.756  1.00  0.00    -0.786 N  
HETATM    3  H   UNL     1     -12.551  10.741  62.457  1.00  0.00     0.000 HD 
HETATM    4  C   UNL     1     -12.383  13.270  64.498  1.00  0.00    -0.368 C  
HETATM    5  H   UNL     1     -13.967  12.149  63.769  1.00  0.00     0.000 HD 
HETATM    6  O   UNL     1     -13.086  14.024  65.169  1.00  0.00    -0.776 OA 
ENDROOT
BRANCH   4   7
HETATM    7  C   UNL     1     -10.871  13.362  64.434  1.00  0.00    -0.422 C  
BRANCH   7   8
HETATM    8  C   UNL     1     -10.245  13.473  65.821  1.00  0.00    -0.305 C  
BRANCH   8   9
HETATM    9  C   UNL     1     -10.423  12.179  66.608  1.00  0.00    -0.248 C  
BRANCH   9  10
HETATM   10  C   UNL     1      -9.406  11.118  66.177  1.00  0.00    -0.227 C  
BRANCH  10  11
HETATM   11  C   UNL     1     -10.139   9.855  65.757  1.00  0.00    -0.317 C  
BRANCH  11  12
HETATM   12  C   UNL     1      -9.434   8.557  66.160  1.00  0.00    -0.286 C  
BRANCH  12  13
HETATM   13  C   UNL     1      -9.473   8.439  67.676  1.00  0.00    -0.149 C  
HETATM   14  N   UNL     1     -10.749   8.339  68.203  1.00  0.00    -0.439 N  
HETATM   15  O   UNL     1      -8.430   8.417  68.328  1.00  0.00    -0.133 OA 
HETATM   16  H   UNL     1     -11.536   8.376  67.556  1.00  0.00     0.000 HD 
BRANCH  14  17
HETATM   17  C   UNL     1     -11.030   8.189  69.583  1.00  0.00    -0.088 A  
HETATM   18  C   UNL     1     -11.209   6.941  70.189  1.00  0.00    -0.361 A  
HETATM   19  C   UNL     1     -11.593   6.838  71.526  1.00  0.00    -0.344 A  
HETATM   20  C   UNL     1     -11.777   7.988  72.283  1.00  0.00    -0.428 A  
HETATM   21  C   UNL     1     -11.543   9.237  71.710  1.00  0.00    -0.458 A  
HETATM   22  C   UNL     1     -11.159   9.339  70.367  1.00  0.00    -0.300 A  
ENDBRANCH  14  17
ENDBRANCH  12  13
ENDBRANCH  11  12
ENDBRANCH  10  11
ENDBRANCH   9  10
ENDBRANCH   8   9
ENDBRANCH   7   8
ENDBRANCH   4   7
TORSDOF 8
ENDMDL
MODEL       63
REMARK 921   NORMALIZED FREE ENERGY PREDICTED BY IDOCK:   -5.07 KCAL/MOL
REMARK 922        TOTAL FREE ENERGY PREDICTED BY IDOCK:   -8.23 KCAL/MOL
REMARK 923 INTER-LIGAND FREE ENERGY PREDICTED BY IDOCK:   -7.44 KCAL/MOL
REMARK 924 INTRA-LIGAND FREE ENERGY PREDICTED BY IDOCK:   -0.79 KCAL/MOL
REMARK 927      BINDING AFFINITY PREDICTED BY RF-SCORE:    0.00 PKD
ROOT
HETATM    1  O   UNL     1     -11.302   7.689  69.358  1.00  0.00    -0.445 OA 
HETATM    2  N   UNL     1     -11.717   6.619  70.166  1.00  0.00    -0.571 N  
HETATM    3  H   UNL     1     -11.163   7.556  68.427  1.00  0.00     0.000 HD 
HETATM    4  C   UNL     1     -11.917   6.810  71.503  1.00  0.00    -0.350 C  
HETATM    5  H   UNL     1     -11.871   5.699  69.754  1.00  0.00     0.000 HD 
HETATM    6  O   UNL     1     -12.299   5.879  72.211  1.00  0.00    -0.206 OA 
ENDROOT
BRANCH   4   7
HETATM    7  C   UNL     1     -11.635   8.205  72.026  1.00  0.00    -0.389 C  
BRANCH   7   8
HETATM    8  C   UNL     1     -12.919   8.970  72.336  1.00  0.00    -0.471 C  
BRANCH   8   9
HETATM    9  C   UNL     1     -13.263   9.941  71.212  1.00  0.00    -0.465 C  
BRANCH   9  10
HETATM   10  C   UNL     1     -12.954  11.387  71.609  1.00  0.00    -0.523 C  
BRANCH  10  11
HETATM   11  C   UNL     1     -12.244  12.087  70.461  1.00  0.00    -0.414 C  
BRANCH  11  12
HETATM   12  C   UNL     1     -11.391  11.159  69.593  1.00  0.00    -0.366 C  
BRANCH  12  13
HETATM   13  C   UNL     1     -11.043  11.891  68.306  1.00  0.00    -0.239 C  
HETATM   14  N   UNL     1     -11.870  12.963  68.023  1.00  0.00    -0.355 N  
HETATM   15  O   UNL     1     -10.084  11.532  67.623  1.00  0.00    -0.181 OA 
HETATM   16  H   UNL     1     -12.637  13.156  68.667  1.00  0.00     0.000 HD 
BRANCH  14  17
HETATM   17  C   UNL     1     -11.719  13.810  66.897  1.00  0.00    -0.395 A  
HETATM   18  C   UNL     1     -12.310  13.537  65.659  1.00  0.00    -0.522 A  
HETATM   19  C   UNL     1     -12.049  14.334  64.544  1.00  0.00    -0.499 A  
HETATM   20  C   UNL     1     -11.208  15.434  64.662  1.00  0.00    -0.374 A  
HETATM   21  C   UNL     1     -10.660  15.753  65.903  1.00  0.00    -0.350 A  
HETATM   22  C   UNL     1     -10.922  14.952  67.022  1.00  0.00    -0.327 A  
ENDBRANCH  14  17
ENDBRANCH  12  13
ENDBRANCH  11  12
ENDBRANCH  10  11
ENDBRANCH   9  10
ENDBRANCH   8   9
ENDBRANCH   7   8
ENDBRANCH   4   7
TORSDOF 8
ENDMDL
MODEL       64
REMARK 921   NORMALIZED FREE ENERGY PREDICTED BY IDOCK:   -5.07 KCAL/MOL
REMARK 922        TOTAL FREE ENERGY PREDICTED BY IDOCK:   -8.22 KCAL/MOL
REMARK 923 INTER-LIGAND FREE ENERGY PREDICTED BY IDOCK:   -6.94 KCAL/MOL
REMARK 924 INTRA-LIGAND FREE ENERGY PREDICTED BY IDOCK:   -1.28 KCAL/MOL
REMARK 927      BINDING AFFINITY PREDICTED BY RF-SCORE:    0.00 PKD
ROOT
HETATM    1  O   UNL     1     -10.674  18.225  65.318  1.00  0.00    -0.605 OA 
HETATM    2  N   UNL     1     -10.741  18.096  66.714  1.00  0.00    -0.272 N  
HETATM    3  H   UNL     1     -11.035  17.546  64.760  1.00  0.00     0.000 HD 
HETATM    4  C   UNL     1     -10.222  19.071  67.516  1.00  0.00    -0.394 C  
HETATM    5  H   UNL     1     -11.178  17.273  67.129  1.00  0.00     0.000 HD 
HETATM    6  O   UNL     1     -10.296  18.971  68.740  1.00  0.00    -0.332 OA 
ENDROOT
BRANCH   4   7
HETATM    7  C   UNL     1      -9.569  20.241  66.805  1.00  0.00    -0.548 C  
BRANCH   7   8
HETATM    8  C   UNL     1      -8.073  20.323  67.094  1.00  0.00    -0.379 C  
BRANCH   8   9
HETATM    9  C   UNL     1      -7.266  19.605  66.018  1.00  0.00    -0.301 C  
BRANCH   9  10
HETATM   10  C   UNL     1      -6.528  18.391  66.589  1.00  0.00    -0.216 C  
BRANCH  10  11
HETATM   11  C   UNL     1      -7.287  17.123  66.233  1.00  0.00    -0.326 C  
BRANCH  11  12
HETATM   12  C   UNL     1      -7.470  16.152  67.402  1.00  0.00    -0.199 C  
BRANCH  12  13
HETATM   13  C   UNL     1      -8.838  15.500  67.274  1.00  0.00    -0.201 C  
HETATM   14  N   UNL     1      -9.038  14.831  66.080  1.00  0.00    -0.502 N  
HETATM   15  O   UNL     1      -9.653  15.574  68.193  1.00  0.00    -0.198 OA 
HETATM   16  H   UNL     1      -8.285  14.847  65.392  1.00  0.00     0.000 HD 
BRANCH  14  17
HETATM   17  C   UNL     1     -10.221  14.124  65.752  1.00  0.00    -0.332 A  
HETATM   18  C   UNL     1     -10.512  12.855  66.263  1.00  0.00    -0.282 A  
HETATM   19  C   UNL     1     -11.632  12.144  65.831  1.00  0.00    -0.425 A  
HETATM   20  C   UNL     1     -12.493  12.709  64.899  1.00  0.00    -0.564 A  
HETATM   21  C   UNL     1     -12.249  13.998  64.426  1.00  0.00    -0.457 A  
HETATM   22  C   UNL     1     -11.123  14.710  64.859  1.00  0.00    -0.409 A  
ENDBRANCH  14  17
ENDBRANCH  12  13
ENDBRANCH  11  12
ENDBRANCH  10  11
ENDBRANCH   9  10
ENDBRANCH   8   9
ENDBRANCH   7   8
ENDBRANCH   4   7
TORSDOF 8
ENDMDL
MODEL       65
REMARK 921   NORMALIZED FREE ENERGY PREDICTED BY IDOCK:   -5.06 KCAL/MOL
REMARK 922        TOTAL FREE ENERGY PREDICTED BY IDOCK:   -8.21 KCAL/MOL
REMARK 923 INTER-LIGAND FREE ENERGY PREDICTED BY IDOCK:   -7.75 KCAL/MOL
REMARK 924 INTRA-LIGAND FREE ENERGY PREDICTED BY IDOCK:   -0.46 KCAL/MOL
REMARK 927      BINDING AFFINITY PREDICTED BY RF-SCORE:    0.00 PKD
ROOT
HETATM    1  O   UNL     1      -9.017   8.560  64.524  1.00  0.00    -0.417 OA 
HETATM    2  N   UNL     1      -9.713   8.956  65.677  1.00  0.00    -0.470 N  
HETATM    3  H   UNL     1      -8.743   7.656  64.420  1.00  0.00     0.000 HD 
HETATM    4  C   UNL     1     -10.107  10.255  65.826  1.00  0.00    -0.255 C  
HETATM    5  H   UNL     1      -9.925   8.272  66.404  1.00  0.00     0.000 HD 
HETATM    6  O   UNL     1     -10.733  10.600  66.827  1.00  0.00    -0.250 OA 
ENDROOT
BRANCH   4   7
HETATM    7  C   UNL     1      -9.721  11.200  64.706  1.00  0.00    -0.303 C  
BRANCH   7   8
HETATM    8  C   UNL     1     -10.819  11.319  63.653  1.00  0.00    -0.410 C  
BRANCH   8   9
HETATM    9  C   UNL     1     -11.492  12.685  63.714  1.00  0.00    -0.539 C  
BRANCH   9  10
HETATM   10  C   UNL     1     -12.589  12.721  64.781  1.00  0.00    -0.518 C  
BRANCH  10  11
HETATM   11  C   UNL     1     -12.481  14.013  65.575  1.00  0.00    -0.533 C  
BRANCH  11  12
HETATM   12  C   UNL     1     -11.215  14.121  66.429  1.00  0.00    -0.328 C  
BRANCH  12  13
HETATM   13  C   UNL     1     -10.611  15.501  66.219  1.00  0.00    -0.307 C  
HETATM   14  N   UNL     1     -10.880  16.397  67.238  1.00  0.00    -0.251 N  
HETATM   15  O   UNL     1      -9.931  15.739  65.221  1.00  0.00    -0.383 OA 
HETATM   16  H   UNL     1     -11.463  16.079  68.012  1.00  0.00     0.000 HD 
BRANCH  14  17
HETATM   17  C   UNL     1     -10.396  17.729  67.274  1.00  0.00    -0.363 A  
HETATM   18  C   UNL     1      -9.802  18.289  68.410  1.00  0.00    -0.386 A  
HETATM   19  C   UNL     1      -9.439  19.635  68.443  1.00  0.00    -0.452 A  
HETATM   20  C   UNL     1      -9.643  20.434  67.325  1.00  0.00    -0.592 A  
HETATM   21  C   UNL     1     -10.178  19.876  66.166  1.00  0.00    -0.611 A  
HETATM   22  C   UNL     1     -10.544  18.524  66.133  1.00  0.00    -0.377 A  
ENDBRANCH  14  17
ENDBRANCH  12  13
ENDBRANCH  11  12
ENDBRANCH  10  11
ENDBRANCH   9  10
ENDBRANCH   8   9
ENDBRANCH   7   8
ENDBRANCH   4   7
TORSDOF 8
ENDMDL
MODEL       66
REMARK 921   NORMALIZED FREE ENERGY PREDICTED BY IDOCK:   -5.03 KCAL/MOL
REMARK 922        TOTAL FREE ENERGY PREDICTED BY IDOCK:   -8.17 KCAL/MOL
REMARK 923 INTER-LIGAND FREE ENERGY PREDICTED BY IDOCK:   -7.17 KCAL/MOL
REMARK 924 INTRA-LIGAND FREE ENERGY PREDICTED BY IDOCK:   -1.00 KCAL/MOL
REMARK 927      BINDING AFFINITY PREDICTED BY RF-SCORE:    0.00 PKD
ROOT
HETATM    1  O   UNL     1     -13.789   9.196  72.247  1.00  0.00    -0.450 OA 
HETATM    2  N   UNL     1     -12.580   8.539  72.528  1.00  0.00    -0.547 N  
HETATM    3  H   UNL     1     -14.581   8.953  72.712  1.00  0.00     0.000 HD 
HETATM    4  C   UNL     1     -11.441   8.888  71.860  1.00  0.00    -0.372 C  
HETATM    5  H   UNL     1     -12.553   7.800  73.230  1.00  0.00     0.000 HD 
HETATM    6  O   UNL     1     -10.377   8.327  72.117  1.00  0.00    -0.248 OA 
ENDROOT
BRANCH   4   7
HETATM    7  C   UNL     1     -11.589   9.976  70.815  1.00  0.00    -0.444 C  
BRANCH   7   8
HETATM    8  C   UNL     1     -10.479   9.920  69.769  1.00  0.00    -0.292 C  
BRANCH   8   9
HETATM    9  C   UNL     1     -11.056   9.787  68.365  1.00  0.00    -0.142 C  
BRANCH   9  10
HETATM   10  C   UNL     1     -10.257  10.612  67.351  1.00  0.00    -0.243 C  
BRANCH  10  11
HETATM   11  C   UNL     1     -11.073  11.822  66.928  1.00  0.00    -0.361 C  
BRANCH  11  12
HETATM   12  C   UNL     1     -10.492  13.163  67.386  1.00  0.00    -0.243 C  
BRANCH  12  13
HETATM   13  C   UNL     1     -11.443  13.777  68.401  1.00  0.00    -0.316 C  
HETATM   14  N   UNL     1     -11.111  13.515  69.719  1.00  0.00    -0.466 N  
HETATM   15  O   UNL     1     -12.399  14.457  68.030  1.00  0.00    -0.201 OA 
HETATM   16  H   UNL     1     -10.295  12.931  69.898  1.00  0.00     0.000 HD 
BRANCH  14  17
HETATM   17  C   UNL     1     -11.832  14.009  70.834  1.00  0.00    -0.173 A  
HETATM   18  C   UNL     1     -12.962  13.365  71.351  1.00  0.00    -0.412 A  
HETATM   19  C   UNL     1     -13.710  13.939  72.379  1.00  0.00    -0.678 A  
HETATM   20  C   UNL     1     -13.320  15.156  72.922  1.00  0.00    -0.603 A  
HETATM   21  C   UNL     1     -12.163  15.780  72.459  1.00  0.00    -0.570 A  
HETATM   22  C   UNL     1     -11.412  15.204  71.426  1.00  0.00    -0.405 A  
ENDBRANCH  14  17
ENDBRANCH  12  13
ENDBRANCH  11  12
ENDBRANCH  10  11
ENDBRANCH   9  10
ENDBRANCH   8   9
ENDBRANCH   7   8
ENDBRANCH   4   7
TORSDOF 8
ENDMDL
MODEL       67
REMARK 921   NORMALIZED FREE ENERGY PREDICTED BY IDOCK:   -5.01 KCAL/MOL
REMARK 922        TOTAL FREE ENERGY PREDICTED BY IDOCK:   -8.14 KCAL/MOL
REMARK 923 INTER-LIGAND FREE ENERGY PREDICTED BY IDOCK:   -7.48 KCAL/MOL
REMARK 924 INTRA-LIGAND FREE ENERGY PREDICTED BY IDOCK:   -0.66 KCAL/MOL
REMARK 927      BINDING AFFINITY PREDICTED BY RF-SCORE:    0.00 PKD
ROOT
HETATM    1  O   UNL     1     -14.324   8.856  73.167  1.00  0.00    -1.143 OA 
HETATM    2  N   UNL     1     -14.027   7.789  72.305  1.00  0.00    -0.549 N  
HETATM    3  H   UNL     1     -15.129   8.850  73.672  1.00  0.00     0.000 HD 
HETATM    4  C   UNL     1     -12.870   7.797  71.579  1.00  0.00    -0.329 C  
HETATM    5  H   UNL     1     -14.676   7.007  72.220  1.00  0.00     0.000 HD 
HETATM    6  O   UNL     1     -12.598   6.856  70.837  1.00  0.00    -0.357 OA 
ENDROOT
BRANCH   4   7
HETATM    7  C   UNL     1     -11.985   9.016  71.752  1.00  0.00    -0.438 C  
BRANCH   7   8
HETATM    8  C   UNL     1     -10.534   8.635  72.034  1.00  0.00    -0.422 C  
BRANCH   8   9
HETATM    9  C   UNL     1      -9.612   9.124  70.923  1.00  0.00    -0.347 C  
BRANCH   9  10
HETATM   10  C   UNL     1      -9.444   8.065  69.830  1.00  0.00    -0.159 C  
BRANCH  10  11
HETATM   11  C   UNL     1     -10.229   8.482  68.596  1.00  0.00    -0.217 C  
BRANCH  11  12
HETATM   12  C   UNL     1      -9.460   9.404  67.646  1.00  0.00    -0.154 C  
BRANCH  12  13
HETATM   13  C   UNL     1     -10.417  10.468  67.131  1.00  0.00    -0.249 C  
HETATM   14  N   UNL     1      -9.928  11.200  66.062  1.00  0.00    -0.226 N  
HETATM   15  O   UNL     1     -11.527  10.610  67.642  1.00  0.00    -0.474 OA 
HETATM   16  H   UNL     1      -8.986  10.990  65.732  1.00  0.00     0.000 HD 
BRANCH  14  17
HETATM   17  C   UNL     1     -10.653  12.221  65.400  1.00  0.00    -0.274 A  
HETATM   18  C   UNL     1     -10.860  13.487  65.957  1.00  0.00    -0.282 A  
HETATM   19  C   UNL     1     -11.672  14.429  65.324  1.00  0.00    -0.364 A  
HETATM   20  C   UNL     1     -12.267  14.122  64.107  1.00  0.00    -0.423 A  
HETATM   21  C   UNL     1     -12.021  12.887  63.510  1.00  0.00    -0.629 A  
HETATM   22  C   UNL     1     -11.207  11.941  64.147  1.00  0.00    -0.446 A  
ENDBRANCH  14  17
ENDBRANCH  12  13
ENDBRANCH  11  12
ENDBRANCH  10  11
ENDBRANCH   9  10
ENDBRANCH   8   9
ENDBRANCH   7   8
ENDBRANCH   4   7
TORSDOF 8
ENDMDL
MODEL       68
REMARK 921   NORMALIZED FREE ENERGY PREDICTED BY IDOCK:   -4.98 KCAL/MOL
REMARK 922        TOTAL FREE ENERGY PREDICTED BY IDOCK:   -8.10 KCAL/MOL
REMARK 923 INTER-LIGAND FREE ENERGY PREDICTED BY IDOCK:   -7.50 KCAL/MOL
REMARK 924 INTRA-LIGAND FREE ENERGY PREDICTED BY IDOCK:   -0.60 KCAL/MOL
REMARK 927      BINDING AFFINITY PREDICTED BY RF-SCORE:    0.00 PKD
ROOT
HETATM    1  O   UNL     1     -12.299  10.139  70.191  1.00  0.00    -0.472 OA 
HETATM    2  N   UNL     1     -10.920  10.349  70.351  1.00  0.00    -0.402 N  
HETATM    3  H   UNL     1     -12.897  10.347  70.899  1.00  0.00     0.000 HD 
HETATM    4  C   UNL     1     -10.060  10.050  69.333  1.00  0.00    -0.219 C  
HETATM    5  H   UNL     1     -10.561  10.725  71.228  1.00  0.00     0.000 HD 
HETATM    6  O   UNL     1      -8.854  10.250  69.463  1.00  0.00    -0.187 OA 
ENDROOT
BRANCH   4   7
HETATM    7  C   UNL     1     -10.688   9.470  68.080  1.00  0.00    -0.247 C  
BRANCH   7   8
HETATM    8  C   UNL     1     -10.515  10.390  66.875  1.00  0.00    -0.300 C  
BRANCH   8   9
HETATM    9  C   UNL     1     -11.356  11.653  67.023  1.00  0.00    -0.373 C  
BRANCH   9  10
HETATM   10  C   UNL     1     -10.537  12.909  66.711  1.00  0.00    -0.268 C  
BRANCH  10  11
HETATM   11  C   UNL     1     -11.463  14.004  66.207  1.00  0.00    -0.358 C  
BRANCH  11  12
HETATM   12  C   UNL     1     -11.038  14.619  64.870  1.00  0.00    -0.409 C  
BRANCH  12  13
HETATM   13  C   UNL     1     -10.817  16.110  65.076  1.00  0.00    -0.363 C  
HETATM   14  N   UNL     1     -10.156  16.428  66.249  1.00  0.00    -0.313 N  
HETATM   15  O   UNL     1     -11.195  16.919  64.230  1.00  0.00    -1.204 OA 
HETATM   16  H   UNL     1      -9.899  15.664  66.874  1.00  0.00     0.000 HD 
BRANCH  14  17
HETATM   17  C   UNL     1      -9.814  17.747  66.637  1.00  0.00    -0.322 A  
HETATM   18  C   UNL     1     -10.737  18.635  67.201  1.00  0.00    -0.433 A  
HETATM   19  C   UNL     1     -10.392  19.959  67.467  1.00  0.00    -0.557 A  
HETATM   20  C   UNL     1      -9.105  20.407  67.196  1.00  0.00    -0.489 A  
HETATM   21  C   UNL     1      -8.157  19.518  66.691  1.00  0.00    -0.324 A  
HETATM   22  C   UNL     1      -8.505  18.188  66.423  1.00  0.00    -0.263 A  
ENDBRANCH  14  17
ENDBRANCH  12  13
ENDBRANCH  11  12
ENDBRANCH  10  11
ENDBRANCH   9  10
ENDBRANCH   8   9
ENDBRANCH   7   8
ENDBRANCH   4   7
TORSDOF 8
ENDMDL
MODEL       69
REMARK 921   NORMALIZED FREE ENERGY PREDICTED BY IDOCK:   -4.97 KCAL/MOL
REMARK 922        TOTAL FREE ENERGY PREDICTED BY IDOCK:   -8.08 KCAL/MOL
REMARK 923 INTER-LIGAND FREE ENERGY PREDICTED BY IDOCK:   -7.32 KCAL/MOL
REMARK 924 INTRA-LIGAND FREE ENERGY PREDICTED BY IDOCK:   -0.77 KCAL/MOL
REMARK 927      BINDING AFFINITY PREDICTED BY RF-SCORE:    0.00 PKD
ROOT
HETATM    1  O   UNL     1     -14.202   8.846  73.451  1.00  0.00    -1.241 OA 
HETATM    2  N   UNL     1     -13.755   9.847  72.575  1.00  0.00    -0.610 N  
HETATM    3  H   UNL     1     -15.043   8.933  73.885  1.00  0.00     0.000 HD 
HETATM    4  C   UNL     1     -12.547   9.722  71.952  1.00  0.00    -0.391 C  
HETATM    5  H   UNL     1     -14.335  10.669  72.404  1.00  0.00     0.000 HD 
HETATM    6  O   UNL     1     -12.161  10.588  71.169  1.00  0.00    -0.346 OA 
ENDROOT
BRANCH   4   7
HETATM    7  C   UNL     1     -11.748   8.479  72.294  1.00  0.00    -0.443 C  
BRANCH   7   8
HETATM    8  C   UNL     1     -10.325   8.544  71.744  1.00  0.00    -0.354 C  
BRANCH   8   9
HETATM    9  C   UNL     1     -10.149   7.593  70.566  1.00  0.00    -0.189 C  
BRANCH   9  10
HETATM   10  C   UNL     1      -9.245   8.200  69.488  1.00  0.00    -0.158 C  
BRANCH  10  11
HETATM   11  C   UNL     1      -9.946   9.389  68.850  1.00  0.00    -0.188 C  
BRANCH  11  12
HETATM   12  C   UNL     1      -9.169  10.704  68.953  1.00  0.00    -0.189 C  
BRANCH  12  13
HETATM   13  C   UNL     1      -9.456  11.530  67.708  1.00  0.00    -0.168 C  
HETATM   14  N   UNL     1     -10.611  11.163  67.040  1.00  0.00    -0.239 N  
HETATM   15  O   UNL     1      -8.705  12.447  67.381  1.00  0.00    -0.166 OA 
HETATM   16  H   UNL     1     -11.148  10.379  67.409  1.00  0.00     0.000 HD 
BRANCH  14  17
HETATM   17  C   UNL     1     -11.095  11.809  65.875  1.00  0.00    -0.302 A  
HETATM   18  C   UNL     1     -10.647  11.489  64.589  1.00  0.00    -0.369 A  
HETATM   19  C   UNL     1     -11.063  12.221  63.478  1.00  0.00    -0.533 A  
HETATM   20  C   UNL     1     -11.959  13.271  63.638  1.00  0.00    -0.547 A  
HETATM   21  C   UNL     1     -12.462  13.563  64.905  1.00  0.00    -0.429 A  
HETATM   22  C   UNL     1     -12.041  12.828  66.020  1.00  0.00    -0.458 A  
ENDBRANCH  14  17
ENDBRANCH  12  13
ENDBRANCH  11  12
ENDBRANCH  10  11
ENDBRANCH   9  10
ENDBRANCH   8   9
ENDBRANCH   7   8
ENDBRANCH   4   7
TORSDOF 8
ENDMDL
MODEL       70
REMARK 921   NORMALIZED FREE ENERGY PREDICTED BY IDOCK:   -4.96 KCAL/MOL
REMARK 922        TOTAL FREE ENERGY PREDICTED BY IDOCK:   -8.07 KCAL/MOL
REMARK 923 INTER-LIGAND FREE ENERGY PREDICTED BY IDOCK:   -6.85 KCAL/MOL
REMARK 924 INTRA-LIGAND FREE ENERGY PREDICTED BY IDOCK:   -1.21 KCAL/MOL
REMARK 927      BINDING AFFINITY PREDICTED BY RF-SCORE:    0.00 PKD
ROOT
HETATM    1  O   UNL     1     -10.182   9.128  67.097  1.00  0.00    -0.220 OA 
HETATM    2  N   UNL     1      -9.931   8.828  65.749  1.00  0.00    -0.411 N  
HETATM    3  H   UNL     1     -10.475   8.446  67.689  1.00  0.00     0.000 HD 
HETATM    4  C   UNL     1      -9.509   9.809  64.897  1.00  0.00    -0.265 C  
HETATM    5  H   UNL     1     -10.064   7.877  65.405  1.00  0.00     0.000 HD 
HETATM    6  O   UNL     1      -9.271   9.546  63.720  1.00  0.00    -0.209 OA 
ENDROOT
BRANCH   4   7
HETATM    7  C   UNL     1      -9.369  11.195  65.495  1.00  0.00    -0.247 C  
BRANCH   7   8
HETATM    8  C   UNL     1     -10.297  12.204  64.824  1.00  0.00    -0.320 C  
BRANCH   8   9
HETATM    9  C   UNL     1     -10.360  13.504  65.619  1.00  0.00    -0.303 C  
BRANCH   9  10
HETATM   10  C   UNL     1      -9.424  13.464  66.831  1.00  0.00    -0.253 C  
BRANCH  10  11
HETATM   11  C   UNL     1     -10.191  13.879  68.076  1.00  0.00    -0.246 C  
BRANCH  11  12
HETATM   12  C   UNL     1     -11.686  13.554  68.030  1.00  0.00    -0.394 C  
BRANCH  12  13
HETATM   13  C   UNL     1     -11.888  12.145  68.566  1.00  0.00    -0.310 C  
HETATM   14  N   UNL     1     -11.761  12.039  69.940  1.00  0.00    -0.438 N  
HETATM   15  O   UNL     1     -12.161  11.220  67.802  1.00  0.00    -0.631 OA 
HETATM   16  H   UNL     1     -11.525  12.881  70.464  1.00  0.00     0.000 HD 
BRANCH  14  17
HETATM   17  C   UNL     1     -11.937  10.833  70.663  1.00  0.00    -0.367 A  
HETATM   18  C   UNL     1     -13.135  10.502  71.305  1.00  0.00    -0.478 A  
HETATM   19  C   UNL     1     -13.235   9.360  72.099  1.00  0.00    -0.541 A  
HETATM   20  C   UNL     1     -12.139   8.518  72.241  1.00  0.00    -0.455 A  
HETATM   21  C   UNL     1     -10.957   8.802  71.559  1.00  0.00    -0.377 A  
HETATM   22  C   UNL     1     -10.857   9.950  70.763  1.00  0.00    -0.387 A  
ENDBRANCH  14  17
ENDBRANCH  12  13
ENDBRANCH  11  12
ENDBRANCH  10  11
ENDBRANCH   9  10
ENDBRANCH   8   9
ENDBRANCH   7   8
ENDBRANCH   4   7
TORSDOF 8
ENDMDL
MODEL       71
REMARK 921   NORMALIZED FREE ENERGY PREDICTED BY IDOCK:   -4.96 KCAL/MOL
REMARK 922        TOTAL FREE ENERGY PREDICTED BY IDOCK:   -8.06 KCAL/MOL
REMARK 923 INTER-LIGAND FREE ENERGY PREDICTED BY IDOCK:   -7.31 KCAL/MOL
REMARK 924 INTRA-LIGAND FREE ENERGY PREDICTED BY IDOCK:   -0.76 KCAL/MOL
REMARK 927      BINDING AFFINITY PREDICTED BY RF-SCORE:    0.00 PKD
ROOT
HETATM    1  O   UNL     1     -11.938  15.477  63.701  1.00  0.00    -0.875 OA 
HETATM    2  N   UNL     1     -12.375  14.222  63.249  1.00  0.00    -1.092 N  
HETATM    3  H   UNL     1     -11.830  16.193  63.085  1.00  0.00     0.000 HD 
HETATM    4  C   UNL     1     -12.530  13.193  64.133  1.00  0.00    -0.274 C  
HETATM    5  H   UNL     1     -12.576  14.079  62.259  1.00  0.00     0.000 HD 
HETATM    6  O   UNL     1     -12.930  12.097  63.744  1.00  0.00    -0.753 OA 
ENDROOT
BRANCH   4   7
HETATM    7  C   UNL     1     -12.179  13.497  65.576  1.00  0.00    -0.490 C  
BRANCH   7   8
HETATM    8  C   UNL     1     -11.205  12.475  66.156  1.00  0.00    -0.362 C  
BRANCH   8   9
HETATM    9  C   UNL     1     -10.928  12.756  67.629  1.00  0.00    -0.274 C  
BRANCH   9  10
HETATM   10  C   UNL     1     -11.939  13.750  68.208  1.00  0.00    -0.392 C  
BRANCH  10  11
HETATM   11  C   UNL     1     -11.253  14.620  69.249  1.00  0.00    -0.306 C  
BRANCH  11  12
HETATM   12  C   UNL     1     -11.656  16.096  69.198  1.00  0.00    -0.285 C  
BRANCH  12  13
HETATM   13  C   UNL     1     -10.520  16.882  68.562  1.00  0.00    -0.361 C  
HETATM   14  N   UNL     1      -9.267  16.331  68.765  1.00  0.00    -0.230 N  
HETATM   15  O   UNL     1     -10.752  17.902  67.914  1.00  0.00    -0.392 OA 
HETATM   16  H   UNL     1      -9.205  15.483  69.328  1.00  0.00     0.000 HD 
BRANCH  14  17
HETATM   17  C   UNL     1      -8.066  16.871  68.242  1.00  0.00    -0.217 A  
HETATM   18  C   UNL     1      -7.598  16.576  66.957  1.00  0.00    -0.240 A  
HETATM   19  C   UNL     1      -6.358  17.037  66.518  1.00  0.00    -0.219 A  
HETATM   20  C   UNL     1      -5.578  17.827  67.354  1.00  0.00    -0.155 A  
HETATM   21  C   UNL     1      -6.057  18.180  68.614  1.00  0.00    -0.197 A  
HETATM   22  C   UNL     1      -7.303  17.715  69.055  1.00  0.00    -0.194 A  
ENDBRANCH  14  17
ENDBRANCH  12  13
ENDBRANCH  11  12
ENDBRANCH  10  11
ENDBRANCH   9  10
ENDBRANCH   8   9
ENDBRANCH   7   8
ENDBRANCH   4   7
TORSDOF 8
ENDMDL
MODEL       72
REMARK 921   NORMALIZED FREE ENERGY PREDICTED BY IDOCK:   -4.95 KCAL/MOL
REMARK 922        TOTAL FREE ENERGY PREDICTED BY IDOCK:   -8.05 KCAL/MOL
REMARK 923 INTER-LIGAND FREE ENERGY PREDICTED BY IDOCK:   -7.42 KCAL/MOL
REMARK 924 INTRA-LIGAND FREE ENERGY PREDICTED BY IDOCK:   -0.63 KCAL/MOL
REMARK 927      BINDING AFFINITY PREDICTED BY RF-SCORE:    0.00 PKD
ROOT
HETATM    1  O   UNL     1     -12.332  12.648  63.155  1.00  0.00    -0.691 OA 
HETATM    2  N   UNL     1     -11.473  11.537  63.139  1.00  0.00    -0.867 N  
HETATM    3  H   UNL     1     -12.828  12.877  62.377  1.00  0.00     0.000 HD 
HETATM    4  C   UNL     1     -10.760  11.208  64.256  1.00  0.00    -0.333 C  
HETATM    5  H   UNL     1     -11.382  10.976  62.292  1.00  0.00     0.000 HD 
HETATM    6  O   UNL     1     -10.022  10.225  64.251  1.00  0.00    -0.328 OA 
ENDROOT
BRANCH   4   7
HETATM    7  C   UNL     1     -10.942  12.119  65.454  1.00  0.00    -0.346 C  
BRANCH   7   8
HETATM    8  C   UNL     1     -11.038  11.335  66.760  1.00  0.00    -0.314 C  
BRANCH   8   9
HETATM    9  C   UNL     1     -10.581  12.182  67.942  1.00  0.00    -0.230 C  
BRANCH   9  10
HETATM   10  C   UNL     1     -11.715  12.394  68.949  1.00  0.00    -0.372 C  
BRANCH  10  11
HETATM   11  C   UNL     1     -11.949  13.884  69.141  1.00  0.00    -0.404 C  
BRANCH  11  12
HETATM   12  C   UNL     1     -11.803  14.712  67.862  1.00  0.00    -0.352 C  
BRANCH  12  13
HETATM   13  C   UNL     1     -10.965  15.942  68.180  1.00  0.00    -0.335 C  
HETATM   14  N   UNL     1     -10.765  16.784  67.100  1.00  0.00    -0.246 N  
HETATM   15  O   UNL     1     -10.545  16.134  69.320  1.00  0.00    -0.238 OA 
HETATM   16  H   UNL     1     -11.161  16.510  66.202  1.00  0.00     0.000 HD 
BRANCH  14  17
HETATM   17  C   UNL     1     -10.044  18.003  67.165  1.00  0.00    -0.346 A  
HETATM   18  C   UNL     1     -10.600  19.187  67.661  1.00  0.00    -0.546 A  
HETATM   19  C   UNL     1      -9.898  20.390  67.606  1.00  0.00    -0.538 A  
HETATM   20  C   UNL     1      -8.613  20.418  67.077  1.00  0.00    -0.370 A  
HETATM   21  C   UNL     1      -8.023  19.235  66.635  1.00  0.00    -0.288 A  
HETATM   22  C   UNL     1      -8.730  18.027  66.689  1.00  0.00    -0.276 A  
ENDBRANCH  14  17
ENDBRANCH  12  13
ENDBRANCH  11  12
ENDBRANCH  10  11
ENDBRANCH   9  10
ENDBRANCH   8   9
ENDBRANCH   7   8
ENDBRANCH   4   7
TORSDOF 8
ENDMDL
MODEL       73
REMARK 921   NORMALIZED FREE ENERGY PREDICTED BY IDOCK:   -4.94 KCAL/MOL
REMARK 922        TOTAL FREE ENERGY PREDICTED BY IDOCK:   -8.04 KCAL/MOL
REMARK 923 INTER-LIGAND FREE ENERGY PREDICTED BY IDOCK:   -7.26 KCAL/MOL
REMARK 924 INTRA-LIGAND FREE ENERGY PREDICTED BY IDOCK:   -0.78 KCAL/MOL
REMARK 927      BINDING AFFINITY PREDICTED BY RF-SCORE:    0.00 PKD
ROOT
HETATM    1  O   UNL     1     -11.753   4.739  65.098  1.00  0.00    -1.013 OA 
HETATM    2  N   UNL     1     -10.558   4.388  65.745  1.00  0.00    -0.488 N  
HETATM    3  H   UNL     1     -12.072   4.216  64.371  1.00  0.00     0.000 HD 
HETATM    4  C   UNL     1     -10.099   5.139  66.789  1.00  0.00    -0.232 C  
HETATM    5  H   UNL     1     -10.031   3.571  65.434  1.00  0.00     0.000 HD 
HETATM    6  O   UNL     1      -9.062   4.823  67.370  1.00  0.00    -0.111 OA 
ENDROOT
BRANCH   4   7
HETATM    7  C   UNL     1     -10.936   6.348  67.157  1.00  0.00    -0.476 C  
BRANCH   7   8
HETATM    8  C   UNL     1     -10.545   6.923  68.515  1.00  0.00    -0.247 C  
BRANCH   8   9
HETATM    9  C   UNL     1     -11.427   6.361  69.624  1.00  0.00    -0.446 C  
BRANCH   9  10
HETATM   10  C   UNL     1     -10.820   6.618  71.006  1.00  0.00    -0.289 C  
BRANCH  10  11
HETATM   11  C   UNL     1     -11.521   7.801  71.655  1.00  0.00    -0.299 C  
BRANCH  11  12
HETATM   12  C   UNL     1     -10.734   9.113  71.584  1.00  0.00    -0.441 C  
BRANCH  12  13
HETATM   13  C   UNL     1     -11.456  10.054  70.631  1.00  0.00    -0.345 C  
HETATM   14  N   UNL     1     -10.613  10.812  69.837  1.00  0.00    -0.451 N  
HETATM   15  O   UNL     1     -12.685  10.084  70.595  1.00  0.00    -0.282 OA 
HETATM   16  H   UNL     1      -9.608  10.700  69.967  1.00  0.00     0.000 HD 
BRANCH  14  17
HETATM   17  C   UNL     1     -11.058  11.733  68.857  1.00  0.00    -0.243 A  
HETATM   18  C   UNL     1     -11.412  13.052  69.161  1.00  0.00    -0.353 A  
HETATM   19  C   UNL     1     -11.951  13.895  68.189  1.00  0.00    -0.385 A  
HETATM   20  C   UNL     1     -12.118  13.434  66.889  1.00  0.00    -0.406 A  
HETATM   21  C   UNL     1     -11.714  12.142  66.557  1.00  0.00    -0.392 A  
HETATM   22  C   UNL     1     -11.175  11.295  67.534  1.00  0.00    -0.357 A  
ENDBRANCH  14  17
ENDBRANCH  12  13
ENDBRANCH  11  12
ENDBRANCH  10  11
ENDBRANCH   9  10
ENDBRANCH   8   9
ENDBRANCH   7   8
ENDBRANCH   4   7
TORSDOF 8
ENDMDL
MODEL       74
REMARK 921   NORMALIZED FREE ENERGY PREDICTED BY IDOCK:   -4.93 KCAL/MOL
REMARK 922        TOTAL FREE ENERGY PREDICTED BY IDOCK:   -8.02 KCAL/MOL
REMARK 923 INTER-LIGAND FREE ENERGY PREDICTED BY IDOCK:   -7.54 KCAL/MOL
REMARK 924 INTRA-LIGAND FREE ENERGY PREDICTED BY IDOCK:   -0.48 KCAL/MOL
REMARK 927      BINDING AFFINITY PREDICTED BY RF-SCORE:    0.00 PKD
ROOT
HETATM    1  O   UNL     1     -10.239   5.215  65.185  1.00  0.00    -0.375 OA 
HETATM    2  N   UNL     1     -10.917   5.267  66.413  1.00  0.00    -0.628 N  
HETATM    3  H   UNL     1     -10.365   4.475  64.603  1.00  0.00     0.000 HD 
HETATM    4  C   UNL     1     -10.735   6.331  67.250  1.00  0.00    -0.349 C  
HETATM    5  H   UNL     1     -11.545   4.510  66.680  1.00  0.00     0.000 HD 
HETATM    6  O   UNL     1     -11.342   6.389  68.318  1.00  0.00    -0.268 OA 
ENDROOT
BRANCH   4   7
HETATM    7  C   UNL     1      -9.760   7.391  66.777  1.00  0.00    -0.271 C  
BRANCH   7   8
HETATM    8  C   UNL     1     -10.357   8.794  66.854  1.00  0.00    -0.344 C  
BRANCH   8   9
HETATM    9  C   UNL     1      -9.963   9.625  65.638  1.00  0.00    -0.321 C  
BRANCH   9  10
HETATM   10  C   UNL     1     -10.622  11.007  65.669  1.00  0.00    -0.263 C  
BRANCH  10  11
HETATM   11  C   UNL     1     -10.804  11.449  67.112  1.00  0.00    -0.316 C  
BRANCH  11  12
HETATM   12  C   UNL     1     -11.581  12.758  67.274  1.00  0.00    -0.420 C  
BRANCH  12  13
HETATM   13  C   UNL     1     -11.754  13.033  68.759  1.00  0.00    -0.324 C  
HETATM   14  N   UNL     1     -12.317  14.265  69.046  1.00  0.00    -0.562 N  
HETATM   15  O   UNL     1     -11.426  12.190  69.593  1.00  0.00    -0.280 OA 
HETATM   16  H   UNL     1     -12.540  14.880  68.264  1.00  0.00     0.000 HD 
BRANCH  14  17
HETATM   17  C   UNL     1     -12.601  14.725  70.355  1.00  0.00    -0.346 A  
HETATM   18  C   UNL     1     -13.844  14.543  70.969  1.00  0.00    -0.187 A  
HETATM   19  C   UNL     1     -14.122  15.105  72.215  1.00  0.00    -0.633 A  
HETATM   20  C   UNL     1     -13.145  15.838  72.876  1.00  0.00    -0.618 A  
HETATM   21  C   UNL     1     -11.881  15.977  72.304  1.00  0.00    -0.628 A  
HETATM   22  C   UNL     1     -11.603  15.413  71.053  1.00  0.00    -0.410 A  
ENDBRANCH  14  17
ENDBRANCH  12  13
ENDBRANCH  11  12
ENDBRANCH  10  11
ENDBRANCH   9  10
ENDBRANCH   8   9
ENDBRANCH   7   8
ENDBRANCH   4   7
TORSDOF 8
ENDMDL
MODEL       75
REMARK 921   NORMALIZED FREE ENERGY PREDICTED BY IDOCK:   -4.92 KCAL/MOL
REMARK 922        TOTAL FREE ENERGY PREDICTED BY IDOCK:   -8.01 KCAL/MOL
REMARK 923 INTER-LIGAND FREE ENERGY PREDICTED BY IDOCK:   -7.37 KCAL/MOL
REMARK 924 INTRA-LIGAND FREE ENERGY PREDICTED BY IDOCK:   -0.64 KCAL/MOL
REMARK 927      BINDING AFFINITY PREDICTED BY RF-SCORE:    0.00 PKD
ROOT
HETATM    1  O   UNL     1     -11.606   8.816  69.886  1.00  0.00    -0.452 OA 
HETATM    2  N   UNL     1     -12.176   9.769  70.744  1.00  0.00    -0.390 N  
HETATM    3  H   UNL     1     -11.712   7.889  70.066  1.00  0.00     0.000 HD 
HETATM    4  C   UNL     1     -12.023  11.101  70.485  1.00  0.00    -0.380 C  
HETATM    5  H   UNL     1     -12.704   9.466  71.562  1.00  0.00     0.000 HD 
HETATM    6  O   UNL     1     -12.537  11.938  71.224  1.00  0.00    -0.359 OA 
ENDROOT
BRANCH   4   7
HETATM    7  C   UNL     1     -11.197  11.451  69.262  1.00  0.00    -0.342 C  
BRANCH   7   8
HETATM    8  C   UNL     1     -12.004  12.234  68.231  1.00  0.00    -0.259 C  
BRANCH   8   9
HETATM    9  C   UNL     1     -11.484  11.982  66.821  1.00  0.00    -0.410 C  
BRANCH   9  10
HETATM   10  C   UNL     1     -12.139  12.924  65.806  1.00  0.00    -0.513 C  
BRANCH  10  11
HETATM   11  C   UNL     1     -11.100  13.900  65.279  1.00  0.00    -0.318 C  
BRANCH  11  12
HETATM   12  C   UNL     1      -9.772  13.876  66.040  1.00  0.00    -0.270 C  
BRANCH  12  13
HETATM   13  C   UNL     1      -9.403  15.306  66.406  1.00  0.00    -0.296 C  
HETATM   14  N   UNL     1     -10.490  16.134  66.623  1.00  0.00    -0.305 N  
HETATM   15  O   UNL     1      -8.223  15.639  66.510  1.00  0.00    -0.264 OA 
HETATM   16  H   UNL     1     -11.422  15.739  66.500  1.00  0.00     0.000 HD 
BRANCH  14  17
HETATM   17  C   UNL     1     -10.390  17.495  67.004  1.00  0.00    -0.324 A  
HETATM   18  C   UNL     1     -10.469  18.547  66.086  1.00  0.00    -0.447 A  
HETATM   19  C   UNL     1     -10.256  19.867  66.483  1.00  0.00    -0.611 A  
HETATM   20  C   UNL     1      -9.986  20.153  67.815  1.00  0.00    -0.549 A  
HETATM   21  C   UNL     1      -9.964  19.122  68.752  1.00  0.00    -0.493 A  
HETATM   22  C   UNL     1     -10.177  17.797  68.353  1.00  0.00    -0.384 A  
ENDBRANCH  14  17
ENDBRANCH  12  13
ENDBRANCH  11  12
ENDBRANCH  10  11
ENDBRANCH   9  10
ENDBRANCH   8   9
ENDBRANCH   7   8
ENDBRANCH   4   7
TORSDOF 8
ENDMDL
MODEL       76
REMARK 921   NORMALIZED FREE ENERGY PREDICTED BY IDOCK:   -4.92 KCAL/MOL
REMARK 922        TOTAL FREE ENERGY PREDICTED BY IDOCK:   -8.00 KCAL/MOL
REMARK 923 INTER-LIGAND FREE ENERGY PREDICTED BY IDOCK:   -7.03 KCAL/MOL
REMARK 924 INTRA-LIGAND FREE ENERGY PREDICTED BY IDOCK:   -0.97 KCAL/MOL
REMARK 927      BINDING AFFINITY PREDICTED BY RF-SCORE:    0.00 PKD
ROOT
HETATM    1  O   UNL     1     -12.686  14.483  63.491  1.00  0.00    -0.920 OA 
HETATM    2  N   UNL     1     -12.968  14.091  64.809  1.00  0.00    -0.653 N  
HETATM    3  H   UNL     1     -13.157  15.209  63.099  1.00  0.00     0.000 HD 
HETATM    4  C   UNL     1     -12.290  13.048  65.372  1.00  0.00    -0.486 C  
HETATM    5  H   UNL     1     -13.679  14.587  65.346  1.00  0.00     0.000 HD 
HETATM    6  O   UNL     1     -12.521  12.715  66.533  1.00  0.00    -0.407 OA 
ENDROOT
BRANCH   4   7
HETATM    7  C   UNL     1     -11.272  12.359  64.485  1.00  0.00    -0.371 C  
BRANCH   7   8
HETATM    8  C   UNL     1     -10.642  11.149  65.170  1.00  0.00    -0.319 C  
BRANCH   8   9
HETATM    9  C   UNL     1      -9.280  11.500  65.757  1.00  0.00    -0.210 C  
BRANCH   9  10
HETATM   10  C   UNL     1      -9.248  11.269  67.271  1.00  0.00    -0.170 C  
BRANCH  10  11
HETATM   11  C   UNL     1      -9.135  12.606  67.985  1.00  0.00    -0.207 C  
BRANCH  11  12
HETATM   12  C   UNL     1      -8.583  13.738  67.114  1.00  0.00    -0.210 C  
BRANCH  12  13
HETATM   13  C   UNL     1      -9.426  14.982  67.353  1.00  0.00    -0.201 C  
HETATM   14  N   UNL     1      -8.798  16.166  67.008  1.00  0.00    -0.196 N  
HETATM   15  O   UNL     1     -10.569  14.886  67.796  1.00  0.00    -0.255 OA 
HETATM   16  H   UNL     1      -7.843  16.114  66.655  1.00  0.00     0.000 HD 
BRANCH  14  17
HETATM   17  C   UNL     1      -9.398  17.445  67.114  1.00  0.00    -0.245 A  
HETATM   18  C   UNL     1      -9.919  18.132  66.012  1.00  0.00    -0.220 A  
HETATM   19  C   UNL     1     -10.401  19.434  66.137  1.00  0.00    -0.595 A  
HETATM   20  C   UNL     1     -10.393  20.058  67.378  1.00  0.00    -0.533 A  
HETATM   21  C   UNL     1      -9.934  19.365  68.497  1.00  0.00    -0.520 A  
HETATM   22  C   UNL     1      -9.449  18.057  68.370  1.00  0.00    -0.314 A  
ENDBRANCH  14  17
ENDBRANCH  12  13
ENDBRANCH  11  12
ENDBRANCH  10  11
ENDBRANCH   9  10
ENDBRANCH   8   9
ENDBRANCH   7   8
ENDBRANCH   4   7
TORSDOF 8
ENDMDL
MODEL       77
REMARK 921   NORMALIZED FREE ENERGY PREDICTED BY IDOCK:   -4.88 KCAL/MOL
REMARK 922        TOTAL FREE ENERGY PREDICTED BY IDOCK:   -7.95 KCAL/MOL
REMARK 923 INTER-LIGAND FREE ENERGY PREDICTED BY IDOCK:   -7.48 KCAL/MOL
REMARK 924 INTRA-LIGAND FREE ENERGY PREDICTED BY IDOCK:   -0.47 KCAL/MOL
REMARK 927      BINDING AFFINITY PREDICTED BY RF-SCORE:    0.00 PKD
ROOT
HETATM    1  O   UNL     1     -11.882   6.676  69.265  1.00  0.00    -0.629 OA 
HETATM    2  N   UNL     1     -11.325   6.332  70.506  1.00  0.00    -0.358 N  
HETATM    3  H   UNL     1     -11.456   6.405  68.460  1.00  0.00     0.000 HD 
HETATM    4  C   UNL     1     -11.938   6.721  71.663  1.00  0.00    -0.347 C  
HETATM    5  H   UNL     1     -10.462   5.790  70.544  1.00  0.00     0.000 HD 
HETATM    6  O   UNL     1     -11.463   6.405  72.752  1.00  0.00    -0.229 OA 
ENDROOT
BRANCH   4   7
HETATM    7  C   UNL     1     -13.200   7.547  71.502  1.00  0.00    -0.404 C  
BRANCH   7   8
HETATM    8  C   UNL     1     -13.153   8.830  72.326  1.00  0.00    -0.458 C  
BRANCH   8   9
HETATM    9  C   UNL     1     -12.250   9.869  71.672  1.00  0.00    -0.482 C  
BRANCH   9  10
HETATM   10  C   UNL     1     -12.908  11.252  71.657  1.00  0.00    -0.510 C  
BRANCH  10  11
HETATM   11  C   UNL     1     -12.218  12.130  70.626  1.00  0.00    -0.392 C  
BRANCH  11  12
HETATM   12  C   UNL     1     -12.319  13.631  70.911  1.00  0.00    -0.450 C  
BRANCH  12  13
HETATM   13  C   UNL     1     -12.141  14.382  69.600  1.00  0.00    -0.334 C  
HETATM   14  N   UNL     1     -11.717  13.590  68.547  1.00  0.00    -0.336 N  
HETATM   15  O   UNL     1     -12.388  15.585  69.531  1.00  0.00    -0.292 OA 
HETATM   16  H   UNL     1     -11.540  12.603  68.734  1.00  0.00     0.000 HD 
BRANCH  14  17
HETATM   17  C   UNL     1     -11.514  14.064  67.228  1.00  0.00    -0.348 A  
HETATM   18  C   UNL     1     -12.337  13.702  66.156  1.00  0.00    -0.476 A  
HETATM   19  C   UNL     1     -12.040  14.099  64.853  1.00  0.00    -0.438 A  
HETATM   20  C   UNL     1     -10.925  14.890  64.608  1.00  0.00    -0.323 A  
HETATM   21  C   UNL     1     -10.129  15.309  65.673  1.00  0.00    -0.401 A  
HETATM   22  C   UNL     1     -10.427  14.908  66.981  1.00  0.00    -0.272 A  
ENDBRANCH  14  17
ENDBRANCH  12  13
ENDBRANCH  11  12
ENDBRANCH  10  11
ENDBRANCH   9  10
ENDBRANCH   8   9
ENDBRANCH   7   8
ENDBRANCH   4   7
TORSDOF 8
ENDMDL
MODEL       78
REMARK 921   NORMALIZED FREE ENERGY PREDICTED BY IDOCK:   -4.87 KCAL/MOL
REMARK 922        TOTAL FREE ENERGY PREDICTED BY IDOCK:   -7.94 KCAL/MOL
REMARK 923 INTER-LIGAND FREE ENERGY PREDICTED BY IDOCK:   -7.43 KCAL/MOL
REMARK 924 INTRA-LIGAND FREE ENERGY PREDICTED BY IDOCK:   -0.51 KCAL/MOL
REMARK 927      BINDING AFFINITY PREDICTED BY RF-SCORE:    0.00 PKD
ROOT
HETATM    1  O   UNL     1     -13.187   8.123  72.261  1.00  0.00    -0.488 OA 
HETATM    2  N   UNL     1     -13.659   9.419  72.523  1.00  0.00    -0.679 N  
HETATM    3  H   UNL     1     -13.603   7.374  72.672  1.00  0.00     0.000 HD 
HETATM    4  C   UNL     1     -13.061  10.497  71.933  1.00  0.00    -0.462 C  
HETATM    5  H   UNL     1     -14.448   9.557  73.153  1.00  0.00     0.000 HD 
HETATM    6  O   UNL     1     -13.484  11.632  72.145  1.00  0.00    -0.423 OA 
ENDROOT
BRANCH   4   7
HETATM    7  C   UNL     1     -11.878  10.192  71.034  1.00  0.00    -0.475 C  
BRANCH   7   8
HETATM    8  C   UNL     1     -11.963  10.936  69.704  1.00  0.00    -0.414 C  
BRANCH   8   9
HETATM    9  C   UNL     1     -10.599  11.004  69.026  1.00  0.00    -0.258 C  
BRANCH   9  10
HETATM   10  C   UNL     1     -10.588  12.039  67.897  1.00  0.00    -0.227 C  
BRANCH  10  11
HETATM   11  C   UNL     1     -11.679  13.068  68.143  1.00  0.00    -0.391 C  
BRANCH  11  12
HETATM   12  C   UNL     1     -11.749  14.173  67.086  1.00  0.00    -0.430 C  
BRANCH  12  13
HETATM   13  C   UNL     1     -11.302  15.479  67.726  1.00  0.00    -0.286 C  
HETATM   14  N   UNL     1     -10.445  16.230  66.940  1.00  0.00    -0.309 N  
HETATM   15  O   UNL     1     -11.715  15.802  68.839  1.00  0.00    -0.383 OA 
HETATM   16  H   UNL     1     -10.171  15.850  66.035  1.00  0.00     0.000 HD 
BRANCH  14  17
HETATM   17  C   UNL     1      -9.925  17.494  67.315  1.00  0.00    -0.312 A  
HETATM   18  C   UNL     1      -8.705  17.644  67.982  1.00  0.00    -0.253 A  
HETATM   19  C   UNL     1      -8.279  18.893  68.433  1.00  0.00    -0.377 A  
HETATM   20  C   UNL     1      -9.060  20.017  68.197  1.00  0.00    -0.299 A  
HETATM   21  C   UNL     1     -10.250  19.892  67.481  1.00  0.00    -0.562 A  
HETATM   22  C   UNL     1     -10.677  18.637  67.030  1.00  0.00    -0.400 A  
ENDBRANCH  14  17
ENDBRANCH  12  13
ENDBRANCH  11  12
ENDBRANCH  10  11
ENDBRANCH   9  10
ENDBRANCH   8   9
ENDBRANCH   7   8
ENDBRANCH   4   7
TORSDOF 8
ENDMDL
MODEL       79
REMARK 921   NORMALIZED FREE ENERGY PREDICTED BY IDOCK:   -4.84 KCAL/MOL
REMARK 922        TOTAL FREE ENERGY PREDICTED BY IDOCK:   -7.89 KCAL/MOL
REMARK 923 INTER-LIGAND FREE ENERGY PREDICTED BY IDOCK:   -7.23 KCAL/MOL
REMARK 924 INTRA-LIGAND FREE ENERGY PREDICTED BY IDOCK:   -0.66 KCAL/MOL
REMARK 927      BINDING AFFINITY PREDICTED BY RF-SCORE:    0.00 PKD
ROOT
HETATM    1  O   UNL     1     -11.722   4.775  65.147  1.00  0.00    -1.013 OA 
HETATM    2  N   UNL     1     -10.567   4.363  65.828  1.00  0.00    -0.488 N  
HETATM    3  H   UNL     1     -11.997   4.322  64.358  1.00  0.00     0.000 HD 
HETATM    4  C   UNL     1     -10.171   5.014  66.961  1.00  0.00    -0.208 C  
HETATM    5  H   UNL     1     -10.022   3.575  65.476  1.00  0.00     0.000 HD 
HETATM    6  O   UNL     1      -9.170   4.643  67.571  1.00  0.00    -0.119 OA 
ENDROOT
BRANCH   4   7
HETATM    7  C   UNL     1     -11.030   6.188  67.388  1.00  0.00    -0.409 C  
BRANCH   7   8
HETATM    8  C   UNL     1     -11.038   6.371  68.903  1.00  0.00    -0.420 C  
BRANCH   8   9
HETATM    9  C   UNL     1     -10.335   7.664  69.303  1.00  0.00    -0.218 C  
BRANCH   9  10
HETATM   10  C   UNL     1     -11.088   8.385  70.424  1.00  0.00    -0.240 C  
BRANCH  10  11
HETATM   11  C   UNL     1     -11.029   9.886  70.189  1.00  0.00    -0.356 C  
BRANCH  11  12
HETATM   12  C   UNL     1     -10.094  10.307  69.052  1.00  0.00    -0.225 C  
BRANCH  12  13
HETATM   13  C   UNL     1     -10.926  10.978  67.970  1.00  0.00    -0.258 C  
HETATM   14  N   UNL     1     -10.180  11.531  66.944  1.00  0.00    -0.212 N  
HETATM   15  O   UNL     1     -12.155  10.982  68.039  1.00  0.00    -0.615 OA 
HETATM   16  H   UNL     1      -9.164  11.467  67.005  1.00  0.00     0.000 HD 
BRANCH  14  17
HETATM   17  C   UNL     1     -10.739  12.179  65.815  1.00  0.00    -0.267 A  
HETATM   18  C   UNL     1     -11.170  13.510  65.840  1.00  0.00    -0.310 A  
HETATM   19  C   UNL     1     -11.816  14.079  64.743  1.00  0.00    -0.415 A  
HETATM   20  C   UNL     1     -12.014  13.328  63.591  1.00  0.00    -0.547 A  
HETATM   21  C   UNL     1     -11.536  12.020  63.529  1.00  0.00    -0.553 A  
HETATM   22  C   UNL     1     -10.889  11.449  64.632  1.00  0.00    -0.359 A  
ENDBRANCH  14  17
ENDBRANCH  12  13
ENDBRANCH  11  12
ENDBRANCH  10  11
ENDBRANCH   9  10
ENDBRANCH   8   9
ENDBRANCH   7   8
ENDBRANCH   4   7
TORSDOF 8
ENDMDL
MODEL       80
REMARK 921   NORMALIZED FREE ENERGY PREDICTED BY IDOCK:   -4.84 KCAL/MOL
REMARK 922        TOTAL FREE ENERGY PREDICTED BY IDOCK:   -7.88 KCAL/MOL
REMARK 923 INTER-LIGAND FREE ENERGY PREDICTED BY IDOCK:   -7.19 KCAL/MOL
REMARK 924 INTRA-LIGAND FREE ENERGY PREDICTED BY IDOCK:   -0.70 KCAL/MOL
REMARK 927      BINDING AFFINITY PREDICTED BY RF-SCORE:    0.00 PKD
ROOT
HETATM    1  O   UNL     1     -10.780   6.396  74.234  1.00  0.00    -0.406 OA 
HETATM    2  N   UNL     1      -9.978   7.377  73.629  1.00  0.00    -0.327 N  
HETATM    3  H   UNL     1     -10.455   5.912  74.984  1.00  0.00     0.000 HD 
HETATM    4  C   UNL     1     -10.446   8.073  72.551  1.00  0.00    -0.316 C  
HETATM    5  H   UNL     1      -9.046   7.570  73.995  1.00  0.00     0.000 HD 
HETATM    6  O   UNL     1      -9.753   8.946  72.030  1.00  0.00    -0.316 OA 
ENDROOT
BRANCH   4   7
HETATM    7  C   UNL     1     -11.830   7.695  72.063  1.00  0.00    -0.342 C  
BRANCH   7   8
HETATM    8  C   UNL     1     -12.895   8.677  72.544  1.00  0.00    -0.352 C  
BRANCH   8   9
HETATM    9  C   UNL     1     -13.381   9.561  71.401  1.00  0.00    -0.435 C  
BRANCH   9  10
HETATM   10  C   UNL     1     -12.905  11.007  71.571  1.00  0.00    -0.555 C  
BRANCH  10  11
HETATM   11  C   UNL     1     -11.914  11.346  70.469  1.00  0.00    -0.451 C  
BRANCH  11  12
HETATM   12  C   UNL     1     -11.924  12.817  70.047  1.00  0.00    -0.371 C  
BRANCH  12  13
HETATM   13  C   UNL     1     -11.276  12.928  68.675  1.00  0.00    -0.281 C  
HETATM   14  N   UNL     1     -11.895  12.172  67.695  1.00  0.00    -0.311 N  
HETATM   15  O   UNL     1     -10.301  13.658  68.502  1.00  0.00    -0.239 OA 
HETATM   16  H   UNL     1     -12.694  11.601  67.967  1.00  0.00     0.000 HD 
BRANCH  14  17
HETATM   17  C   UNL     1     -11.487  12.141  66.338  1.00  0.00    -0.370 A  
HETATM   18  C   UNL     1     -10.531  11.242  65.854  1.00  0.00    -0.314 A  
HETATM   19  C   UNL     1     -10.074  11.315  64.538  1.00  0.00    -0.348 A  
HETATM   20  C   UNL     1     -10.590  12.278  63.680  1.00  0.00    -0.501 A  
HETATM   21  C   UNL     1     -11.587  13.142  64.130  1.00  0.00    -0.460 A  
HETATM   22  C   UNL     1     -12.044  13.068  65.452  1.00  0.00    -0.490 A  
ENDBRANCH  14  17
ENDBRANCH  12  13
ENDBRANCH  11  12
ENDBRANCH  10  11
ENDBRANCH   9  10
ENDBRANCH   8   9
ENDBRANCH   7   8
ENDBRANCH   4   7
TORSDOF 8
ENDMDL
MODEL       81
REMARK 921   NORMALIZED FREE ENERGY PREDICTED BY IDOCK:   -4.83 KCAL/MOL
REMARK 922        TOTAL FREE ENERGY PREDICTED BY IDOCK:   -7.88 KCAL/MOL
REMARK 923 INTER-LIGAND FREE ENERGY PREDICTED BY IDOCK:   -7.16 KCAL/MOL
REMARK 924 INTRA-LIGAND FREE ENERGY PREDICTED BY IDOCK:   -0.72 KCAL/MOL
REMARK 927      BINDING AFFINITY PREDICTED BY RF-SCORE:    0.00 PKD
ROOT
HETATM    1  O   UNL     1     -14.364   9.180  73.117  1.00  0.00    -1.102 OA 
HETATM    2  N   UNL     1     -14.115   7.992  72.413  1.00  0.00    -0.585 N  
HETATM    3  H   UNL     1     -15.127   9.249  73.680  1.00  0.00     0.000 HD 
HETATM    4  C   UNL     1     -13.018   7.893  71.605  1.00  0.00    -0.334 C  
HETATM    5  H   UNL     1     -14.753   7.202  72.505  1.00  0.00     0.000 HD 
HETATM    6  O   UNL     1     -12.787   6.847  71.001  1.00  0.00    -0.333 OA 
ENDROOT
BRANCH   4   7
HETATM    7  C   UNL     1     -12.146   9.130  71.512  1.00  0.00    -0.422 C  
BRANCH   7   8
HETATM    8  C   UNL     1     -10.696   8.837  71.889  1.00  0.00    -0.429 C  
BRANCH   8   9
HETATM    9  C   UNL     1      -9.748   9.219  70.759  1.00  0.00    -0.348 C  
BRANCH   9  10
HETATM   10  C   UNL     1     -10.406   9.031  69.389  1.00  0.00    -0.217 C  
BRANCH  10  11
HETATM   11  C   UNL     1      -9.876  10.079  68.424  1.00  0.00    -0.169 C  
BRANCH  11  12
HETATM   12  C   UNL     1     -10.731  10.265  67.167  1.00  0.00    -0.303 C  
BRANCH  12  13
HETATM   13  C   UNL     1     -11.119  11.732  67.063  1.00  0.00    -0.304 C  
HETATM   14  N   UNL     1     -10.428  12.563  67.928  1.00  0.00    -0.212 N  
HETATM   15  O   UNL     1     -11.965  12.098  66.249  1.00  0.00    -0.605 OA 
HETATM   16  H   UNL     1      -9.753  12.136  68.562  1.00  0.00     0.000 HD 
BRANCH  14  17
HETATM   17  C   UNL     1     -10.599  13.968  67.987  1.00  0.00    -0.247 A  
HETATM   18  C   UNL     1      -9.891  14.853  67.168  1.00  0.00    -0.231 A  
HETATM   19  C   UNL     1     -10.005  16.234  67.331  1.00  0.00    -0.249 A  
HETATM   20  C   UNL     1     -10.853  16.748  68.304  1.00  0.00    -0.366 A  
HETATM   21  C   UNL     1     -11.611  15.879  69.087  1.00  0.00    -0.382 A  
HETATM   22  C   UNL     1     -11.495  14.493  68.924  1.00  0.00    -0.327 A  
ENDBRANCH  14  17
ENDBRANCH  12  13
ENDBRANCH  11  12
ENDBRANCH  10  11
ENDBRANCH   9  10
ENDBRANCH   8   9
ENDBRANCH   7   8
ENDBRANCH   4   7
TORSDOF 8
ENDMDL
MODEL       82
REMARK 921   NORMALIZED FREE ENERGY PREDICTED BY IDOCK:   -4.83 KCAL/MOL
REMARK 922        TOTAL FREE ENERGY PREDICTED BY IDOCK:   -7.88 KCAL/MOL
REMARK 923 INTER-LIGAND FREE ENERGY PREDICTED BY IDOCK:   -6.90 KCAL/MOL
REMARK 924 INTRA-LIGAND FREE ENERGY PREDICTED BY IDOCK:   -0.97 KCAL/MOL
REMARK 927      BINDING AFFINITY PREDICTED BY RF-SCORE:    0.00 PKD
ROOT
HETATM    1  O   UNL     1      -6.630  19.542  68.601  1.00  0.00    -0.259 OA 
HETATM    2  N   UNL     1      -6.486  18.624  67.550  1.00  0.00    -0.195 N  
HETATM    3  H   UNL     1      -6.150  19.418  69.412  1.00  0.00     0.000 HD 
HETATM    4  C   UNL     1      -7.176  18.803  66.385  1.00  0.00    -0.239 C  
HETATM    5  H   UNL     1      -5.864  17.822  67.656  1.00  0.00     0.000 HD 
HETATM    6  O   UNL     1      -7.037  18.010  65.456  1.00  0.00    -0.515 OA 
ENDROOT
BRANCH   4   7
HETATM    7  C   UNL     1      -8.095  20.007  66.335  1.00  0.00    -0.338 C  
BRANCH   7   8
HETATM    8  C   UNL     1      -9.549  19.609  66.099  1.00  0.00    -0.464 C  
BRANCH   8   9
HETATM    9  C   UNL     1     -10.410  19.933  67.314  1.00  0.00    -0.574 C  
BRANCH   9  10
HETATM   10  C   UNL     1     -10.256  18.873  68.408  1.00  0.00    -0.433 C  
BRANCH  10  11
HETATM   11  C   UNL     1     -10.654  17.514  67.856  1.00  0.00    -0.390 C  
BRANCH  11  12
HETATM   12  C   UNL     1      -9.604  16.419  68.064  1.00  0.00    -0.226 C  
BRANCH  12  13
HETATM   13  C   UNL     1      -9.657  15.470  66.877  1.00  0.00    -0.228 C  
HETATM   14  N   UNL     1     -10.909  14.930  66.640  1.00  0.00    -0.314 N  
HETATM   15  O   UNL     1      -8.650  15.253  66.205  1.00  0.00    -0.241 OA 
HETATM   16  H   UNL     1     -11.666  15.184  67.274  1.00  0.00     0.000 HD 
BRANCH  14  17
HETATM   17  C   UNL     1     -11.205  14.047  65.572  1.00  0.00    -0.311 A  
HETATM   18  C   UNL     1     -11.915  14.444  64.434  1.00  0.00    -0.471 A  
HETATM   19  C   UNL     1     -12.283  13.520  63.456  1.00  0.00    -0.410 A  
HETATM   20  C   UNL     1     -11.920  12.186  63.593  1.00  0.00    -0.628 A  
HETATM   21  C   UNL     1     -11.161  11.786  64.691  1.00  0.00    -0.363 A  
HETATM   22  C   UNL     1     -10.793  12.714  65.674  1.00  0.00    -0.305 A  
ENDBRANCH  14  17
ENDBRANCH  12  13
ENDBRANCH  11  12
ENDBRANCH  10  11
ENDBRANCH   9  10
ENDBRANCH   8   9
ENDBRANCH   7   8
ENDBRANCH   4   7
TORSDOF 8
ENDMDL
MODEL       83
REMARK 921   NORMALIZED FREE ENERGY PREDICTED BY IDOCK:   -4.79 KCAL/MOL
REMARK 922        TOTAL FREE ENERGY PREDICTED BY IDOCK:   -7.82 KCAL/MOL
REMARK 923 INTER-LIGAND FREE ENERGY PREDICTED BY IDOCK:   -6.97 KCAL/MOL
REMARK 924 INTRA-LIGAND FREE ENERGY PREDICTED BY IDOCK:   -0.85 KCAL/MOL
REMARK 927      BINDING AFFINITY PREDICTED BY RF-SCORE:    0.00 PKD
ROOT
HETATM    1  O   UNL     1     -13.407  15.999  71.227  1.00  0.00    -0.507 OA 
HETATM    2  N   UNL     1     -12.822  15.879  69.957  1.00  0.00    -0.630 N  
HETATM    3  H   UNL     1     -13.807  16.820  71.491  1.00  0.00     0.000 HD 
HETATM    4  C   UNL     1     -12.247  14.700  69.577  1.00  0.00    -0.258 C  
HETATM    5  H   UNL     1     -12.826  16.673  69.317  1.00  0.00     0.000 HD 
HETATM    6  O   UNL     1     -11.750  14.586  68.458  1.00  0.00    -0.294 OA 
ENDROOT
BRANCH   4   7
HETATM    7  C   UNL     1     -12.265  13.588  70.608  1.00  0.00    -0.434 C  
BRANCH   7   8
HETATM    8  C   UNL     1     -11.930  12.232  69.994  1.00  0.00    -0.379 C  
BRANCH   8   9
HETATM    9  C   UNL     1     -12.242  11.099  70.964  1.00  0.00    -0.438 C  
BRANCH   9  10
HETATM   10  C   UNL     1     -11.370   9.870  70.688  1.00  0.00    -0.413 C  
BRANCH  10  11
HETATM   11  C   UNL     1     -10.130  10.293  69.916  1.00  0.00    -0.219 C  
BRANCH  11  12
HETATM   12  C   UNL     1      -9.627   9.248  68.916  1.00  0.00    -0.155 C  
BRANCH  12  13
HETATM   13  C   UNL     1     -10.257   9.536  67.562  1.00  0.00    -0.228 C  
HETATM   14  N   UNL     1     -10.217  10.869  67.191  1.00  0.00    -0.201 N  
HETATM   15  O   UNL     1     -10.729   8.623  66.886  1.00  0.00    -0.252 OA 
HETATM   16  H   UNL     1      -9.804  11.534  67.845  1.00  0.00     0.000 HD 
BRANCH  14  17
HETATM   17  C   UNL     1     -10.715  11.368  65.962  1.00  0.00    -0.263 A  
HETATM   18  C   UNL     1     -10.107  11.096  64.732  1.00  0.00    -0.351 A  
HETATM   19  C   UNL     1     -10.559  11.694  63.556  1.00  0.00    -0.496 A  
HETATM   20  C   UNL     1     -11.649  12.555  63.594  1.00  0.00    -0.580 A  
HETATM   21  C   UNL     1     -12.303  12.789  64.802  1.00  0.00    -0.540 A  
HETATM   22  C   UNL     1     -11.847  12.189  65.983  1.00  0.00    -0.328 A  
ENDBRANCH  14  17
ENDBRANCH  12  13
ENDBRANCH  11  12
ENDBRANCH  10  11
ENDBRANCH   9  10
ENDBRANCH   8   9
ENDBRANCH   7   8
ENDBRANCH   4   7
TORSDOF 8
ENDMDL
MODEL       84
REMARK 921   NORMALIZED FREE ENERGY PREDICTED BY IDOCK:   -4.76 KCAL/MOL
REMARK 922        TOTAL FREE ENERGY PREDICTED BY IDOCK:   -7.78 KCAL/MOL
REMARK 923 INTER-LIGAND FREE ENERGY PREDICTED BY IDOCK:   -7.21 KCAL/MOL
REMARK 924 INTRA-LIGAND FREE ENERGY PREDICTED BY IDOCK:   -0.56 KCAL/MOL
REMARK 927      BINDING AFFINITY PREDICTED BY RF-SCORE:    0.00 PKD
ROOT
HETATM    1  O   UNL     1     -12.018  15.481  64.008  1.00  0.00    -0.918 OA 
HETATM    2  N   UNL     1     -12.495  14.374  63.288  1.00  0.00    -0.963 N  
HETATM    3  H   UNL     1     -12.225  16.362  63.718  1.00  0.00     0.000 HD 
HETATM    4  C   UNL     1     -12.199  13.108  63.705  1.00  0.00    -0.456 C  
HETATM    5  H   UNL     1     -13.064  14.516  62.454  1.00  0.00     0.000 HD 
HETATM    6  O   UNL     1     -12.631  12.136  63.087  1.00  0.00    -0.564 OA 
ENDROOT
BRANCH   4   7
HETATM    7  C   UNL     1     -11.325  13.001  64.939  1.00  0.00    -0.332 C  
BRANCH   7   8
HETATM    8  C   UNL     1     -10.087  12.142  64.692  1.00  0.00    -0.282 C  
BRANCH   8   9
HETATM    9  C   UNL     1     -10.430  10.658  64.745  1.00  0.00    -0.280 C  
BRANCH   9  10
HETATM   10  C   UNL     1      -9.268   9.836  65.309  1.00  0.00    -0.294 C  
BRANCH  10  11
HETATM   11  C   UNL     1      -8.939  10.320  66.711  1.00  0.00    -0.147 C  
BRANCH  11  12
HETATM   12  C   UNL     1      -9.982   9.944  67.766  1.00  0.00    -0.201 C  
BRANCH  12  13
HETATM   13  C   UNL     1     -10.829  11.172  68.064  1.00  0.00    -0.225 C  
HETATM   14  N   UNL     1     -10.095  12.323  68.293  1.00  0.00    -0.215 N  
HETATM   15  O   UNL     1     -12.057  11.098  68.066  1.00  0.00    -0.635 OA 
HETATM   16  H   UNL     1      -9.079  12.253  68.270  1.00  0.00     0.000 HD 
BRANCH  14  17
HETATM   17  C   UNL     1     -10.668  13.591  68.559  1.00  0.00    -0.255 A  
HETATM   18  C   UNL     1     -10.468  14.702  67.733  1.00  0.00    -0.246 A  
HETATM   19  C   UNL     1     -10.956  15.960  68.085  1.00  0.00    -0.335 A  
HETATM   20  C   UNL     1     -11.677  16.117  69.263  1.00  0.00    -0.224 A  
HETATM   21  C   UNL     1     -11.937  15.008  70.066  1.00  0.00    -0.375 A  
HETATM   22  C   UNL     1     -11.445  13.745  69.712  1.00  0.00    -0.267 A  
ENDBRANCH  14  17
ENDBRANCH  12  13
ENDBRANCH  11  12
ENDBRANCH  10  11
ENDBRANCH   9  10
ENDBRANCH   8   9
ENDBRANCH   7   8
ENDBRANCH   4   7
TORSDOF 8
ENDMDL
MODEL       85
REMARK 921   NORMALIZED FREE ENERGY PREDICTED BY IDOCK:   -4.75 KCAL/MOL
REMARK 922        TOTAL FREE ENERGY PREDICTED BY IDOCK:   -7.75 KCAL/MOL
REMARK 923 INTER-LIGAND FREE ENERGY PREDICTED BY IDOCK:   -6.89 KCAL/MOL
REMARK 924 INTRA-LIGAND FREE ENERGY PREDICTED BY IDOCK:   -0.86 KCAL/MOL
REMARK 927      BINDING AFFINITY PREDICTED BY RF-SCORE:    0.00 PKD
ROOT
HETATM    1  O   UNL     1      -6.557  12.898  70.481  1.00  0.00    -0.401 OA 
HETATM    2  N   UNL     1      -6.929  12.178  69.334  1.00  0.00    -0.314 N  
HETATM    3  H   UNL     1      -6.070  12.469  71.175  1.00  0.00     0.000 HD 
HETATM    4  C   UNL     1      -7.628  12.795  68.337  1.00  0.00    -0.133 C  
HETATM    5  H   UNL     1      -6.675  11.194  69.246  1.00  0.00     0.000 HD 
HETATM    6  O   UNL     1      -7.939  12.172  67.323  1.00  0.00    -0.160 OA 
ENDROOT
BRANCH   4   7
HETATM    7  C   UNL     1      -7.982  14.250  68.573  1.00  0.00    -0.145 C  
BRANCH   7   8
HETATM    8  C   UNL     1      -7.888  15.077  67.294  1.00  0.00    -0.241 C  
BRANCH   8   9
HETATM    9  C   UNL     1      -9.258  15.604  66.880  1.00  0.00    -0.257 C  
BRANCH   9  10
HETATM   10  C   UNL     1      -9.836  14.800  65.712  1.00  0.00    -0.373 C  
BRANCH  10  11
HETATM   11  C   UNL     1     -10.741  13.704  66.251  1.00  0.00    -0.285 C  
BRANCH  11  12
HETATM   12  C   UNL     1     -12.053  14.213  66.854  1.00  0.00    -0.466 C  
BRANCH  12  13
HETATM   13  C   UNL     1     -11.984  14.048  68.364  1.00  0.00    -0.343 C  
HETATM   14  N   UNL     1     -12.567  15.083  69.074  1.00  0.00    -0.454 N  
HETATM   15  O   UNL     1     -11.462  13.050  68.860  1.00  0.00    -0.260 OA 
HETATM   16  H   UNL     1     -12.962  15.860  68.546  1.00  0.00     0.000 HD 
BRANCH  14  17
HETATM   17  C   UNL     1     -12.649  15.131  70.488  1.00  0.00    -0.380 A  
HETATM   18  C   UNL     1     -11.767  15.880  71.273  1.00  0.00    -0.504 A  
HETATM   19  C   UNL     1     -11.809  15.815  72.666  1.00  0.00    -0.596 A  
HETATM   20  C   UNL     1     -12.757  15.015  73.292  1.00  0.00    -0.635 A  
HETATM   21  C   UNL     1     -13.682  14.310  72.524  1.00  0.00    -0.608 A  
HETATM   22  C   UNL     1     -13.638  14.375  71.126  1.00  0.00    -0.338 A  
ENDBRANCH  14  17
ENDBRANCH  12  13
ENDBRANCH  11  12
ENDBRANCH  10  11
ENDBRANCH   9  10
ENDBRANCH   8   9
ENDBRANCH   7   8
ENDBRANCH   4   7
TORSDOF 8
ENDMDL
MODEL       86
REMARK 921   NORMALIZED FREE ENERGY PREDICTED BY IDOCK:   -4.74 KCAL/MOL
REMARK 922        TOTAL FREE ENERGY PREDICTED BY IDOCK:   -7.75 KCAL/MOL
REMARK 923 INTER-LIGAND FREE ENERGY PREDICTED BY IDOCK:   -7.03 KCAL/MOL
REMARK 924 INTRA-LIGAND FREE ENERGY PREDICTED BY IDOCK:   -0.72 KCAL/MOL
REMARK 927      BINDING AFFINITY PREDICTED BY RF-SCORE:    0.00 PKD
ROOT
HETATM    1  O   UNL     1     -12.028  11.348  63.021  1.00  0.00    -0.918 OA 
HETATM    2  N   UNL     1     -12.829  12.385  63.526  1.00  0.00    -0.764 N  
HETATM    3  H   UNL     1     -12.411  10.680  62.464  1.00  0.00     0.000 HD 
HETATM    4  C   UNL     1     -12.280  13.345  64.327  1.00  0.00    -0.392 C  
HETATM    5  H   UNL     1     -13.821  12.421  63.294  1.00  0.00     0.000 HD 
HETATM    6  O   UNL     1     -12.974  14.265  64.755  1.00  0.00    -0.653 OA 
ENDROOT
BRANCH   4   7
HETATM    7  C   UNL     1     -10.804  13.189  64.636  1.00  0.00    -0.383 C  
BRANCH   7   8
HETATM    8  C   UNL     1     -10.328  14.197  65.679  1.00  0.00    -0.348 C  
BRANCH   8   9
HETATM    9  C   UNL     1     -10.069  13.518  67.019  1.00  0.00    -0.244 C  
BRANCH   9  10
HETATM   10  C   UNL     1     -11.122  13.914  68.058  1.00  0.00    -0.279 C  
BRANCH  10  11
HETATM   11  C   UNL     1     -11.531  12.687  68.857  1.00  0.00    -0.354 C  
BRANCH  11  12
HETATM   12  C   UNL     1     -11.361  11.364  68.106  1.00  0.00    -0.374 C  
BRANCH  12  13
HETATM   13  C   UNL     1     -10.747  10.348  69.057  1.00  0.00    -0.228 C  
HETATM   14  N   UNL     1     -11.534   9.231  69.277  1.00  0.00    -0.368 N  
HETATM   15  O   UNL     1      -9.634  10.541  69.544  1.00  0.00    -0.190 OA 
HETATM   16  H   UNL     1     -12.444   9.191  68.818  1.00  0.00     0.000 HD 
BRANCH  14  17
HETATM   17  C   UNL     1     -11.156   8.141  70.100  1.00  0.00    -0.187 A  
HETATM   18  C   UNL     1     -11.218   8.188  71.496  1.00  0.00    -0.307 A  
HETATM   19  C   UNL     1     -10.733   7.137  72.274  1.00  0.00    -0.252 A  
HETATM   20  C   UNL     1     -10.202   6.009  71.660  1.00  0.00    -0.245 A  
HETATM   21  C   UNL     1     -10.189   5.922  70.269  1.00  0.00    -0.279 A  
HETATM   22  C   UNL     1     -10.675   6.979  69.489  1.00  0.00    -0.263 A  
ENDBRANCH  14  17
ENDBRANCH  12  13
ENDBRANCH  11  12
ENDBRANCH  10  11
ENDBRANCH   9  10
ENDBRANCH   8   9
ENDBRANCH   7   8
ENDBRANCH   4   7
TORSDOF 8
ENDMDL
MODEL       87
REMARK 921   NORMALIZED FREE ENERGY PREDICTED BY IDOCK:   -4.73 KCAL/MOL
REMARK 922        TOTAL FREE ENERGY PREDICTED BY IDOCK:   -7.72 KCAL/MOL
REMARK 923 INTER-LIGAND FREE ENERGY PREDICTED BY IDOCK:   -7.01 KCAL/MOL
REMARK 924 INTRA-LIGAND FREE ENERGY PREDICTED BY IDOCK:   -0.71 KCAL/MOL
REMARK 927      BINDING AFFINITY PREDICTED BY RF-SCORE:    0.00 PKD
ROOT
HETATM    1  O   UNL     1     -13.899   7.742  71.064  1.00  0.00    -0.607 OA 
HETATM    2  N   UNL     1     -13.296   6.996  72.088  1.00  0.00    -0.540 N  
HETATM    3  H   UNL     1     -14.733   8.171  71.215  1.00  0.00     0.000 HD 
HETATM    4  C   UNL     1     -12.097   6.379  71.871  1.00  0.00    -0.310 C  
HETATM    5  H   UNL     1     -13.754   6.914  72.996  1.00  0.00     0.000 HD 
HETATM    6  O   UNL     1     -11.557   5.740  72.773  1.00  0.00    -0.281 OA 
ENDROOT
BRANCH   4   7
HETATM    7  C   UNL     1     -11.511   6.535  70.482  1.00  0.00    -0.448 C  
BRANCH   7   8
HETATM    8  C   UNL     1     -10.337   7.510  70.462  1.00  0.00    -0.217 C  
BRANCH   8   9
HETATM    9  C   UNL     1     -10.701   8.791  69.720  1.00  0.00    -0.220 C  
BRANCH   9  10
HETATM   10  C   UNL     1     -11.195   9.874  70.683  1.00  0.00    -0.416 C  
BRANCH  10  11
HETATM   11  C   UNL     1     -12.167  10.791  69.959  1.00  0.00    -0.409 C  
BRANCH  11  12
HETATM   12  C   UNL     1     -12.267  12.197  70.556  1.00  0.00    -0.392 C  
BRANCH  12  13
HETATM   13  C   UNL     1     -11.979  13.208  69.456  1.00  0.00    -0.294 C  
HETATM   14  N   UNL     1     -11.636  12.641  68.242  1.00  0.00    -0.311 N  
HETATM   15  O   UNL     1     -12.078  14.415  69.676  1.00  0.00    -0.311 OA 
HETATM   16  H   UNL     1     -11.582  11.624  68.189  1.00  0.00     0.000 HD 
BRANCH  14  17
HETATM   17  C   UNL     1     -11.355  13.383  67.068  1.00  0.00    -0.317 A  
HETATM   18  C   UNL     1     -10.182  14.127  66.904  1.00  0.00    -0.267 A  
HETATM   19  C   UNL     1      -9.991  14.933  65.782  1.00  0.00    -0.376 A  
HETATM   20  C   UNL     1     -10.965  14.984  64.793  1.00  0.00    -0.389 A  
HETATM   21  C   UNL     1     -12.113  14.202  64.914  1.00  0.00    -0.438 A  
HETATM   22  C   UNL     1     -12.304  13.394  66.041  1.00  0.00    -0.471 A  
ENDBRANCH  14  17
ENDBRANCH  12  13
ENDBRANCH  11  12
ENDBRANCH  10  11
ENDBRANCH   9  10
ENDBRANCH   8   9
ENDBRANCH   7   8
ENDBRANCH   4   7
TORSDOF 8
ENDMDL
MODEL       88
REMARK 921   NORMALIZED FREE ENERGY PREDICTED BY IDOCK:   -4.70 KCAL/MOL
REMARK 922        TOTAL FREE ENERGY PREDICTED BY IDOCK:   -7.69 KCAL/MOL
REMARK 923 INTER-LIGAND FREE ENERGY PREDICTED BY IDOCK:   -6.69 KCAL/MOL
REMARK 924 INTRA-LIGAND FREE ENERGY PREDICTED BY IDOCK:   -1.00 KCAL/MOL
REMARK 927      BINDING AFFINITY PREDICTED BY RF-SCORE:    0.00 PKD
ROOT
HETATM    1  O   UNL     1     -11.142   5.431  66.059  1.00  0.00    -0.761 OA 
HETATM    2  N   UNL     1     -10.188   6.388  66.436  1.00  0.00    -0.418 N  
HETATM    3  H   UNL     1     -11.128   5.064  65.183  1.00  0.00     0.000 HD 
HETATM    4  C   UNL     1     -10.208   6.915  67.695  1.00  0.00    -0.185 C  
HETATM    5  H   UNL     1      -9.478   6.690  65.768  1.00  0.00     0.000 HD 
HETATM    6  O   UNL     1      -9.361   7.740  68.034  1.00  0.00    -0.141 OA 
ENDROOT
BRANCH   4   7
HETATM    7  C   UNL     1     -11.317   6.424  68.605  1.00  0.00    -0.214 C  
BRANCH   7   8
HETATM    8  C   UNL     1     -10.927   6.504  70.078  1.00  0.00    -0.388 C  
BRANCH   8   9
HETATM    9  C   UNL     1     -12.028   7.162  70.902  1.00  0.00    -0.375 C  
BRANCH   9  10
HETATM   10  C   UNL     1     -11.529   8.441  71.581  1.00  0.00    -0.349 C  
BRANCH  10  11
HETATM   11  C   UNL     1     -11.848   9.639  70.701  1.00  0.00    -0.331 C  
BRANCH  11  12
HETATM   12  C   UNL     1     -10.634  10.232  69.982  1.00  0.00    -0.321 C  
BRANCH  12  13
HETATM   13  C   UNL     1     -11.094  10.796  68.647  1.00  0.00    -0.259 C  
HETATM   14  N   UNL     1     -10.091  10.899  67.700  1.00  0.00    -0.175 N  
HETATM   15  O   UNL     1     -12.274  11.098  68.470  1.00  0.00    -0.600 OA 
HETATM   16  H   UNL     1      -9.148  10.621  67.971  1.00  0.00     0.000 HD 
BRANCH  14  17
HETATM   17  C   UNL     1     -10.290  11.367  66.377  1.00  0.00    -0.242 A  
HETATM   18  C   UNL     1     -10.242  10.527  65.260  1.00  0.00    -0.352 A  
HETATM   19  C   UNL     1     -10.333  11.041  63.967  1.00  0.00    -0.436 A  
HETATM   20  C   UNL     1     -10.501  12.407  63.776  1.00  0.00    -0.475 A  
HETATM   21  C   UNL     1     -10.611  13.250  64.881  1.00  0.00    -0.381 A  
HETATM   22  C   UNL     1     -10.518  12.732  66.179  1.00  0.00    -0.284 A  
ENDBRANCH  14  17
ENDBRANCH  12  13
ENDBRANCH  11  12
ENDBRANCH  10  11
ENDBRANCH   9  10
ENDBRANCH   8   9
ENDBRANCH   7   8
ENDBRANCH   4   7
TORSDOF 8
ENDMDL
MODEL       89
REMARK 921   NORMALIZED FREE ENERGY PREDICTED BY IDOCK:   -4.69 KCAL/MOL
REMARK 922        TOTAL FREE ENERGY PREDICTED BY IDOCK:   -7.68 KCAL/MOL
REMARK 923 INTER-LIGAND FREE ENERGY PREDICTED BY IDOCK:   -7.19 KCAL/MOL
REMARK 924 INTRA-LIGAND FREE ENERGY PREDICTED BY IDOCK:   -0.49 KCAL/MOL
REMARK 927      BINDING AFFINITY PREDICTED BY RF-SCORE:    0.00 PKD
ROOT
HETATM    1  O   UNL     1      -6.287  20.179  70.038  1.00  0.00    -0.354 OA 
HETATM    2  N   UNL     1      -6.087  20.830  68.810  1.00  0.00    -0.338 N  
HETATM    3  H   UNL     1      -5.666  20.300  70.747  1.00  0.00     0.000 HD 
HETATM    4  C   UNL     1      -6.979  20.656  67.791  1.00  0.00    -0.307 C  
HETATM    5  H   UNL     1      -5.276  21.435  68.681  1.00  0.00     0.000 HD 
HETATM    6  O   UNL     1      -6.817  21.240  66.721  1.00  0.00    -0.374 OA 
ENDROOT
BRANCH   4   7
HETATM    7  C   UNL     1      -8.136  19.717  68.071  1.00  0.00    -0.338 C  
BRANCH   7   8
HETATM    8  C   UNL     1      -7.834  18.289  67.627  1.00  0.00    -0.232 C  
BRANCH   8   9
HETATM    9  C   UNL     1      -8.992  17.355  67.961  1.00  0.00    -0.255 C  
BRANCH   9  10
HETATM   10  C   UNL     1      -9.621  16.769  66.693  1.00  0.00    -0.274 C  
BRANCH  10  11
HETATM   11  C   UNL     1     -11.015  16.252  67.012  1.00  0.00    -0.086 C  
BRANCH  11  12
HETATM   12  C   UNL     1     -11.091  14.736  67.211  1.00  0.00    -0.334 C  
BRANCH  12  13
HETATM   13  C   UNL     1     -11.661  14.461  68.594  1.00  0.00    -0.332 C  
HETATM   14  N   UNL     1     -11.815  15.592  69.378  1.00  0.00    -0.366 N  
HETATM   15  O   UNL     1     -11.964  13.317  68.929  1.00  0.00    -0.317 OA 
HETATM   16  H   UNL     1     -11.520  16.486  68.988  1.00  0.00     0.000 HD 
BRANCH  14  17
HETATM   17  C   UNL     1     -12.355  15.584  70.688  1.00  0.00    -0.416 A  
HETATM   18  C   UNL     1     -13.652  15.143  70.970  1.00  0.00    -0.473 A  
HETATM   19  C   UNL     1     -14.188  15.254  72.253  1.00  0.00    -0.642 A  
HETATM   20  C   UNL     1     -13.418  15.786  73.280  1.00  0.00    -0.580 A  
HETATM   21  C   UNL     1     -12.103  16.173  73.028  1.00  0.00    -0.636 A  
HETATM   22  C   UNL     1     -11.567  16.063  71.739  1.00  0.00    -0.534 A  
ENDBRANCH  14  17
ENDBRANCH  12  13
ENDBRANCH  11  12
ENDBRANCH  10  11
ENDBRANCH   9  10
ENDBRANCH   8   9
ENDBRANCH   7   8
ENDBRANCH   4   7
TORSDOF 8
ENDMDL
MODEL       90
REMARK 921   NORMALIZED FREE ENERGY PREDICTED BY IDOCK:   -4.69 KCAL/MOL
REMARK 922        TOTAL FREE ENERGY PREDICTED BY IDOCK:   -7.67 KCAL/MOL
REMARK 923 INTER-LIGAND FREE ENERGY PREDICTED BY IDOCK:   -6.72 KCAL/MOL
REMARK 924 INTRA-LIGAND FREE ENERGY PREDICTED BY IDOCK:   -0.95 KCAL/MOL
REMARK 927      BINDING AFFINITY PREDICTED BY RF-SCORE:    0.00 PKD
ROOT
HETATM    1  O   UNL     1     -12.227  11.416  62.832  1.00  0.00    -0.940 OA 
HETATM    2  N   UNL     1     -12.998  12.250  63.657  1.00  0.00    -0.792 N  
HETATM    3  H   UNL     1     -12.639  10.703  62.358  1.00  0.00     0.000 HD 
HETATM    4  C   UNL     1     -12.406  13.275  64.338  1.00  0.00    -0.348 C  
HETATM    5  H   UNL     1     -14.001  12.091  63.746  1.00  0.00     0.000 HD 
HETATM    6  O   UNL     1     -13.082  14.019  65.046  1.00  0.00    -0.742 OA 
ENDROOT
BRANCH   4   7
HETATM    7  C   UNL     1     -10.906  13.412  64.163  1.00  0.00    -0.313 C  
BRANCH   7   8
HETATM    8  C   UNL     1     -10.215  13.833  65.457  1.00  0.00    -0.332 C  
BRANCH   8   9
HETATM    9  C   UNL     1     -10.200  12.691  66.466  1.00  0.00    -0.255 C  
BRANCH   9  10
HETATM   10  C   UNL     1      -8.769  12.257  66.799  1.00  0.00    -0.175 C  
BRANCH  10  11
HETATM   11  C   UNL     1      -8.511  12.459  68.283  1.00  0.00    -0.170 C  
BRANCH  11  12
HETATM   12  C   UNL     1      -7.286  13.321  68.596  1.00  0.00    -0.106 C  
BRANCH  12  13
HETATM   13  C   UNL     1      -7.509  14.705  68.006  1.00  0.00    -0.131 C  
HETATM   14  N   UNL     1      -8.504  15.434  68.635  1.00  0.00    -0.160 N  
HETATM   15  O   UNL     1      -6.823  15.102  67.065  1.00  0.00    -0.230 OA 
HETATM   16  H   UNL     1      -9.007  14.991  69.402  1.00  0.00     0.000 HD 
BRANCH  14  17
HETATM   17  C   UNL     1      -8.866  16.757  68.278  1.00  0.00    -0.228 A  
HETATM   18  C   UNL     1      -8.106  17.875  68.640  1.00  0.00    -0.283 A  
HETATM   19  C   UNL     1      -8.551  19.168  68.367  1.00  0.00    -0.387 A  
HETATM   20  C   UNL     1      -9.756  19.358  67.702  1.00  0.00    -0.428 A  
HETATM   21  C   UNL     1     -10.495  18.253  67.282  1.00  0.00    -0.419 A  
HETATM   22  C   UNL     1     -10.048  16.955  67.558  1.00  0.00    -0.282 A  
ENDBRANCH  14  17
ENDBRANCH  12  13
ENDBRANCH  11  12
ENDBRANCH  10  11
ENDBRANCH   9  10
ENDBRANCH   8   9
ENDBRANCH   7   8
ENDBRANCH   4   7
TORSDOF 8
ENDMDL
MODEL       91
REMARK 921   NORMALIZED FREE ENERGY PREDICTED BY IDOCK:   -4.69 KCAL/MOL
REMARK 922        TOTAL FREE ENERGY PREDICTED BY IDOCK:   -7.67 KCAL/MOL
REMARK 923 INTER-LIGAND FREE ENERGY PREDICTED BY IDOCK:   -6.24 KCAL/MOL
REMARK 924 INTRA-LIGAND FREE ENERGY PREDICTED BY IDOCK:   -1.43 KCAL/MOL
REMARK 927      BINDING AFFINITY PREDICTED BY RF-SCORE:    0.00 PKD
ROOT
HETATM    1  O   UNL     1     -12.483  15.380  69.774  1.00  0.00    -0.547 OA 
HETATM    2  N   UNL     1     -11.210  14.838  69.537  1.00  0.00    -0.267 N  
HETATM    3  H   UNL     1     -12.678  15.791  70.608  1.00  0.00     0.000 HD 
HETATM    4  C   UNL     1     -10.931  14.247  68.338  1.00  0.00    -0.253 C  
HETATM    5  H   UNL     1     -10.494  14.886  70.261  1.00  0.00     0.000 HD 
HETATM    6  O   UNL     1      -9.811  13.788  68.121  1.00  0.00    -0.225 OA 
ENDROOT
BRANCH   4   7
HETATM    7  C   UNL     1     -12.069  14.200  67.338  1.00  0.00    -0.379 C  
BRANCH   7   8
HETATM    8  C   UNL     1     -11.568  14.017  65.908  1.00  0.00    -0.350 C  
BRANCH   8   9
HETATM    9  C   UNL     1     -12.479  13.079  65.124  1.00  0.00    -0.552 C  
BRANCH   9  10
HETATM   10  C   UNL     1     -11.689  11.926  64.498  1.00  0.00    -0.326 C  
BRANCH  10  11
HETATM   11  C   UNL     1     -10.284  11.900  65.079  1.00  0.00    -0.316 C  
BRANCH  11  12
HETATM   12  C   UNL     1      -9.719  10.494  65.292  1.00  0.00    -0.328 C  
BRANCH  12  13
HETATM   13  C   UNL     1     -10.305   9.929  66.577  1.00  0.00    -0.188 C  
HETATM   14  N   UNL     1     -10.243  10.794  67.655  1.00  0.00    -0.182 N  
HETATM   15  O   UNL     1     -10.799   8.803  66.596  1.00  0.00    -0.079 OA 
HETATM   16  H   UNL     1      -9.802  11.703  67.513  1.00  0.00     0.000 HD 
BRANCH  14  17
HETATM   17  C   UNL     1     -10.754  10.498  68.943  1.00  0.00    -0.220 A  
HETATM   18  C   UNL     1     -10.051   9.734  69.880  1.00  0.00    -0.288 A  
HETATM   19  C   UNL     1     -10.631   9.370  71.095  1.00  0.00    -0.403 A  
HETATM   20  C   UNL     1     -11.920   9.791  71.399  1.00  0.00    -0.493 A  
HETATM   21  C   UNL     1     -12.611  10.603  70.501  1.00  0.00    -0.433 A  
HETATM   22  C   UNL     1     -12.027  10.967  69.281  1.00  0.00    -0.410 A  
ENDBRANCH  14  17
ENDBRANCH  12  13
ENDBRANCH  11  12
ENDBRANCH  10  11
ENDBRANCH   9  10
ENDBRANCH   8   9
ENDBRANCH   7   8
ENDBRANCH   4   7
TORSDOF 8
ENDMDL
MODEL       92
REMARK 921   NORMALIZED FREE ENERGY PREDICTED BY IDOCK:   -4.66 KCAL/MOL
REMARK 922        TOTAL FREE ENERGY PREDICTED BY IDOCK:   -7.63 KCAL/MOL
REMARK 923 INTER-LIGAND FREE ENERGY PREDICTED BY IDOCK:   -6.85 KCAL/MOL
REMARK 924 INTRA-LIGAND FREE ENERGY PREDICTED BY IDOCK:   -0.78 KCAL/MOL
REMARK 927      BINDING AFFINITY PREDICTED BY RF-SCORE:    0.00 PKD
ROOT
HETATM    1  O   UNL     1      -8.826  11.111  64.254  1.00  0.00    -0.370 OA 
HETATM    2  N   UNL     1      -8.217  11.043  65.517  1.00  0.00    -0.351 N  
HETATM    3  H   UNL     1      -8.500  11.720  63.601  1.00  0.00     0.000 HD 
HETATM    4  C   UNL     1      -8.684  10.167  66.455  1.00  0.00    -0.129 C  
HETATM    5  H   UNL     1      -7.424  11.647  65.733  1.00  0.00     0.000 HD 
HETATM    6  O   UNL     1      -8.141  10.092  67.556  1.00  0.00    -0.109 OA 
ENDROOT
BRANCH   4   7
HETATM    7  C   UNL     1      -9.883   9.333  66.048  1.00  0.00    -0.363 C  
BRANCH   7   8
HETATM    8  C   UNL     1     -10.526   8.634  67.243  1.00  0.00    -0.360 C  
BRANCH   8   9
HETATM    9  C   UNL     1     -10.426   7.119  67.111  1.00  0.00    -0.389 C  
BRANCH   9  10
HETATM   10  C   UNL     1     -11.008   6.411  68.338  1.00  0.00    -0.390 C  
BRANCH  10  11
HETATM   11  C   UNL     1     -10.428   7.029  69.601  1.00  0.00    -0.238 C  
BRANCH  11  12
HETATM   12  C   UNL     1     -11.463   7.311  70.693  1.00  0.00    -0.322 C  
BRANCH  12  13
HETATM   13  C   UNL     1     -11.383   8.785  71.061  1.00  0.00    -0.278 C  
HETATM   14  N   UNL     1     -12.389   9.560  70.512  1.00  0.00    -0.484 N  
HETATM   15  O   UNL     1     -10.493   9.195  71.805  1.00  0.00    -0.352 OA 
HETATM   16  H   UNL     1     -13.067   9.102  69.905  1.00  0.00     0.000 HD 
BRANCH  14  17
HETATM   17  C   UNL     1     -12.535  10.951  70.741  1.00  0.00    -0.394 A  
HETATM   18  C   UNL     1     -11.966  11.920  69.908  1.00  0.00    -0.398 A  
HETATM   19  C   UNL     1     -12.038  13.276  70.226  1.00  0.00    -0.405 A  
HETATM   20  C   UNL     1     -12.707  13.682  71.374  1.00  0.00    -0.437 A  
HETATM   21  C   UNL     1     -13.331  12.733  72.182  1.00  0.00    -0.593 A  
HETATM   22  C   UNL     1     -13.257  11.372  71.862  1.00  0.00    -0.485 A  
ENDBRANCH  14  17
ENDBRANCH  12  13
ENDBRANCH  11  12
ENDBRANCH  10  11
ENDBRANCH   9  10
ENDBRANCH   8   9
ENDBRANCH   7   8
ENDBRANCH   4   7
TORSDOF 8
ENDMDL
MODEL       93
REMARK 921   NORMALIZED FREE ENERGY PREDICTED BY IDOCK:   -4.66 KCAL/MOL
REMARK 922        TOTAL FREE ENERGY PREDICTED BY IDOCK:   -7.63 KCAL/MOL
REMARK 923 INTER-LIGAND FREE ENERGY PREDICTED BY IDOCK:   -6.60 KCAL/MOL
REMARK 924 INTRA-LIGAND FREE ENERGY PREDICTED BY IDOCK:   -1.03 KCAL/MOL
REMARK 927      BINDING AFFINITY PREDICTED BY RF-SCORE:    0.00 PKD
ROOT
HETATM    1  O   UNL     1     -11.506   6.583  66.729  1.00  0.00    -0.774 OA 
HETATM    2  N   UNL     1     -10.112   6.427  66.674  1.00  0.00    -0.300 N  
HETATM    3  H   UNL     1     -12.074   5.827  66.632  1.00  0.00     0.000 HD 
HETATM    4  C   UNL     1      -9.296   7.513  66.815  1.00  0.00    -0.165 C  
HETATM    5  H   UNL     1      -9.709   5.502  66.528  1.00  0.00     0.000 HD 
HETATM    6  O   UNL     1      -8.075   7.377  66.785  1.00  0.00    -0.117 OA 
ENDROOT
BRANCH   4   7
HETATM    7  C   UNL     1      -9.991   8.848  66.998  1.00  0.00    -0.300 C  
BRANCH   7   8
HETATM    8  C   UNL     1      -9.943   9.697  65.731  1.00  0.00    -0.342 C  
BRANCH   8   9
HETATM    9  C   UNL     1      -8.829  10.735  65.808  1.00  0.00    -0.201 C  
BRANCH   9  10
HETATM   10  C   UNL     1      -8.924  11.562  67.094  1.00  0.00    -0.166 C  
BRANCH  10  11
HETATM   11  C   UNL     1     -10.002  12.622  66.936  1.00  0.00    -0.232 C  
BRANCH  11  12
HETATM   12  C   UNL     1     -10.717  12.989  68.239  1.00  0.00    -0.261 C  
BRANCH  12  13
HETATM   13  C   UNL     1     -11.431  11.751  68.760  1.00  0.00    -0.291 C  
HETATM   14  N   UNL     1     -11.091  11.406  70.057  1.00  0.00    -0.480 N  
HETATM   15  O   UNL     1     -12.246  11.157  68.056  1.00  0.00    -0.584 OA 
HETATM   16  H   UNL     1     -10.394  11.976  70.535  1.00  0.00     0.000 HD 
BRANCH  14  17
HETATM   17  C   UNL     1     -11.650  10.310  70.761  1.00  0.00    -0.355 A  
HETATM   18  C   UNL     1     -11.011   9.070  70.865  1.00  0.00    -0.332 A  
HETATM   19  C   UNL     1     -11.641   7.984  71.471  1.00  0.00    -0.313 A  
HETATM   20  C   UNL     1     -12.914   8.133  72.005  1.00  0.00    -0.329 A  
HETATM   21  C   UNL     1     -13.540   9.378  71.963  1.00  0.00    -0.505 A  
HETATM   22  C   UNL     1     -12.906  10.468  71.353  1.00  0.00    -0.551 A  
ENDBRANCH  14  17
ENDBRANCH  12  13
ENDBRANCH  11  12
ENDBRANCH  10  11
ENDBRANCH   9  10
ENDBRANCH   8   9
ENDBRANCH   7   8
ENDBRANCH   4   7
TORSDOF 8
ENDMDL
MODEL       94
REMARK 921   NORMALIZED FREE ENERGY PREDICTED BY IDOCK:   -4.66 KCAL/MOL
REMARK 922        TOTAL FREE ENERGY PREDICTED BY IDOCK:   -7.63 KCAL/MOL
REMARK 923 INTER-LIGAND FREE ENERGY PREDICTED BY IDOCK:   -6.72 KCAL/MOL
REMARK 924 INTRA-LIGAND FREE ENERGY PREDICTED BY IDOCK:   -0.91 KCAL/MOL
REMARK 927      BINDING AFFINITY PREDICTED BY RF-SCORE:    0.00 PKD
ROOT
HETATM    1  O   UNL     1     -11.086   7.812  68.156  1.00  0.00    -0.439 OA 
HETATM    2  N   UNL     1     -11.048   9.098  68.717  1.00  0.00    -0.447 N  
HETATM    3  H   UNL     1     -11.275   7.059  68.704  1.00  0.00     0.000 HD 
HETATM    4  C   UNL     1     -10.776  10.180  67.930  1.00  0.00    -0.269 C  
HETATM    5  H   UNL     1     -11.224   9.224  69.714  1.00  0.00     0.000 HD 
HETATM    6  O   UNL     1     -10.761  11.310  68.415  1.00  0.00    -0.182 OA 
ENDROOT
BRANCH   4   7
HETATM    7  C   UNL     1     -10.500   9.887  66.468  1.00  0.00    -0.213 C  
BRANCH   7   8
HETATM    8  C   UNL     1      -9.572  10.924  65.842  1.00  0.00    -0.257 C  
BRANCH   8   9
HETATM    9  C   UNL     1      -9.385  10.663  64.352  1.00  0.00    -0.291 C  
BRANCH   9  10
HETATM   10  C   UNL     1     -10.649  11.013  63.560  1.00  0.00    -0.303 C  
BRANCH  10  11
HETATM   11  C   UNL     1     -11.120  12.405  63.948  1.00  0.00    -0.475 C  
BRANCH  11  12
HETATM   12  C   UNL     1     -12.535  12.450  64.530  1.00  0.00    -0.519 C  
BRANCH  12  13
HETATM   13  C   UNL     1     -12.619  13.617  65.502  1.00  0.00    -0.496 C  
HETATM   14  N   UNL     1     -11.730  13.537  66.560  1.00  0.00    -0.352 N  
HETATM   15  O   UNL     1     -13.411  14.537  65.306  1.00  0.00    -0.464 OA 
HETATM   16  H   UNL     1     -11.126  12.717  66.614  1.00  0.00     0.000 HD 
BRANCH  14  17
HETATM   17  C   UNL     1     -11.606  14.522  67.570  1.00  0.00    -0.381 A  
HETATM   18  C   UNL     1     -11.003  15.765  67.348  1.00  0.00    -0.279 A  
HETATM   19  C   UNL     1     -10.800  16.664  68.394  1.00  0.00    -0.361 A  
HETATM   20  C   UNL     1     -11.224  16.341  69.677  1.00  0.00    -0.311 A  
HETATM   21  C   UNL     1     -11.880  15.132  69.902  1.00  0.00    -0.363 A  
HETATM   22  C   UNL     1     -12.083  14.229  68.852  1.00  0.00    -0.314 A  
ENDBRANCH  14  17
ENDBRANCH  12  13
ENDBRANCH  11  12
ENDBRANCH  10  11
ENDBRANCH   9  10
ENDBRANCH   8   9
ENDBRANCH   7   8
ENDBRANCH   4   7
TORSDOF 8
ENDMDL
MODEL       95
REMARK 921   NORMALIZED FREE ENERGY PREDICTED BY IDOCK:   -4.64 KCAL/MOL
REMARK 922        TOTAL FREE ENERGY PREDICTED BY IDOCK:   -7.60 KCAL/MOL
REMARK 923 INTER-LIGAND FREE ENERGY PREDICTED BY IDOCK:   -7.11 KCAL/MOL
REMARK 924 INTRA-LIGAND FREE ENERGY PREDICTED BY IDOCK:   -0.49 KCAL/MOL
REMARK 927      BINDING AFFINITY PREDICTED BY RF-SCORE:    0.00 PKD
ROOT
HETATM    1  O   UNL     1     -14.350  13.360  72.503  1.00  0.00    -0.692 OA 
HETATM    2  N   UNL     1     -13.233  14.204  72.606  1.00  0.00    -0.500 N  
HETATM    3  H   UNL     1     -14.972  13.304  73.219  1.00  0.00     0.000 HD 
HETATM    4  C   UNL     1     -12.340  14.285  71.577  1.00  0.00    -0.339 C  
HETATM    5  H   UNL     1     -13.089  14.757  73.451  1.00  0.00     0.000 HD 
HETATM    6  O   UNL     1     -11.370  15.037  71.657  1.00  0.00    -0.360 OA 
ENDROOT
BRANCH   4   7
HETATM    7  C   UNL     1     -12.625  13.403  70.377  1.00  0.00    -0.237 C  
BRANCH   7   8
HETATM    8  C   UNL     1     -12.173  11.963  70.604  1.00  0.00    -0.424 C  
BRANCH   8   9
HETATM    9  C   UNL     1     -11.373  11.446  69.413  1.00  0.00    -0.365 C  
BRANCH   9  10
HETATM   10  C   UNL     1     -11.908  12.010  68.093  1.00  0.00    -0.352 C  
BRANCH  10  11
HETATM   11  C   UNL     1     -11.007  11.568  66.952  1.00  0.00    -0.350 C  
BRANCH  11  12
HETATM   12  C   UNL     1     -11.276  12.285  65.626  1.00  0.00    -0.375 C  
BRANCH  12  13
HETATM   13  C   UNL     1     -11.514  13.759  65.917  1.00  0.00    -0.322 C  
HETATM   14  N   UNL     1     -10.433  14.405  66.488  1.00  0.00    -0.285 N  
HETATM   15  O   UNL     1     -12.588  14.286  65.628  1.00  0.00    -0.461 OA 
HETATM   16  H   UNL     1      -9.598  13.855  66.685  1.00  0.00     0.000 HD 
BRANCH  14  17
HETATM   17  C   UNL     1     -10.413  15.783  66.817  1.00  0.00    -0.305 A  
HETATM   18  C   UNL     1     -10.545  16.252  68.129  1.00  0.00    -0.307 A  
HETATM   19  C   UNL     1     -10.632  17.617  68.401  1.00  0.00    -0.318 A  
HETATM   20  C   UNL     1     -10.561  18.535  67.361  1.00  0.00    -0.463 A  
HETATM   21  C   UNL     1     -10.369  18.086  66.056  1.00  0.00    -0.333 A  
HETATM   22  C   UNL     1     -10.283  16.715  65.783  1.00  0.00    -0.328 A  
ENDBRANCH  14  17
ENDBRANCH  12  13
ENDBRANCH  11  12
ENDBRANCH  10  11
ENDBRANCH   9  10
ENDBRANCH   8   9
ENDBRANCH   7   8
ENDBRANCH   4   7
TORSDOF 8
ENDMDL
MODEL       96
REMARK 921   NORMALIZED FREE ENERGY PREDICTED BY IDOCK:   -4.60 KCAL/MOL
REMARK 922        TOTAL FREE ENERGY PREDICTED BY IDOCK:   -7.54 KCAL/MOL
REMARK 923 INTER-LIGAND FREE ENERGY PREDICTED BY IDOCK:   -6.89 KCAL/MOL
REMARK 924 INTRA-LIGAND FREE ENERGY PREDICTED BY IDOCK:   -0.65 KCAL/MOL
REMARK 927      BINDING AFFINITY PREDICTED BY RF-SCORE:    0.00 PKD
ROOT
HETATM    1  O   UNL     1     -11.379  16.606  63.902  1.00  0.00    -1.558 OA 
HETATM    2  N   UNL     1     -12.174  15.474  63.666  1.00  0.00    -0.768 N  
HETATM    3  H   UNL     1     -11.268  17.260  63.221  1.00  0.00     0.000 HD 
HETATM    4  C   UNL     1     -12.333  14.534  64.644  1.00  0.00    -0.403 C  
HETATM    5  H   UNL     1     -12.633  15.353  62.764  1.00  0.00     0.000 HD 
HETATM    6  O   UNL     1     -13.044  13.550  64.447  1.00  0.00    -0.411 OA 
ENDROOT
BRANCH   4   7
HETATM    7  C   UNL     1     -11.588  14.789  65.940  1.00  0.00    -0.286 C  
BRANCH   7   8
HETATM    8  C   UNL     1     -10.670  13.628  66.310  1.00  0.00    -0.285 C  
BRANCH   8   9
HETATM    9  C   UNL     1     -11.215  12.859  67.508  1.00  0.00    -0.329 C  
BRANCH   9  10
HETATM   10  C   UNL     1     -10.185  12.781  68.639  1.00  0.00    -0.162 C  
BRANCH  10  11
HETATM   11  C   UNL     1      -8.912  12.133  68.119  1.00  0.00    -0.195 C  
BRANCH  11  12
HETATM   12  C   UNL     1      -9.054  10.645  67.790  1.00  0.00    -0.144 C  
BRANCH  12  13
HETATM   13  C   UNL     1      -9.442   9.906  69.062  1.00  0.00    -0.183 C  
HETATM   14  N   UNL     1     -10.706   9.344  69.027  1.00  0.00    -0.306 N  
HETATM   15  O   UNL     1      -8.653   9.827  70.003  1.00  0.00    -0.193 OA 
HETATM   16  H   UNL     1     -11.268   9.486  68.188  1.00  0.00     0.000 HD 
BRANCH  14  17
HETATM   17  C   UNL     1     -11.268   8.585  70.083  1.00  0.00    -0.136 A  
HETATM   18  C   UNL     1     -10.911   7.256  70.334  1.00  0.00    -0.273 A  
HETATM   19  C   UNL     1     -11.566   6.507  71.312  1.00  0.00    -0.381 A  
HETATM   20  C   UNL     1     -12.572   7.090  72.072  1.00  0.00    -0.254 A  
HETATM   21  C   UNL     1     -12.897   8.431  71.874  1.00  0.00    -0.384 A  
HETATM   22  C   UNL     1     -12.240   9.182  70.891  1.00  0.00    -0.239 A  
ENDBRANCH  14  17
ENDBRANCH  12  13
ENDBRANCH  11  12
ENDBRANCH  10  11
ENDBRANCH   9  10
ENDBRANCH   8   9
ENDBRANCH   7   8
ENDBRANCH   4   7
TORSDOF 8
ENDMDL
MODEL       97
REMARK 921   NORMALIZED FREE ENERGY PREDICTED BY IDOCK:   -4.55 KCAL/MOL
REMARK 922        TOTAL FREE ENERGY PREDICTED BY IDOCK:   -7.46 KCAL/MOL
REMARK 923 INTER-LIGAND FREE ENERGY PREDICTED BY IDOCK:   -6.22 KCAL/MOL
REMARK 924 INTRA-LIGAND FREE ENERGY PREDICTED BY IDOCK:   -1.24 KCAL/MOL
REMARK 927      BINDING AFFINITY PREDICTED BY RF-SCORE:    0.00 PKD
ROOT
HETATM    1  O   UNL     1      -9.419   9.046  68.799  1.00  0.00    -0.146 OA 
HETATM    2  N   UNL     1      -8.722   9.305  69.989  1.00  0.00    -0.176 N  
HETATM    3  H   UNL     1      -9.101   9.398  67.975  1.00  0.00     0.000 HD 
HETATM    4  C   UNL     1      -9.178   8.799  71.173  1.00  0.00    -0.237 C  
HETATM    5  H   UNL     1      -7.873   9.870  69.970  1.00  0.00     0.000 HD 
HETATM    6  O   UNL     1      -8.559   9.008  72.215  1.00  0.00    -0.362 OA 
ENDROOT
BRANCH   4   7
HETATM    7  C   UNL     1     -10.462   7.996  71.102  1.00  0.00    -0.230 C  
BRANCH   7   8
HETATM    8  C   UNL     1     -11.529   8.537  72.050  1.00  0.00    -0.431 C  
BRANCH   8   9
HETATM    9  C   UNL     1     -12.660   9.206  71.278  1.00  0.00    -0.351 C  
BRANCH   9  10
HETATM   10  C   UNL     1     -12.940  10.616  71.808  1.00  0.00    -0.577 C  
BRANCH  10  11
HETATM   11  C   UNL     1     -12.385  11.642  70.834  1.00  0.00    -0.436 C  
BRANCH  11  12
HETATM   12  C   UNL     1     -12.147  11.102  69.421  1.00  0.00    -0.396 C  
BRANCH  12  13
HETATM   13  C   UNL     1     -11.276  12.096  68.667  1.00  0.00    -0.269 C  
HETATM   14  N   UNL     1     -11.987  13.064  67.980  1.00  0.00    -0.337 N  
HETATM   15  O   UNL     1     -10.050  12.013  68.716  1.00  0.00    -0.190 OA 
HETATM   16  H   UNL     1     -13.005  13.022  68.013  1.00  0.00     0.000 HD 
BRANCH  14  17
HETATM   17  C   UNL     1     -11.389  14.110  67.235  1.00  0.00    -0.332 A  
HETATM   18  C   UNL     1     -10.986  15.319  67.812  1.00  0.00    -0.312 A  
HETATM   19  C   UNL     1     -10.504  16.367  67.029  1.00  0.00    -0.291 A  
HETATM   20  C   UNL     1     -10.393  16.207  65.653  1.00  0.00    -0.405 A  
HETATM   21  C   UNL     1     -10.733  14.988  65.070  1.00  0.00    -0.448 A  
HETATM   22  C   UNL     1     -11.219  13.937  65.858  1.00  0.00    -0.297 A  
ENDBRANCH  14  17
ENDBRANCH  12  13
ENDBRANCH  11  12
ENDBRANCH  10  11
ENDBRANCH   9  10
ENDBRANCH   8   9
ENDBRANCH   7   8
ENDBRANCH   4   7
TORSDOF 8
ENDMDL
MODEL       98
REMARK 921   NORMALIZED FREE ENERGY PREDICTED BY IDOCK:   -4.54 KCAL/MOL
REMARK 922        TOTAL FREE ENERGY PREDICTED BY IDOCK:   -7.45 KCAL/MOL
REMARK 923 INTER-LIGAND FREE ENERGY PREDICTED BY IDOCK:   -6.99 KCAL/MOL
REMARK 924 INTRA-LIGAND FREE ENERGY PREDICTED BY IDOCK:   -0.47 KCAL/MOL
REMARK 927      BINDING AFFINITY PREDICTED BY RF-SCORE:    0.00 PKD
ROOT
HETATM    1  O   UNL     1     -10.769   5.897  74.204  1.00  0.00    -0.356 OA 
HETATM    2  N   UNL     1      -9.903   6.970  73.940  1.00  0.00    -0.289 N  
HETATM    3  H   UNL     1     -10.585   5.303  74.922  1.00  0.00     0.000 HD 
HETATM    4  C   UNL     1     -10.167   7.825  72.908  1.00  0.00    -0.315 C  
HETATM    5  H   UNL     1      -9.076   7.111  74.520  1.00  0.00     0.000 HD 
HETATM    6  O   UNL     1      -9.421   8.776  72.686  1.00  0.00    -0.269 OA 
ENDROOT
BRANCH   4   7
HETATM    7  C   UNL     1     -11.404   7.514  72.087  1.00  0.00    -0.326 C  
BRANCH   7   8
HETATM    8  C   UNL     1     -12.601   8.359  72.514  1.00  0.00    -0.311 C  
BRANCH   8   9
HETATM    9  C   UNL     1     -13.160   9.151  71.337  1.00  0.00    -0.363 C  
BRANCH   9  10
HETATM   10  C   UNL     1     -12.958  10.657  71.530  1.00  0.00    -0.566 C  
BRANCH  10  11
HETATM   11  C   UNL     1     -12.087  11.199  70.408  1.00  0.00    -0.475 C  
BRANCH  11  12
HETATM   12  C   UNL     1     -12.110  12.724  70.276  1.00  0.00    -0.373 C  
BRANCH  12  13
HETATM   13  C   UNL     1     -11.455  13.102  68.957  1.00  0.00    -0.296 C  
HETATM   14  N   UNL     1     -12.227  13.927  68.157  1.00  0.00    -0.494 N  
HETATM   15  O   UNL     1     -10.325  12.699  68.682  1.00  0.00    -0.228 OA 
HETATM   16  H   UNL     1     -13.153  14.187  68.495  1.00  0.00     0.000 HD 
BRANCH  14  17
HETATM   17  C   UNL     1     -11.812  14.432  66.900  1.00  0.00    -0.410 A  
HETATM   18  C   UNL     1     -10.949  15.525  66.770  1.00  0.00    -0.257 A  
HETATM   19  C   UNL     1     -10.651  16.062  65.518  1.00  0.00    -0.415 A  
HETATM   20  C   UNL     1     -11.195  15.492  64.373  1.00  0.00    -0.232 A  
HETATM   21  C   UNL     1     -12.008  14.365  64.483  1.00  0.00    -0.487 A  
HETATM   22  C   UNL     1     -12.308  13.827  65.741  1.00  0.00    -0.523 A  
ENDBRANCH  14  17
ENDBRANCH  12  13
ENDBRANCH  11  12
ENDBRANCH  10  11
ENDBRANCH   9  10
ENDBRANCH   8   9
ENDBRANCH   7   8
ENDBRANCH   4   7
TORSDOF 8
ENDMDL
MODEL       99
REMARK 921   NORMALIZED FREE ENERGY PREDICTED BY IDOCK:   -4.51 KCAL/MOL
REMARK 922        TOTAL FREE ENERGY PREDICTED BY IDOCK:   -7.41 KCAL/MOL
REMARK 923 INTER-LIGAND FREE ENERGY PREDICTED BY IDOCK:   -6.92 KCAL/MOL
REMARK 924 INTRA-LIGAND FREE ENERGY PREDICTED BY IDOCK:   -0.50 KCAL/MOL
REMARK 927      BINDING AFFINITY PREDICTED BY RF-SCORE:    0.00 PKD
ROOT
HETATM    1  O   UNL     1     -14.360  14.823  70.760  1.00  0.00    -0.487 OA 
HETATM    2  N   UNL     1     -13.300  15.741  70.822  1.00  0.00    -0.751 N  
HETATM    3  H   UNL     1     -15.150  14.974  71.266  1.00  0.00     0.000 HD 
HETATM    4  C   UNL     1     -12.165  15.525  70.095  1.00  0.00    -0.376 C  
HETATM    5  H   UNL     1     -13.378  16.570  71.411  1.00  0.00     0.000 HD 
HETATM    6  O   UNL     1     -11.242  16.336  70.133  1.00  0.00    -0.358 OA 
ENDROOT
BRANCH   4   7
HETATM    7  C   UNL     1     -12.133  14.251  69.274  1.00  0.00    -0.351 C  
BRANCH   7   8
HETATM    8  C   UNL     1     -11.673  14.504  67.841  1.00  0.00    -0.381 C  
BRANCH   8   9
HETATM    9  C   UNL     1     -12.074  13.354  66.924  1.00  0.00    -0.406 C  
BRANCH   9  10
HETATM   10  C   UNL     1     -10.960  12.308  66.819  1.00  0.00    -0.321 C  
BRANCH  10  11
HETATM   11  C   UNL     1     -11.266  11.148  67.753  1.00  0.00    -0.359 C  
BRANCH  11  12
HETATM   12  C   UNL     1     -10.623   9.822  67.338  1.00  0.00    -0.330 C  
BRANCH  12  13
HETATM   13  C   UNL     1     -10.193   9.082  68.595  1.00  0.00    -0.205 C  
HETATM   14  N   UNL     1     -11.242   8.554  69.328  1.00  0.00    -0.413 N  
HETATM   15  O   UNL     1      -9.001   8.973  68.879  1.00  0.00    -0.138 OA 
HETATM   16  H   UNL     1     -12.190   8.719  68.990  1.00  0.00     0.000 HD 
BRANCH  14  17
HETATM   17  C   UNL     1     -11.082   7.800  70.516  1.00  0.00    -0.257 A  
HETATM   18  C   UNL     1     -10.915   6.411  70.516  1.00  0.00    -0.364 A  
HETATM   19  C   UNL     1     -10.871   5.691  71.710  1.00  0.00    -0.301 A  
HETATM   20  C   UNL     1     -10.968   6.358  72.924  1.00  0.00    -0.281 A  
HETATM   21  C   UNL     1     -11.074   7.748  72.942  1.00  0.00    -0.457 A  
HETATM   22  C   UNL     1     -11.119   8.470  71.743  1.00  0.00    -0.378 A  
ENDBRANCH  14  17
ENDBRANCH  12  13
ENDBRANCH  11  12
ENDBRANCH  10  11
ENDBRANCH   9  10
ENDBRANCH   8   9
ENDBRANCH   7   8
ENDBRANCH   4   7
TORSDOF 8
ENDMDL
MODEL      100
REMARK 921   NORMALIZED FREE ENERGY PREDICTED BY IDOCK:   -4.49 KCAL/MOL
REMARK 922        TOTAL FREE ENERGY PREDICTED BY IDOCK:   -7.38 KCAL/MOL
REMARK 923 INTER-LIGAND FREE ENERGY PREDICTED BY IDOCK:   -6.80 KCAL/MOL
REMARK 924 INTRA-LIGAND FREE ENERGY PREDICTED BY IDOCK:   -0.59 KCAL/MOL
REMARK 927      BINDING AFFINITY PREDICTED BY RF-SCORE:    0.00 PKD
ROOT
HETATM    1  O   UNL     1     -11.858   4.445  64.969  1.00  0.00    -0.837 OA 
HETATM    2  N   UNL     1     -10.475   4.329  65.179  1.00  0.00    -0.515 N  
HETATM    3  H   UNL     1     -12.276   3.956  64.270  1.00  0.00     0.000 HD 
HETATM    4  C   UNL     1      -9.875   5.031  66.184  1.00  0.00    -0.198 C  
HETATM    5  H   UNL     1      -9.919   3.719  64.580  1.00  0.00     0.000 HD 
HETATM    6  O   UNL     1      -8.666   4.917  66.383  1.00  0.00    -0.113 OA 
ENDROOT
BRANCH   4   7
HETATM    7  C   UNL     1     -10.781   5.932  67.001  1.00  0.00    -0.396 C  
BRANCH   7   8
HETATM    8  C   UNL     1     -10.432   5.900  68.486  1.00  0.00    -0.297 C  
BRANCH   8   9
HETATM    9  C   UNL     1     -10.551   7.287  69.107  1.00  0.00    -0.219 C  
BRANCH   9  10
HETATM   10  C   UNL     1      -9.285   8.116  68.869  1.00  0.00    -0.147 C  
BRANCH  10  11
HETATM   11  C   UNL     1      -9.645   9.593  68.845  1.00  0.00    -0.161 C  
BRANCH  11  12
HETATM   12  C   UNL     1     -10.646   9.978  67.752  1.00  0.00    -0.311 C  
BRANCH  12  13
HETATM   13  C   UNL     1     -11.469  11.157  68.249  1.00  0.00    -0.303 C  
HETATM   14  N   UNL     1     -11.404  11.357  69.617  1.00  0.00    -0.345 N  
HETATM   15  O   UNL     1     -12.103  11.853  67.457  1.00  0.00    -0.573 OA 
HETATM   16  H   UNL     1     -10.847  10.704  70.168  1.00  0.00     0.000 HD 
BRANCH  14  17
HETATM   17  C   UNL     1     -12.062  12.410  70.299  1.00  0.00    -0.297 A  
HETATM   18  C   UNL     1     -11.796  13.760  70.046  1.00  0.00    -0.377 A  
HETATM   19  C   UNL     1     -12.382  14.766  70.814  1.00  0.00    -0.397 A  
HETATM   20  C   UNL     1     -13.267  14.432  71.832  1.00  0.00    -0.444 A  
HETATM   21  C   UNL     1     -13.589  13.094  72.056  1.00  0.00    -0.554 A  
HETATM   22  C   UNL     1     -12.998  12.085  71.285  1.00  0.00    -0.315 A  
ENDBRANCH  14  17
ENDBRANCH  12  13
ENDBRANCH  11  12
ENDBRANCH  10  11
ENDBRANCH   9  10
ENDBRANCH   8   9
ENDBRANCH   7   8
ENDBRANCH   4   7
TORSDOF 8
ENDMDL
MODEL      101
REMARK 921   NORMALIZED FREE ENERGY PREDICTED BY IDOCK:   -4.48 KCAL/MOL
REMARK 922        TOTAL FREE ENERGY PREDICTED BY IDOCK:   -7.37 KCAL/MOL
REMARK 923 INTER-LIGAND FREE ENERGY PREDICTED BY IDOCK:   -6.57 KCAL/MOL
REMARK 924 INTRA-LIGAND FREE ENERGY PREDICTED BY IDOCK:   -0.80 KCAL/MOL
REMARK 927      BINDING AFFINITY PREDICTED BY RF-SCORE:    0.00 PKD
ROOT
HETATM    1  O   UNL     1     -10.263   9.990  64.296  1.00  0.00    -0.436 OA 
HETATM    2  N   UNL     1      -9.502   9.123  65.096  1.00  0.00    -0.453 N  
HETATM    3  H   UNL     1     -10.167   9.973  63.351  1.00  0.00     0.000 HD 
HETATM    4  C   UNL     1      -9.640   9.148  66.454  1.00  0.00    -0.245 C  
HETATM    5  H   UNL     1      -8.847   8.473  64.662  1.00  0.00     0.000 HD 
HETATM    6  O   UNL     1      -8.990   8.376  67.157  1.00  0.00    -0.133 OA 
ENDROOT
BRANCH   4   7
HETATM    7  C   UNL     1     -10.618  10.167  67.005  1.00  0.00    -0.290 C  
BRANCH   7   8
HETATM    8  C   UNL     1      -9.920  11.452  67.443  1.00  0.00    -0.207 C  
BRANCH   8   9
HETATM    9  C   UNL     1     -10.606  12.061  68.660  1.00  0.00    -0.253 C  
BRANCH   9  10
HETATM   10  C   UNL     1     -11.867  11.279  69.042  1.00  0.00    -0.421 C  
BRANCH  10  11
HETATM   11  C   UNL     1     -12.143  11.458  70.526  1.00  0.00    -0.487 C  
BRANCH  11  12
HETATM   12  C   UNL     1     -12.811  10.251  71.190  1.00  0.00    -0.504 C  
BRANCH  12  13
HETATM   13  C   UNL     1     -11.801   9.115  71.248  1.00  0.00    -0.327 C  
HETATM   14  N   UNL     1     -12.292   7.897  70.813  1.00  0.00    -0.509 N  
HETATM   15  O   UNL     1     -10.652   9.321  71.637  1.00  0.00    -0.349 OA 
HETATM   16  H   UNL     1     -13.268   7.854  70.520  1.00  0.00     0.000 HD 
BRANCH  14  17
HETATM   17  C   UNL     1     -11.526   6.707  70.749  1.00  0.00    -0.353 A  
HETATM   18  C   UNL     1     -11.238   5.929  71.875  1.00  0.00    -0.323 A  
HETATM   19  C   UNL     1     -10.389   4.826  71.791  1.00  0.00    -0.230 A  
HETATM   20  C   UNL     1      -9.835   4.471  70.567  1.00  0.00    -0.297 A  
HETATM   21  C   UNL     1     -10.160   5.201  69.425  1.00  0.00    -0.305 A  
HETATM   22  C   UNL     1     -11.012   6.309  69.510  1.00  0.00    -0.445 A  
ENDBRANCH  14  17
ENDBRANCH  12  13
ENDBRANCH  11  12
ENDBRANCH  10  11
ENDBRANCH   9  10
ENDBRANCH   8   9
ENDBRANCH   7   8
ENDBRANCH   4   7
TORSDOF 8
ENDMDL
MODEL      102
REMARK 921   NORMALIZED FREE ENERGY PREDICTED BY IDOCK:   -4.48 KCAL/MOL
REMARK 922        TOTAL FREE ENERGY PREDICTED BY IDOCK:   -7.37 KCAL/MOL
REMARK 923 INTER-LIGAND FREE ENERGY PREDICTED BY IDOCK:   -7.21 KCAL/MOL
REMARK 924 INTRA-LIGAND FREE ENERGY PREDICTED BY IDOCK:   -0.16 KCAL/MOL
REMARK 927      BINDING AFFINITY PREDICTED BY RF-SCORE:    0.00 PKD
ROOT
HETATM    1  O   UNL     1     -10.394   9.708  68.475  1.00  0.00    -0.190 OA 
HETATM    2  N   UNL     1     -11.008   8.746  67.658  1.00  0.00    -0.473 N  
HETATM    3  H   UNL     1     -10.619  10.626  68.381  1.00  0.00     0.000 HD 
HETATM    4  C   UNL     1     -10.684   7.426  67.793  1.00  0.00    -0.179 C  
HETATM    5  H   UNL     1     -11.696   9.033  66.962  1.00  0.00     0.000 HD 
HETATM    6  O   UNL     1     -11.234   6.579  67.092  1.00  0.00    -0.388 OA 
ENDROOT
BRANCH   4   7
HETATM    7  C   UNL     1      -9.630   7.103  68.834  1.00  0.00    -0.142 C  
BRANCH   7   8
HETATM    8  C   UNL     1     -10.178   7.203  70.255  1.00  0.00    -0.207 C  
BRANCH   8   9
HETATM    9  C   UNL     1     -11.427   6.346  70.422  1.00  0.00    -0.458 C  
BRANCH   9  10
HETATM   10  C   UNL     1     -12.190   6.713  71.699  1.00  0.00    -0.401 C  
BRANCH  10  11
HETATM   11  C   UNL     1     -13.321   7.669  71.356  1.00  0.00    -0.340 C  
BRANCH  11  12
HETATM   12  C   UNL     1     -13.447   8.860  72.310  1.00  0.00    -0.503 C  
BRANCH  12  13
HETATM   13  C   UNL     1     -13.036  10.119  71.562  1.00  0.00    -0.444 C  
HETATM   14  N   UNL     1     -13.533  11.289  72.108  1.00  0.00    -0.528 N  
HETATM   15  O   UNL     1     -12.304  10.049  70.576  1.00  0.00    -0.264 OA 
HETATM   16  H   UNL     1     -14.136  11.215  72.927  1.00  0.00     0.000 HD 
BRANCH  14  17
HETATM   17  C   UNL     1     -13.258  12.583  71.601  1.00  0.00    -0.284 A  
HETATM   18  C   UNL     1     -12.410  12.806  70.511  1.00  0.00    -0.355 A  
HETATM   19  C   UNL     1     -12.076  14.099  70.110  1.00  0.00    -0.411 A  
HETATM   20  C   UNL     1     -12.611  15.191  70.783  1.00  0.00    -0.452 A  
HETATM   21  C   UNL     1     -13.505  14.986  71.832  1.00  0.00    -0.500 A  
HETATM   22  C   UNL     1     -13.838  13.687  72.235  1.00  0.00    -0.689 A  
ENDBRANCH  14  17
ENDBRANCH  12  13
ENDBRANCH  11  12
ENDBRANCH  10  11
ENDBRANCH   9  10
ENDBRANCH   8   9
ENDBRANCH   7   8
ENDBRANCH   4   7
TORSDOF 8
ENDMDL
MODEL      103
REMARK 921   NORMALIZED FREE ENERGY PREDICTED BY IDOCK:   -4.47 KCAL/MOL
REMARK 922        TOTAL FREE ENERGY PREDICTED BY IDOCK:   -7.35 KCAL/MOL
REMARK 923 INTER-LIGAND FREE ENERGY PREDICTED BY IDOCK:   -6.79 KCAL/MOL
REMARK 924 INTRA-LIGAND FREE ENERGY PREDICTED BY IDOCK:   -0.55 KCAL/MOL
REMARK 927      BINDING AFFINITY PREDICTED BY RF-SCORE:    0.00 PKD
ROOT
HETATM    1  O   UNL     1     -10.615   6.314  74.391  1.00  0.00    -0.381 OA 
HETATM    2  N   UNL     1     -11.280   6.303  73.155  1.00  0.00    -0.458 N  
HETATM    3  H   UNL     1     -11.108   6.427  75.196  1.00  0.00     0.000 HD 
HETATM    4  C   UNL     1     -10.572   6.140  71.999  1.00  0.00    -0.218 C  
HETATM    5  H   UNL     1     -12.293   6.417  73.121  1.00  0.00     0.000 HD 
HETATM    6  O   UNL     1     -11.154   6.112  70.916  1.00  0.00    -0.286 OA 
ENDROOT
BRANCH   4   7
HETATM    7  C   UNL     1      -9.070   6.008  72.151  1.00  0.00    -0.142 C  
BRANCH   7   8
HETATM    8  C   UNL     1      -8.314   6.936  71.204  1.00  0.00    -0.119 C  
BRANCH   8   9
HETATM    9  C   UNL     1      -8.603   8.398  71.521  1.00  0.00    -0.215 C  
BRANCH   9  10
HETATM   10  C   UNL     1      -8.859   9.207  70.246  1.00  0.00    -0.238 C  
BRANCH  10  11
HETATM   11  C   UNL     1     -10.264   9.787  70.289  1.00  0.00    -0.346 C  
BRANCH  11  12
HETATM   12  C   UNL     1     -10.802  10.229  68.925  1.00  0.00    -0.263 C  
BRANCH  12  13
HETATM   13  C   UNL     1     -11.692  11.445  69.131  1.00  0.00    -0.342 C  
HETATM   14  N   UNL     1     -11.663  11.956  70.417  1.00  0.00    -0.523 N  
HETATM   15  O   UNL     1     -12.344  11.907  68.196  1.00  0.00    -0.347 OA 
HETATM   16  H   UNL     1     -11.085  11.478  71.107  1.00  0.00     0.000 HD 
BRANCH  14  17
HETATM   17  C   UNL     1     -12.386  13.101  70.833  1.00  0.00    -0.307 A  
HETATM   18  C   UNL     1     -13.358  13.060  71.839  1.00  0.00    -0.539 A  
HETATM   19  C   UNL     1     -14.126  14.183  72.145  1.00  0.00    -0.643 A  
HETATM   20  C   UNL     1     -13.911  15.375  71.463  1.00  0.00    -0.599 A  
HETATM   21  C   UNL     1     -12.905  15.448  70.501  1.00  0.00    -0.425 A  
HETATM   22  C   UNL     1     -12.135  14.319  70.193  1.00  0.00    -0.403 A  
ENDBRANCH  14  17
ENDBRANCH  12  13
ENDBRANCH  11  12
ENDBRANCH  10  11
ENDBRANCH   9  10
ENDBRANCH   8   9
ENDBRANCH   7   8
ENDBRANCH   4   7
TORSDOF 8
ENDMDL
MODEL      104
REMARK 921   NORMALIZED FREE ENERGY PREDICTED BY IDOCK:   -4.45 KCAL/MOL
REMARK 922        TOTAL FREE ENERGY PREDICTED BY IDOCK:   -7.32 KCAL/MOL
REMARK 923 INTER-LIGAND FREE ENERGY PREDICTED BY IDOCK:   -6.55 KCAL/MOL
REMARK 924 INTRA-LIGAND FREE ENERGY PREDICTED BY IDOCK:   -0.77 KCAL/MOL
REMARK 927      BINDING AFFINITY PREDICTED BY RF-SCORE:    0.00 PKD
ROOT
HETATM    1  O   UNL     1     -10.481  17.451  65.447  1.00  0.00    -0.648 OA 
HETATM    2  N   UNL     1      -9.365  17.030  66.187  1.00  0.00    -0.246 N  
HETATM    3  H   UNL     1     -10.387  17.666  64.526  1.00  0.00     0.000 HD 
HETATM    4  C   UNL     1      -9.499  16.721  67.510  1.00  0.00    -0.237 C  
HETATM    5  H   UNL     1      -8.454  16.954  65.736  1.00  0.00     0.000 HD 
HETATM    6  O   UNL     1      -8.528  16.333  68.157  1.00  0.00    -0.168 OA 
ENDROOT
BRANCH   4   7
HETATM    7  C   UNL     1     -10.887  16.892  68.096  1.00  0.00    -0.351 C  
BRANCH   7   8
HETATM    8  C   UNL     1     -11.521  15.554  68.468  1.00  0.00    -0.369 C  
BRANCH   8   9
HETATM    9  C   UNL     1     -11.763  14.699  67.229  1.00  0.00    -0.406 C  
BRANCH   9  10
HETATM   10  C   UNL     1     -11.486  13.219  67.508  1.00  0.00    -0.361 C  
BRANCH  10  11
HETATM   11  C   UNL     1     -10.072  13.062  68.045  1.00  0.00    -0.235 C  
BRANCH  11  12
HETATM   12  C   UNL     1      -9.478  11.665  67.846  1.00  0.00    -0.181 C  
BRANCH  12  13
HETATM   13  C   UNL     1     -10.394  10.653  68.518  1.00  0.00    -0.183 C  
HETATM   14  N   UNL     1     -10.558  10.854  69.877  1.00  0.00    -0.451 N  
HETATM   15  O   UNL     1     -10.933   9.766  67.859  1.00  0.00    -0.262 OA 
HETATM   16  H   UNL     1     -10.050  11.624  70.311  1.00  0.00     0.000 HD 
BRANCH  14  17
HETATM   17  C   UNL     1     -11.388  10.057  70.704  1.00  0.00    -0.348 A  
HETATM   18  C   UNL     1     -12.760  10.288  70.849  1.00  0.00    -0.462 A  
HETATM   19  C   UNL     1     -13.523   9.553  71.756  1.00  0.00    -0.480 A  
HETATM   20  C   UNL     1     -12.924   8.554  72.514  1.00  0.00    -0.300 A  
HETATM   21  C   UNL     1     -11.570   8.271  72.336  1.00  0.00    -0.464 A  
HETATM   22  C   UNL     1     -10.805   9.011  71.426  1.00  0.00    -0.400 A  
ENDBRANCH  14  17
ENDBRANCH  12  13
ENDBRANCH  11  12
ENDBRANCH  10  11
ENDBRANCH   9  10
ENDBRANCH   8   9
ENDBRANCH   7   8
ENDBRANCH   4   7
TORSDOF 8
ENDMDL
MODEL      105
REMARK 921   NORMALIZED FREE ENERGY PREDICTED BY IDOCK:   -4.45 KCAL/MOL
REMARK 922        TOTAL FREE ENERGY PREDICTED BY IDOCK:   -7.32 KCAL/MOL
REMARK 923 INTER-LIGAND FREE ENERGY PREDICTED BY IDOCK:   -6.50 KCAL/MOL
REMARK 924 INTRA-LIGAND FREE ENERGY PREDICTED BY IDOCK:   -0.81 KCAL/MOL
REMARK 927      BINDING AFFINITY PREDICTED BY RF-SCORE:    0.00 PKD
ROOT
HETATM    1  O   UNL     1      -8.401  15.292  69.429  1.00  0.00    -0.232 OA 
HETATM    2  N   UNL     1      -7.088  15.774  69.544  1.00  0.00    -0.202 N  
HETATM    3  H   UNL     1      -8.592  14.380  69.617  1.00  0.00     0.000 HD 
HETATM    4  C   UNL     1      -6.814  17.084  69.274  1.00  0.00    -0.219 C  
HETATM    5  H   UNL     1      -6.338  15.145  69.830  1.00  0.00     0.000 HD 
HETATM    6  O   UNL     1      -5.668  17.514  69.392  1.00  0.00    -0.189 OA 
ENDROOT
BRANCH   4   7
HETATM    7  C   UNL     1      -7.990  17.932  68.829  1.00  0.00    -0.246 C  
BRANCH   7   8
HETATM    8  C   UNL     1      -7.571  19.360  68.491  1.00  0.00    -0.369 C  
BRANCH   8   9
HETATM    9  C   UNL     1      -8.589  20.027  67.573  1.00  0.00    -0.401 C  
BRANCH   9  10
HETATM   10  C   UNL     1     -10.010  19.904  68.130  1.00  0.00    -0.551 C  
BRANCH  10  11
HETATM   11  C   UNL     1     -10.910  19.263  67.086  1.00  0.00    -0.543 C  
BRANCH  11  12
HETATM   12  C   UNL     1     -10.171  18.377  66.080  1.00  0.00    -0.408 C  
BRANCH  12  13
HETATM   13  C   UNL     1     -10.565  16.930  66.335  1.00  0.00    -0.183 C  
HETATM   14  N   UNL     1     -10.642  16.154  65.191  1.00  0.00    -0.392 N  
HETATM   15  O   UNL     1     -10.765  16.529  67.481  1.00  0.00    -0.321 OA 
HETATM   16  H   UNL     1     -10.459  16.606  64.296  1.00  0.00     0.000 HD 
BRANCH  14  17
HETATM   17  C   UNL     1     -10.960  14.773  65.187  1.00  0.00    -0.393 A  
HETATM   18  C   UNL     1     -12.274  14.298  65.126  1.00  0.00    -0.422 A  
HETATM   19  C   UNL     1     -12.553  12.936  65.235  1.00  0.00    -0.502 A  
HETATM   20  C   UNL     1     -11.513  12.026  65.381  1.00  0.00    -0.361 A  
HETATM   21  C   UNL     1     -10.195  12.479  65.382  1.00  0.00    -0.303 A  
HETATM   22  C   UNL     1      -9.916  13.847  65.274  1.00  0.00    -0.266 A  
ENDBRANCH  14  17
ENDBRANCH  12  13
ENDBRANCH  11  12
ENDBRANCH  10  11
ENDBRANCH   9  10
ENDBRANCH   8   9
ENDBRANCH   7   8
ENDBRANCH   4   7
TORSDOF 8
ENDMDL
MODEL      106
REMARK 921   NORMALIZED FREE ENERGY PREDICTED BY IDOCK:   -4.44 KCAL/MOL
REMARK 922        TOTAL FREE ENERGY PREDICTED BY IDOCK:   -7.30 KCAL/MOL
REMARK 923 INTER-LIGAND FREE ENERGY PREDICTED BY IDOCK:   -6.04 KCAL/MOL
REMARK 924 INTRA-LIGAND FREE ENERGY PREDICTED BY IDOCK:   -1.26 KCAL/MOL
REMARK 927      BINDING AFFINITY PREDICTED BY RF-SCORE:    0.00 PKD
ROOT
HETATM    1  O   UNL     1     -11.526  13.470  70.402  1.00  0.00    -0.512 OA 
HETATM    2  N   UNL     1     -11.741  12.739  69.223  1.00  0.00    -0.307 N  
HETATM    3  H   UNL     1     -11.424  14.414  70.364  1.00  0.00     0.000 HD 
HETATM    4  C   UNL     1     -11.888  11.382  69.277  1.00  0.00    -0.349 C  
HETATM    5  H   UNL     1     -11.787  13.221  68.326  1.00  0.00     0.000 HD 
HETATM    6  O   UNL     1     -12.094  10.740  68.249  1.00  0.00    -0.496 OA 
ENDROOT
BRANCH   4   7
HETATM    7  C   UNL     1     -11.775  10.755  70.653  1.00  0.00    -0.442 C  
BRANCH   7   8
HETATM    8  C   UNL     1     -13.144  10.489  71.275  1.00  0.00    -0.478 C  
BRANCH   8   9
HETATM    9  C   UNL     1     -13.188   9.116  71.935  1.00  0.00    -0.479 C  
BRANCH   9  10
HETATM   10  C   UNL     1     -11.792   8.657  72.366  1.00  0.00    -0.402 C  
BRANCH  10  11
HETATM   11  C   UNL     1     -11.675   7.153  72.183  1.00  0.00    -0.322 C  
BRANCH  11  12
HETATM   12  C   UNL     1     -12.139   6.649  70.814  1.00  0.00    -0.364 C  
BRANCH  12  13
HETATM   13  C   UNL     1     -10.960   6.706  69.856  1.00  0.00    -0.319 C  
HETATM   14  N   UNL     1     -10.969   7.803  69.012  1.00  0.00    -0.428 N  
HETATM   15  O   UNL     1     -10.089   5.837  69.884  1.00  0.00    -0.178 OA 
HETATM   16  H   UNL     1     -11.752   8.452  69.082  1.00  0.00     0.000 HD 
BRANCH  14  17
HETATM   17  C   UNL     1      -9.958   8.082  68.059  1.00  0.00    -0.179 A  
HETATM   18  C   UNL     1      -9.906   7.462  66.806  1.00  0.00    -0.290 A  
HETATM   19  C   UNL     1      -8.836   7.679  65.939  1.00  0.00    -0.163 A  
HETATM   20  C   UNL     1      -7.812   8.543  66.306  1.00  0.00    -0.098 A  
HETATM   21  C   UNL     1      -7.880   9.215  67.526  1.00  0.00    -0.100 A  
HETATM   22  C   UNL     1      -8.955   8.995  68.397  1.00  0.00    -0.133 A  
ENDBRANCH  14  17
ENDBRANCH  12  13
ENDBRANCH  11  12
ENDBRANCH  10  11
ENDBRANCH   9  10
ENDBRANCH   8   9
ENDBRANCH   7   8
ENDBRANCH   4   7
TORSDOF 8
ENDMDL
MODEL      107
REMARK 921   NORMALIZED FREE ENERGY PREDICTED BY IDOCK:   -4.43 KCAL/MOL
REMARK 922        TOTAL FREE ENERGY PREDICTED BY IDOCK:   -7.29 KCAL/MOL
REMARK 923 INTER-LIGAND FREE ENERGY PREDICTED BY IDOCK:   -6.55 KCAL/MOL
REMARK 924 INTRA-LIGAND FREE ENERGY PREDICTED BY IDOCK:   -0.74 KCAL/MOL
REMARK 927      BINDING AFFINITY PREDICTED BY RF-SCORE:    0.00 PKD
ROOT
HETATM    1  O   UNL     1     -12.087  15.195  68.133  1.00  0.00    -0.524 OA 
HETATM    2  N   UNL     1     -12.054  13.810  68.358  1.00  0.00    -0.436 N  
HETATM    3  H   UNL     1     -12.055  15.797  68.868  1.00  0.00     0.000 HD 
HETATM    4  C   UNL     1     -12.100  12.945  67.302  1.00  0.00    -0.212 C  
HETATM    5  H   UNL     1     -11.996  13.450  69.310  1.00  0.00     0.000 HD 
HETATM    6  O   UNL     1     -12.052  11.731  67.494  1.00  0.00    -0.599 OA 
ENDROOT
BRANCH   4   7
HETATM    7  C   UNL     1     -12.215  13.576  65.928  1.00  0.00    -0.507 C  
BRANCH   7   8
HETATM    8  C   UNL     1     -12.513  12.543  64.846  1.00  0.00    -0.524 C  
BRANCH   8   9
HETATM    9  C   UNL     1     -11.813  12.899  63.540  1.00  0.00    -0.605 C  
BRANCH   9  10
HETATM   10  C   UNL     1     -10.690  11.908  63.219  1.00  0.00    -0.415 C  
BRANCH  10  11
HETATM   11  C   UNL     1     -10.621  10.851  64.308  1.00  0.00    -0.336 C  
BRANCH  11  12
HETATM   12  C   UNL     1      -9.232  10.675  64.927  1.00  0.00    -0.252 C  
BRANCH  12  13
HETATM   13  C   UNL     1      -9.347   9.719  66.104  1.00  0.00    -0.191 C  
HETATM   14  N   UNL     1      -9.466   8.389  65.743  1.00  0.00    -0.441 N  
HETATM   15  O   UNL     1      -9.310  10.143  67.258  1.00  0.00    -0.150 OA 
HETATM   16  H   UNL     1      -9.491   8.165  64.748  1.00  0.00     0.000 HD 
BRANCH  14  17
HETATM   17  C   UNL     1      -9.556   7.319  66.667  1.00  0.00    -0.178 A  
HETATM   18  C   UNL     1     -10.777   6.823  67.137  1.00  0.00    -0.441 A  
HETATM   19  C   UNL     1     -10.824   5.844  68.129  1.00  0.00    -0.323 A  
HETATM   20  C   UNL     1      -9.643   5.328  68.647  1.00  0.00    -0.183 A  
HETATM   21  C   UNL     1      -8.419   5.768  68.147  1.00  0.00    -0.109 A  
HETATM   22  C   UNL     1      -8.373   6.752  67.151  1.00  0.00    -0.121 A  
ENDBRANCH  14  17
ENDBRANCH  12  13
ENDBRANCH  11  12
ENDBRANCH  10  11
ENDBRANCH   9  10
ENDBRANCH   8   9
ENDBRANCH   7   8
ENDBRANCH   4   7
TORSDOF 8
ENDMDL
MODEL      108
REMARK 921   NORMALIZED FREE ENERGY PREDICTED BY IDOCK:   -4.42 KCAL/MOL
REMARK 922        TOTAL FREE ENERGY PREDICTED BY IDOCK:   -7.27 KCAL/MOL
REMARK 923 INTER-LIGAND FREE ENERGY PREDICTED BY IDOCK:   -6.85 KCAL/MOL
REMARK 924 INTRA-LIGAND FREE ENERGY PREDICTED BY IDOCK:   -0.42 KCAL/MOL
REMARK 927      BINDING AFFINITY PREDICTED BY RF-SCORE:    0.00 PKD
ROOT
HETATM    1  O   UNL     1      -9.715  20.863  66.810  1.00  0.00    -0.646 OA 
HETATM    2  N   UNL     1      -8.753  20.248  65.994  1.00  0.00    -0.580 N  
HETATM    3  H   UNL     1     -10.003  21.748  66.620  1.00  0.00     0.000 HD 
HETATM    4  C   UNL     1      -8.338  18.976  66.266  1.00  0.00    -0.283 C  
HETATM    5  H   UNL     1      -8.364  20.751  65.196  1.00  0.00     0.000 HD 
HETATM    6  O   UNL     1      -7.509  18.427  65.541  1.00  0.00    -0.528 OA 
ENDROOT
BRANCH   4   7
HETATM    7  C   UNL     1      -8.953  18.322  67.487  1.00  0.00    -0.256 C  
BRANCH   7   8
HETATM    8  C   UNL     1      -9.734  17.061  67.130  1.00  0.00    -0.259 C  
BRANCH   8   9
HETATM    9  C   UNL     1     -10.850  16.803  68.136  1.00  0.00    -0.353 C  
BRANCH   9  10
HETATM   10  C   UNL     1     -11.453  15.407  67.956  1.00  0.00    -0.333 C  
BRANCH  10  11
HETATM   11  C   UNL     1     -11.301  14.972  66.507  1.00  0.00    -0.280 C  
BRANCH  11  12
HETATM   12  C   UNL     1     -12.504  14.205  65.952  1.00  0.00    -0.479 C  
BRANCH  12  13
HETATM   13  C   UNL     1     -12.050  12.801  65.584  1.00  0.00    -0.459 C  
HETATM   14  N   UNL     1     -11.176  12.232  66.494  1.00  0.00    -0.306 N  
HETATM   15  O   UNL     1     -12.470  12.256  64.564  1.00  0.00    -0.439 OA 
HETATM   16  H   UNL     1     -10.896  12.790  67.300  1.00  0.00     0.000 HD 
BRANCH  14  17
HETATM   17  C   UNL     1     -10.646  10.923  66.376  1.00  0.00    -0.229 A  
HETATM   18  C   UNL     1     -10.938   9.902  67.286  1.00  0.00    -0.187 A  
HETATM   19  C   UNL     1     -10.311   8.659  67.201  1.00  0.00    -0.369 A  
HETATM   20  C   UNL     1      -9.399   8.413  66.182  1.00  0.00    -0.267 A  
HETATM   21  C   UNL     1      -9.144   9.400  65.231  1.00  0.00    -0.287 A  
HETATM   22  C   UNL     1      -9.773  10.649  65.319  1.00  0.00    -0.315 A  
ENDBRANCH  14  17
ENDBRANCH  12  13
ENDBRANCH  11  12
ENDBRANCH  10  11
ENDBRANCH   9  10
ENDBRANCH   8   9
ENDBRANCH   7   8
ENDBRANCH   4   7
TORSDOF 8
ENDMDL
MODEL      109
REMARK 921   NORMALIZED FREE ENERGY PREDICTED BY IDOCK:   -4.42 KCAL/MOL
REMARK 922        TOTAL FREE ENERGY PREDICTED BY IDOCK:   -7.27 KCAL/MOL
REMARK 923 INTER-LIGAND FREE ENERGY PREDICTED BY IDOCK:   -6.64 KCAL/MOL
REMARK 924 INTRA-LIGAND FREE ENERGY PREDICTED BY IDOCK:   -0.63 KCAL/MOL
REMARK 927      BINDING AFFINITY PREDICTED BY RF-SCORE:    0.00 PKD
ROOT
HETATM    1  O   UNL     1      -9.760   9.450  64.911  1.00  0.00    -0.443 OA 
HETATM    2  N   UNL     1      -9.758   8.401  65.843  1.00  0.00    -0.465 N  
HETATM    3  H   UNL     1      -9.375   9.323  64.051  1.00  0.00     0.000 HD 
HETATM    4  C   UNL     1     -10.310   8.583  67.079  1.00  0.00    -0.309 C  
HETATM    5  H   UNL     1      -9.343   7.503  65.598  1.00  0.00     0.000 HD 
HETATM    6  O   UNL     1     -10.327   7.660  67.891  1.00  0.00    -0.195 OA 
ENDROOT
BRANCH   4   7
HETATM    7  C   UNL     1     -10.876   9.962  67.358  1.00  0.00    -0.293 C  
BRANCH   7   8
HETATM    8  C   UNL     1     -10.121  10.675  68.477  1.00  0.00    -0.185 C  
BRANCH   8   9
HETATM    9  C   UNL     1     -10.378  12.176  68.442  1.00  0.00    -0.236 C  
BRANCH   9  10
HETATM   10  C   UNL     1     -11.666  12.505  67.680  1.00  0.00    -0.423 C  
BRANCH  10  11
HETATM   11  C   UNL     1     -11.906  14.006  67.716  1.00  0.00    -0.419 C  
BRANCH  11  12
HETATM   12  C   UNL     1     -12.029  14.587  69.127  1.00  0.00    -0.344 C  
BRANCH  12  13
HETATM   13  C   UNL     1     -11.298  15.920  69.163  1.00  0.00    -0.366 C  
HETATM   14  N   UNL     1     -10.889  16.375  67.921  1.00  0.00    -0.340 N  
HETATM   15  O   UNL     1     -11.129  16.512  70.228  1.00  0.00    -0.348 OA 
HETATM   16  H   UNL     1     -11.083  15.787  67.111  1.00  0.00     0.000 HD 
BRANCH  14  17
HETATM   17  C   UNL     1     -10.218  17.604  67.706  1.00  0.00    -0.354 A  
HETATM   18  C   UNL     1     -10.886  18.780  67.351  1.00  0.00    -0.414 A  
HETATM   19  C   UNL     1     -10.182  19.943  67.039  1.00  0.00    -0.588 A  
HETATM   20  C   UNL     1      -8.794  19.950  67.105  1.00  0.00    -0.407 A  
HETATM   21  C   UNL     1      -8.117  18.802  67.515  1.00  0.00    -0.273 A  
HETATM   22  C   UNL     1      -8.825  17.635  67.827  1.00  0.00    -0.240 A  
ENDBRANCH  14  17
ENDBRANCH  12  13
ENDBRANCH  11  12
ENDBRANCH  10  11
ENDBRANCH   9  10
ENDBRANCH   8   9
ENDBRANCH   7   8
ENDBRANCH   4   7
TORSDOF 8
ENDMDL
MODEL      110
REMARK 921   NORMALIZED FREE ENERGY PREDICTED BY IDOCK:   -4.39 KCAL/MOL
REMARK 922        TOTAL FREE ENERGY PREDICTED BY IDOCK:   -7.23 KCAL/MOL
REMARK 923 INTER-LIGAND FREE ENERGY PREDICTED BY IDOCK:   -5.66 KCAL/MOL
REMARK 924 INTRA-LIGAND FREE ENERGY PREDICTED BY IDOCK:   -1.57 KCAL/MOL
REMARK 927      BINDING AFFINITY PREDICTED BY RF-SCORE:    0.00 PKD
ROOT
HETATM    1  O   UNL     1      -7.901  11.996  69.306  1.00  0.00    -0.336 OA 
HETATM    2  N   UNL     1      -7.803  11.543  67.981  1.00  0.00    -0.119 N  
HETATM    3  H   UNL     1      -7.632  12.879  69.528  1.00  0.00     0.000 HD 
HETATM    4  C   UNL     1      -8.191  10.273  67.662  1.00  0.00    -0.114 C  
HETATM    5  H   UNL     1      -7.441  12.163  67.256  1.00  0.00     0.000 HD 
HETATM    6  O   UNL     1      -8.123   9.879  66.498  1.00  0.00    -0.115 OA 
ENDROOT
BRANCH   4   7
HETATM    7  C   UNL     1      -8.687   9.419  68.812  1.00  0.00    -0.131 C  
BRANCH   7   8
HETATM    8  C   UNL     1     -10.047   8.792  68.515  1.00  0.00    -0.210 C  
BRANCH   8   9
HETATM    9  C   UNL     1     -10.900   8.711  69.775  1.00  0.00    -0.185 C  
BRANCH   9  10
HETATM   10  C   UNL     1     -10.936  10.052  70.514  1.00  0.00    -0.392 C  
BRANCH  10  11
HETATM   11  C   UNL     1     -12.123  10.867  70.026  1.00  0.00    -0.433 C  
BRANCH  11  12
HETATM   12  C   UNL     1     -11.880  12.378  70.003  1.00  0.00    -0.363 C  
BRANCH  12  13
HETATM   13  C   UNL     1     -11.349  12.758  68.629  1.00  0.00    -0.294 C  
HETATM   14  N   UNL     1     -12.075  12.230  67.575  1.00  0.00    -0.118 N  
HETATM   15  O   UNL     1     -10.368  13.491  68.520  1.00  0.00    -0.240 OA 
HETATM   16  H   UNL     1     -12.868  11.628  67.797  1.00  0.00     0.000 HD 
BRANCH  14  17
HETATM   17  C   UNL     1     -11.786  12.472  66.210  1.00  0.00    -0.390 A  
HETATM   18  C   UNL     1     -12.354  13.530  65.491  1.00  0.00    -0.524 A  
HETATM   19  C   UNL     1     -12.132  13.671  64.121  1.00  0.00    -0.484 A  
HETATM   20  C   UNL     1     -11.314  12.766  63.456  1.00  0.00    -0.480 A  
HETATM   21  C   UNL     1     -10.693  11.743  64.171  1.00  0.00    -0.410 A  
HETATM   22  C   UNL     1     -10.917  11.601  65.546  1.00  0.00    -0.327 A  
ENDBRANCH  14  17
ENDBRANCH  12  13
ENDBRANCH  11  12
ENDBRANCH  10  11
ENDBRANCH   9  10
ENDBRANCH   8   9
ENDBRANCH   7   8
ENDBRANCH   4   7
TORSDOF 8
ENDMDL
MODEL      111
REMARK 921   NORMALIZED FREE ENERGY PREDICTED BY IDOCK:   -4.37 KCAL/MOL
REMARK 922        TOTAL FREE ENERGY PREDICTED BY IDOCK:   -7.20 KCAL/MOL
REMARK 923 INTER-LIGAND FREE ENERGY PREDICTED BY IDOCK:   -6.52 KCAL/MOL
REMARK 924 INTRA-LIGAND FREE ENERGY PREDICTED BY IDOCK:   -0.68 KCAL/MOL
REMARK 927      BINDING AFFINITY PREDICTED BY RF-SCORE:    0.00 PKD
ROOT
HETATM    1  O   UNL     1     -10.752   9.957  67.206  1.00  0.00    -0.265 OA 
HETATM    2  N   UNL     1     -10.919   8.794  67.975  1.00  0.00    -0.480 N  
HETATM    3  H   UNL     1     -10.837   9.918  66.260  1.00  0.00     0.000 HD 
HETATM    4  C   UNL     1     -10.797   8.850  69.334  1.00  0.00    -0.119 C  
HETATM    5  H   UNL     1     -11.132   7.908  67.518  1.00  0.00     0.000 HD 
HETATM    6  O   UNL     1     -10.961   7.837  70.012  1.00  0.00    -0.249 OA 
ENDROOT
BRANCH   4   7
HETATM    7  C   UNL     1     -10.451  10.206  69.916  1.00  0.00    -0.322 C  
BRANCH   7   8
HETATM    8  C   UNL     1     -11.672  10.903  70.509  1.00  0.00    -0.441 C  
BRANCH   8   9
HETATM    9  C   UNL     1     -12.096  12.091  69.652  1.00  0.00    -0.295 C  
BRANCH   9  10
HETATM   10  C   UNL     1     -12.067  13.396  70.453  1.00  0.00    -0.405 C  
BRANCH  10  11
HETATM   11  C   UNL     1     -11.719  14.550  69.527  1.00  0.00    -0.361 C  
BRANCH  11  12
HETATM   12  C   UNL     1     -11.818  14.211  68.037  1.00  0.00    -0.400 C  
BRANCH  12  13
HETATM   13  C   UNL     1     -11.152  15.326  67.246  1.00  0.00    -0.325 C  
HETATM   14  N   UNL     1     -10.783  16.420  68.009  1.00  0.00    -0.324 N  
HETATM   15  O   UNL     1     -10.963  15.207  66.036  1.00  0.00    -0.331 OA 
HETATM   16  H   UNL     1     -11.001  16.402  69.005  1.00  0.00     0.000 HD 
BRANCH  14  17
HETATM   17  C   UNL     1     -10.121  17.562  67.495  1.00  0.00    -0.326 A  
HETATM   18  C   UNL     1      -8.729  17.646  67.385  1.00  0.00    -0.235 A  
HETATM   19  C   UNL     1      -8.108  18.827  66.978  1.00  0.00    -0.266 A  
HETATM   20  C   UNL     1      -8.878  19.935  66.649  1.00  0.00    -0.429 A  
HETATM   21  C   UNL     1     -10.269  19.848  66.696  1.00  0.00    -0.609 A  
HETATM   22  C   UNL     1     -10.891  18.662  67.106  1.00  0.00    -0.341 A  
ENDBRANCH  14  17
ENDBRANCH  12  13
ENDBRANCH  11  12
ENDBRANCH  10  11
ENDBRANCH   9  10
ENDBRANCH   8   9
ENDBRANCH   7   8
ENDBRANCH   4   7
TORSDOF 8
ENDMDL
MODEL      112
REMARK 921   NORMALIZED FREE ENERGY PREDICTED BY IDOCK:   -4.37 KCAL/MOL
REMARK 922        TOTAL FREE ENERGY PREDICTED BY IDOCK:   -7.20 KCAL/MOL
REMARK 923 INTER-LIGAND FREE ENERGY PREDICTED BY IDOCK:   -6.86 KCAL/MOL
REMARK 924 INTRA-LIGAND FREE ENERGY PREDICTED BY IDOCK:   -0.34 KCAL/MOL
REMARK 927      BINDING AFFINITY PREDICTED BY RF-SCORE:    0.00 PKD
ROOT
HETATM    1  O   UNL     1      -8.783   8.761  72.390  1.00  0.00    -0.392 OA 
HETATM    2  N   UNL     1      -9.566   7.704  71.901  1.00  0.00    -0.150 N  
HETATM    3  H   UNL     1      -7.929   8.584  72.770  1.00  0.00     0.000 HD 
HETATM    4  C   UNL     1     -10.792   7.958  71.355  1.00  0.00    -0.226 C  
HETATM    5  H   UNL     1      -9.220   6.747  71.952  1.00  0.00     0.000 HD 
HETATM    6  O   UNL     1     -11.473   7.037  70.908  1.00  0.00    -0.277 OA 
ENDROOT
BRANCH   4   7
HETATM    7  C   UNL     1     -11.231   9.409  71.350  1.00  0.00    -0.452 C  
BRANCH   7   8
HETATM    8  C   UNL     1     -10.796  10.134  70.079  1.00  0.00    -0.361 C  
BRANCH   8   9
HETATM    9  C   UNL     1     -11.965  10.881  69.447  1.00  0.00    -0.393 C  
BRANCH   9  10
HETATM   10  C   UNL     1     -11.567  11.512  68.109  1.00  0.00    -0.378 C  
BRANCH  10  11
HETATM   11  C   UNL     1     -11.800  13.013  68.167  1.00  0.00    -0.381 C  
BRANCH  11  12
HETATM   12  C   UNL     1     -10.518  13.843  68.271  1.00  0.00    -0.252 C  
BRANCH  12  13
HETATM   13  C   UNL     1     -10.892  15.315  68.200  1.00  0.00    -0.273 C  
HETATM   14  N   UNL     1      -9.938  16.114  67.594  1.00  0.00    -0.238 N  
HETATM   15  O   UNL     1     -11.973  15.707  68.639  1.00  0.00    -0.336 OA 
HETATM   16  H   UNL     1      -9.077  15.670  67.275  1.00  0.00     0.000 HD 
BRANCH  14  17
HETATM   17  C   UNL     1     -10.081  17.508  67.389  1.00  0.00    -0.325 A  
HETATM   18  C   UNL     1     -10.375  18.064  66.139  1.00  0.00    -0.368 A  
HETATM   19  C   UNL     1     -10.399  19.446  65.953  1.00  0.00    -0.536 A  
HETATM   20  C   UNL     1     -10.154  20.293  67.027  1.00  0.00    -0.567 A  
HETATM   21  C   UNL     1      -9.920  19.754  68.291  1.00  0.00    -0.557 A  
HETATM   22  C   UNL     1      -9.895  18.366  68.477  1.00  0.00    -0.402 A  
ENDBRANCH  14  17
ENDBRANCH  12  13
ENDBRANCH  11  12
ENDBRANCH  10  11
ENDBRANCH   9  10
ENDBRANCH   8   9
ENDBRANCH   7   8
ENDBRANCH   4   7
TORSDOF 8
ENDMDL
MODEL      113
REMARK 921   NORMALIZED FREE ENERGY PREDICTED BY IDOCK:   -4.35 KCAL/MOL
REMARK 922        TOTAL FREE ENERGY PREDICTED BY IDOCK:   -7.17 KCAL/MOL
REMARK 923 INTER-LIGAND FREE ENERGY PREDICTED BY IDOCK:   -6.42 KCAL/MOL
REMARK 924 INTRA-LIGAND FREE ENERGY PREDICTED BY IDOCK:   -0.76 KCAL/MOL
REMARK 927      BINDING AFFINITY PREDICTED BY RF-SCORE:    0.00 PKD
ROOT
HETATM    1  O   UNL     1      -5.484  19.401  72.154  1.00  0.00    -0.526 OA 
HETATM    2  N   UNL     1      -6.009  20.170  71.103  1.00  0.00    -0.448 N  
HETATM    3  H   UNL     1      -5.330  19.798  73.003  1.00  0.00     0.000 HD 
HETATM    4  C   UNL     1      -6.230  19.600  69.882  1.00  0.00    -0.321 C  
HETATM    5  H   UNL     1      -6.226  21.155  71.253  1.00  0.00     0.000 HD 
HETATM    6  O   UNL     1      -6.707  20.266  68.966  1.00  0.00    -0.279 OA 
ENDROOT
BRANCH   4   7
HETATM    7  C   UNL     1      -5.848  18.138  69.752  1.00  0.00    -0.241 C  
BRANCH   7   8
HETATM    8  C   UNL     1      -5.497  17.764  68.314  1.00  0.00    -0.154 C  
BRANCH   8   9
HETATM    9  C   UNL     1      -6.642  17.008  67.649  1.00  0.00    -0.163 C  
BRANCH   9  10
HETATM   10  C   UNL     1      -7.187  17.771  66.438  1.00  0.00    -0.308 C  
BRANCH  10  11
HETATM   11  C   UNL     1      -8.638  18.149  66.689  1.00  0.00    -0.284 C  
BRANCH  11  12
HETATM   12  C   UNL     1      -9.209  17.609  68.003  1.00  0.00    -0.271 C  
BRANCH  12  13
HETATM   13  C   UNL     1     -10.301  16.603  67.674  1.00  0.00    -0.305 C  
HETATM   14  N   UNL     1     -10.050  15.844  66.544  1.00  0.00    -0.270 N  
HETATM   15  O   UNL     1     -11.292  16.499  68.395  1.00  0.00    -0.348 OA 
HETATM   16  H   UNL     1      -9.193  16.031  66.025  1.00  0.00     0.000 HD 
BRANCH  14  17
HETATM   17  C   UNL     1     -10.910  14.826  66.063  1.00  0.00    -0.318 A  
HETATM   18  C   UNL     1     -11.173  13.654  66.780  1.00  0.00    -0.327 A  
HETATM   19  C   UNL     1     -11.935  12.626  66.227  1.00  0.00    -0.439 A  
HETATM   20  C   UNL     1     -12.469  12.770  64.952  1.00  0.00    -0.563 A  
HETATM   21  C   UNL     1     -12.267  13.956  64.249  1.00  0.00    -0.447 A  
HETATM   22  C   UNL     1     -11.500  14.988  64.805  1.00  0.00    -0.403 A  
ENDBRANCH  14  17
ENDBRANCH  12  13
ENDBRANCH  11  12
ENDBRANCH  10  11
ENDBRANCH   9  10
ENDBRANCH   8   9
ENDBRANCH   7   8
ENDBRANCH   4   7
TORSDOF 8
ENDMDL
MODEL      114
REMARK 921   NORMALIZED FREE ENERGY PREDICTED BY IDOCK:   -4.35 KCAL/MOL
REMARK 922        TOTAL FREE ENERGY PREDICTED BY IDOCK:   -7.17 KCAL/MOL
REMARK 923 INTER-LIGAND FREE ENERGY PREDICTED BY IDOCK:   -6.27 KCAL/MOL
REMARK 924 INTRA-LIGAND FREE ENERGY PREDICTED BY IDOCK:   -0.90 KCAL/MOL
REMARK 927      BINDING AFFINITY PREDICTED BY RF-SCORE:    0.00 PKD
ROOT
HETATM    1  O   UNL     1     -12.441  15.529  68.951  1.00  0.00    -0.590 OA 
HETATM    2  N   UNL     1     -12.456  14.142  69.163  1.00  0.00    -0.497 N  
HETATM    3  H   UNL     1     -12.719  16.119  69.642  1.00  0.00     0.000 HD 
HETATM    4  C   UNL     1     -12.055  13.294  68.171  1.00  0.00    -0.211 C  
HETATM    5  H   UNL     1     -12.766  13.767  70.060  1.00  0.00     0.000 HD 
HETATM    6  O   UNL     1     -12.049  12.079  68.360  1.00  0.00    -0.412 OA 
ENDROOT
BRANCH   4   7
HETATM    7  C   UNL     1     -11.638  13.945  66.867  1.00  0.00    -0.400 C  
BRANCH   7   8
HETATM    8  C   UNL     1     -12.511  13.497  65.698  1.00  0.00    -0.528 C  
BRANCH   8   9
HETATM    9  C   UNL     1     -12.103  14.197  64.408  1.00  0.00    -0.486 C  
BRANCH   9  10
HETATM   10  C   UNL     1     -12.151  13.241  63.213  1.00  0.00    -0.407 C  
BRANCH  10  11
HETATM   11  C   UNL     1     -11.617  11.880  63.631  1.00  0.00    -0.559 C  
BRANCH  11  12
HETATM   12  C   UNL     1     -10.135  11.664  63.317  1.00  0.00    -0.454 C  
BRANCH  12  13
HETATM   13  C   UNL     1      -9.491  10.958  64.500  1.00  0.00    -0.244 C  
HETATM   14  N   UNL     1      -9.144  11.801  65.542  1.00  0.00    -0.415 N  
HETATM   15  O   UNL     1      -9.334   9.738  64.489  1.00  0.00    -0.261 OA 
HETATM   16  H   UNL     1      -9.321  12.799  65.427  1.00  0.00     0.000 HD 
BRANCH  14  17
HETATM   17  C   UNL     1      -8.561  11.365  66.757  1.00  0.00    -0.166 A  
HETATM   18  C   UNL     1      -9.283  10.687  67.745  1.00  0.00    -0.151 A  
HETATM   19  C   UNL     1      -8.703  10.372  68.973  1.00  0.00    -0.170 A  
HETATM   20  C   UNL     1      -7.378  10.709  69.219  1.00  0.00    -0.119 A  
HETATM   21  C   UNL     1      -6.628  11.331  68.222  1.00  0.00    -0.058 A  
HETATM   22  C   UNL     1      -7.211  11.648  66.990  1.00  0.00    -0.143 A  
ENDBRANCH  14  17
ENDBRANCH  12  13
ENDBRANCH  11  12
ENDBRANCH  10  11
ENDBRANCH   9  10
ENDBRANCH   8   9
ENDBRANCH   7   8
ENDBRANCH   4   7
TORSDOF 8
ENDMDL
MODEL      115
REMARK 921   NORMALIZED FREE ENERGY PREDICTED BY IDOCK:   -4.33 KCAL/MOL
REMARK 922        TOTAL FREE ENERGY PREDICTED BY IDOCK:   -7.14 KCAL/MOL
REMARK 923 INTER-LIGAND FREE ENERGY PREDICTED BY IDOCK:   -6.62 KCAL/MOL
REMARK 924 INTRA-LIGAND FREE ENERGY PREDICTED BY IDOCK:   -0.52 KCAL/MOL
REMARK 927      BINDING AFFINITY PREDICTED BY RF-SCORE:    0.00 PKD
ROOT
HETATM    1  O   UNL     1     -12.574  11.420  62.815  1.00  0.00    -0.952 OA 
HETATM    2  N   UNL     1     -11.949  12.632  63.148  1.00  0.00    -0.712 N  
HETATM    3  H   UNL     1     -13.278  11.407  62.177  1.00  0.00     0.000 HD 
HETATM    4  C   UNL     1     -10.937  12.651  64.065  1.00  0.00    -0.406 C  
HETATM    5  H   UNL     1     -12.251  13.499  62.704  1.00  0.00     0.000 HD 
HETATM    6  O   UNL     1     -10.376  13.708  64.345  1.00  0.00    -0.428 OA 
ENDROOT
BRANCH   4   7
HETATM    7  C   UNL     1     -10.580  11.316  64.689  1.00  0.00    -0.392 C  
BRANCH   7   8
HETATM    8  C   UNL     1      -9.146  10.901  64.372  1.00  0.00    -0.175 C  
BRANCH   8   9
HETATM    9  C   UNL     1      -9.019   9.384  64.294  1.00  0.00    -0.204 C  
BRANCH   9  10
HETATM   10  C   UNL     1      -8.049   8.849  65.351  1.00  0.00    -0.119 C  
BRANCH  10  11
HETATM   11  C   UNL     1      -8.780   7.876  66.263  1.00  0.00    -0.174 C  
BRANCH  11  12
HETATM   12  C   UNL     1      -8.538   8.112  67.756  1.00  0.00    -0.131 C  
BRANCH  12  13
HETATM   13  C   UNL     1      -9.840   8.581  68.386  1.00  0.00    -0.173 C  
HETATM   14  N   UNL     1     -10.100   8.027  69.627  1.00  0.00    -0.194 N  
HETATM   15  O   UNL     1     -10.553   9.401  67.809  1.00  0.00    -0.252 OA 
HETATM   16  H   UNL     1      -9.433   7.351  69.997  1.00  0.00     0.000 HD 
BRANCH  14  17
HETATM   17  C   UNL     1     -11.236   8.338  70.414  1.00  0.00    -0.219 A  
HETATM   18  C   UNL     1     -11.509   9.631  70.874  1.00  0.00    -0.427 A  
HETATM   19  C   UNL     1     -12.575   9.879  71.738  1.00  0.00    -0.506 A  
HETATM   20  C   UNL     1     -13.401   8.835  72.134  1.00  0.00    -0.465 A  
HETATM   21  C   UNL     1     -13.179   7.552  71.637  1.00  0.00    -0.404 A  
HETATM   22  C   UNL     1     -12.107   7.304  70.770  1.00  0.00    -0.284 A  
ENDBRANCH  14  17
ENDBRANCH  12  13
ENDBRANCH  11  12
ENDBRANCH  10  11
ENDBRANCH   9  10
ENDBRANCH   8   9
ENDBRANCH   7   8
ENDBRANCH   4   7
TORSDOF 8
ENDMDL
MODEL      116
REMARK 921   NORMALIZED FREE ENERGY PREDICTED BY IDOCK:   -4.32 KCAL/MOL
REMARK 922        TOTAL FREE ENERGY PREDICTED BY IDOCK:   -7.13 KCAL/MOL
REMARK 923 INTER-LIGAND FREE ENERGY PREDICTED BY IDOCK:   -6.42 KCAL/MOL
REMARK 924 INTRA-LIGAND FREE ENERGY PREDICTED BY IDOCK:   -0.71 KCAL/MOL
REMARK 927      BINDING AFFINITY PREDICTED BY RF-SCORE:    0.00 PKD
ROOT
HETATM    1  O   UNL     1     -10.140  12.831  63.502  1.00  0.00    -0.632 OA 
HETATM    2  N   UNL     1      -9.616  12.294  64.688  1.00  0.00    -0.467 N  
HETATM    3  H   UNL     1      -9.569  12.993  62.760  1.00  0.00     0.000 HD 
HETATM    4  C   UNL     1     -10.437  12.061  65.754  1.00  0.00    -0.254 C  
HETATM    5  H   UNL     1      -8.622  12.078  64.754  1.00  0.00     0.000 HD 
HETATM    6  O   UNL     1      -9.984  11.573  66.788  1.00  0.00    -0.202 OA 
ENDROOT
BRANCH   4   7
HETATM    7  C   UNL     1     -11.893  12.441  65.569  1.00  0.00    -0.469 C  
BRANCH   7   8
HETATM    8  C   UNL     1     -12.195  13.833  66.117  1.00  0.00    -0.499 C  
BRANCH   8   9
HETATM    9  C   UNL     1     -11.971  13.890  67.624  1.00  0.00    -0.403 C  
BRANCH   9  10
HETATM   10  C   UNL     1     -11.341  15.220  68.046  1.00  0.00    -0.345 C  
BRANCH  10  11
HETATM   11  C   UNL     1     -10.358  15.676  66.979  1.00  0.00    -0.289 C  
BRANCH  11  12
HETATM   12  C   UNL     1      -8.931  15.160  67.180  1.00  0.00    -0.231 C  
BRANCH  12  13
HETATM   13  C   UNL     1      -7.978  16.344  67.113  1.00  0.00    -0.183 C  
HETATM   14  N   UNL     1      -8.449  17.485  67.740  1.00  0.00    -0.222 N  
HETATM   15  O   UNL     1      -6.887  16.237  66.557  1.00  0.00    -0.215 OA 
HETATM   16  H   UNL     1      -9.376  17.449  68.162  1.00  0.00     0.000 HD 
BRANCH  14  17
HETATM   17  C   UNL     1      -7.723  18.698  67.832  1.00  0.00    -0.256 A  
HETATM   18  C   UNL     1      -7.660  19.625  66.787  1.00  0.00    -0.274 A  
HETATM   19  C   UNL     1      -6.847  20.755  66.873  1.00  0.00    -0.368 A  
HETATM   20  C   UNL     1      -6.103  20.985  68.024  1.00  0.00    -0.398 A  
HETATM   21  C   UNL     1      -6.202  20.102  69.098  1.00  0.00    -0.360 A  
HETATM   22  C   UNL     1      -7.018  18.967  69.009  1.00  0.00    -0.354 A  
ENDBRANCH  14  17
ENDBRANCH  12  13
ENDBRANCH  11  12
ENDBRANCH  10  11
ENDBRANCH   9  10
ENDBRANCH   8   9
ENDBRANCH   7   8
ENDBRANCH   4   7
TORSDOF 8
ENDMDL
MODEL      117
REMARK 921   NORMALIZED FREE ENERGY PREDICTED BY IDOCK:   -4.32 KCAL/MOL
REMARK 922        TOTAL FREE ENERGY PREDICTED BY IDOCK:   -7.13 KCAL/MOL
REMARK 923 INTER-LIGAND FREE ENERGY PREDICTED BY IDOCK:   -6.45 KCAL/MOL
REMARK 924 INTRA-LIGAND FREE ENERGY PREDICTED BY IDOCK:   -0.68 KCAL/MOL
REMARK 927      BINDING AFFINITY PREDICTED BY RF-SCORE:    0.00 PKD
ROOT
HETATM    1  O   UNL     1      -6.554  13.879  70.800  1.00  0.00    -0.413 OA 
HETATM    2  N   UNL     1      -6.940  13.347  69.560  1.00  0.00    -0.321 N  
HETATM    3  H   UNL     1      -6.523  13.320  71.568  1.00  0.00     0.000 HD 
HETATM    4  C   UNL     1      -6.984  14.149  68.456  1.00  0.00    -0.104 C  
HETATM    5  H   UNL     1      -7.187  12.360  69.484  1.00  0.00     0.000 HD 
HETATM    6  O   UNL     1      -7.304  13.682  67.364  1.00  0.00    -0.171 OA 
ENDROOT
BRANCH   4   7
HETATM    7  C   UNL     1      -6.626  15.605  68.676  1.00  0.00    -0.110 C  
BRANCH   7   8
HETATM    8  C   UNL     1      -6.599  16.393  67.369  1.00  0.00    -0.204 C  
BRANCH   8   9
HETATM    9  C   UNL     1      -7.717  17.428  67.329  1.00  0.00    -0.221 C  
BRANCH   9  10
HETATM   10  C   UNL     1      -8.810  17.032  66.332  1.00  0.00    -0.313 C  
BRANCH  10  11
HETATM   11  C   UNL     1      -9.914  16.284  67.062  1.00  0.00    -0.255 C  
BRANCH  11  12
HETATM   12  C   UNL     1     -10.486  17.031  68.269  1.00  0.00    -0.363 C  
BRANCH  12  13
HETATM   13  C   UNL     1     -10.833  16.012  69.345  1.00  0.00    -0.300 C  
HETATM   14  N   UNL     1     -12.191  15.811  69.517  1.00  0.00    -0.489 N  
HETATM   15  O   UNL     1      -9.943  15.430  69.963  1.00  0.00    -0.271 OA 
HETATM   16  H   UNL     1     -12.831  16.362  68.946  1.00  0.00     0.000 HD 
BRANCH  14  17
HETATM   17  C   UNL     1     -12.747  14.889  70.438  1.00  0.00    -0.321 A  
HETATM   18  C   UNL     1     -13.750  15.239  71.349  1.00  0.00    -0.602 A  
HETATM   19  C   UNL     1     -14.194  14.335  72.313  1.00  0.00    -0.587 A  
HETATM   20  C   UNL     1     -13.657  13.054  72.361  1.00  0.00    -0.628 A  
HETATM   21  C   UNL     1     -12.701  12.671  71.421  1.00  0.00    -0.347 A  
HETATM   22  C   UNL     1     -12.255  13.581  70.454  1.00  0.00    -0.426 A  
ENDBRANCH  14  17
ENDBRANCH  12  13
ENDBRANCH  11  12
ENDBRANCH  10  11
ENDBRANCH   9  10
ENDBRANCH   8   9
ENDBRANCH   7   8
ENDBRANCH   4   7
TORSDOF 8
ENDMDL
MODEL      118
REMARK 921   NORMALIZED FREE ENERGY PREDICTED BY IDOCK:   -4.30 KCAL/MOL
REMARK 922        TOTAL FREE ENERGY PREDICTED BY IDOCK:   -7.10 KCAL/MOL
REMARK 923 INTER-LIGAND FREE ENERGY PREDICTED BY IDOCK:   -6.50 KCAL/MOL
REMARK 924 INTRA-LIGAND FREE ENERGY PREDICTED BY IDOCK:   -0.60 KCAL/MOL
REMARK 927      BINDING AFFINITY PREDICTED BY RF-SCORE:    0.00 PKD
ROOT
HETATM    1  O   UNL     1     -11.877  16.516  70.792  1.00  0.00    -0.488 OA 
HETATM    2  N   UNL     1     -11.914  16.519  72.195  1.00  0.00    -0.636 N  
HETATM    3  H   UNL     1     -11.141  16.907  70.335  1.00  0.00     0.000 HD 
HETATM    4  C   UNL     1     -12.971  15.957  72.853  1.00  0.00    -0.499 C  
HETATM    5  H   UNL     1     -11.151  16.942  72.724  1.00  0.00     0.000 HD 
HETATM    6  O   UNL     1     -12.997  15.942  74.082  1.00  0.00    -0.576 OA 
ENDROOT
BRANCH   4   7
HETATM    7  C   UNL     1     -14.068  15.381  71.980  1.00  0.00    -0.647 C  
BRANCH   7   8
HETATM    8  C   UNL     1     -14.334  13.911  72.291  1.00  0.00    -0.502 C  
BRANCH   8   9
HETATM    9  C   UNL     1     -13.274  13.016  71.660  1.00  0.00    -0.426 C  
BRANCH   9  10
HETATM   10  C   UNL     1     -13.391  11.573  72.161  1.00  0.00    -0.284 C  
BRANCH  10  11
HETATM   11  C   UNL     1     -13.190  10.615  70.997  1.00  0.00    -0.267 C  
BRANCH  11  12
HETATM   12  C   UNL     1     -11.814   9.945  70.967  1.00  0.00    -0.463 C  
BRANCH  12  13
HETATM   13  C   UNL     1     -11.158  10.254  69.630  1.00  0.00    -0.274 C  
HETATM   14  N   UNL     1     -10.963  11.603  69.394  1.00  0.00    -0.409 N  
HETATM   15  O   UNL     1     -10.830   9.344  68.870  1.00  0.00    -0.204 OA 
HETATM   16  H   UNL     1     -11.286  12.263  70.102  1.00  0.00     0.000 HD 
BRANCH  14  17
HETATM   17  C   UNL     1     -10.343  12.126  68.232  1.00  0.00    -0.212 A  
HETATM   18  C   UNL     1     -10.851  11.921  66.945  1.00  0.00    -0.305 A  
HETATM   19  C   UNL     1     -10.154  12.356  65.818  1.00  0.00    -0.273 A  
HETATM   20  C   UNL     1      -8.948  13.029  65.967  1.00  0.00     0.293 A  
HETATM   21  C   UNL     1      -8.460  13.295  67.246  1.00  0.00    -0.203 A  
HETATM   22  C   UNL     1      -9.159  12.856  68.377  1.00  0.00    -0.126 A  
ENDBRANCH  14  17
ENDBRANCH  12  13
ENDBRANCH  11  12
ENDBRANCH  10  11
ENDBRANCH   9  10
ENDBRANCH   8   9
ENDBRANCH   7   8
ENDBRANCH   4   7
TORSDOF 8
ENDMDL
MODEL      119
REMARK 921   NORMALIZED FREE ENERGY PREDICTED BY IDOCK:   -4.30 KCAL/MOL
REMARK 922        TOTAL FREE ENERGY PREDICTED BY IDOCK:   -7.10 KCAL/MOL
REMARK 923 INTER-LIGAND FREE ENERGY PREDICTED BY IDOCK:   -6.59 KCAL/MOL
REMARK 924 INTRA-LIGAND FREE ENERGY PREDICTED BY IDOCK:   -0.51 KCAL/MOL
REMARK 927      BINDING AFFINITY PREDICTED BY RF-SCORE:    0.00 PKD
ROOT
HETATM    1  O   UNL     1     -11.887  15.164  63.724  1.00  0.00    -0.813 OA 
HETATM    2  N   UNL     1     -12.550  14.004  63.293  1.00  0.00    -1.005 N  
HETATM    3  H   UNL     1     -11.874  15.937  63.172  1.00  0.00     0.000 HD 
HETATM    4  C   UNL     1     -12.570  12.892  64.087  1.00  0.00    -0.262 C  
HETATM    5  H   UNL     1     -13.017  13.991  62.387  1.00  0.00     0.000 HD 
HETATM    6  O   UNL     1     -13.165  11.881  63.720  1.00  0.00    -0.655 OA 
ENDROOT
BRANCH   4   7
HETATM    7  C   UNL     1     -11.824  13.000  65.402  1.00  0.00    -0.428 C  
BRANCH   7   8
HETATM    8  C   UNL     1     -10.419  12.410  65.314  1.00  0.00    -0.316 C  
BRANCH   8   9
HETATM    9  C   UNL     1     -10.278  11.194  66.222  1.00  0.00    -0.286 C  
BRANCH   9  10
HETATM   10  C   UNL     1      -9.330  11.478  67.392  1.00  0.00    -0.168 C  
BRANCH  10  11
HETATM   11  C   UNL     1      -8.440  12.661  67.047  1.00  0.00    -0.150 C  
BRANCH  11  12
HETATM   12  C   UNL     1      -8.660  13.890  67.933  1.00  0.00    -0.180 C  
BRANCH  12  13
HETATM   13  C   UNL     1      -8.557  15.133  67.062  1.00  0.00    -0.237 C  
HETATM   14  N   UNL     1      -7.700  16.101  67.556  1.00  0.00    -0.137 N  
HETATM   15  O   UNL     1      -9.188  15.211  66.008  1.00  0.00    -0.301 OA 
HETATM   16  H   UNL     1      -7.239  15.920  68.447  1.00  0.00     0.000 HD 
BRANCH  14  17
HETATM   17  C   UNL     1      -7.424  17.327  66.902  1.00  0.00    -0.207 A  
HETATM   18  C   UNL     1      -8.343  18.380  66.844  1.00  0.00    -0.261 A  
HETATM   19  C   UNL     1      -8.078  19.528  66.097  1.00  0.00    -0.342 A  
HETATM   20  C   UNL     1      -6.872  19.647  65.417  1.00  0.00    -0.303 A  
HETATM   21  C   UNL     1      -5.921  18.633  65.515  1.00  0.00    -0.268 A  
HETATM   22  C   UNL     1      -6.189  17.480  66.264  1.00  0.00    -0.267 A  
ENDBRANCH  14  17
ENDBRANCH  12  13
ENDBRANCH  11  12
ENDBRANCH  10  11
ENDBRANCH   9  10
ENDBRANCH   8   9
ENDBRANCH   7   8
ENDBRANCH   4   7
TORSDOF 8
ENDMDL
MODEL      120
REMARK 921   NORMALIZED FREE ENERGY PREDICTED BY IDOCK:   -4.30 KCAL/MOL
REMARK 922        TOTAL FREE ENERGY PREDICTED BY IDOCK:   -7.10 KCAL/MOL
REMARK 923 INTER-LIGAND FREE ENERGY PREDICTED BY IDOCK:   -6.55 KCAL/MOL
REMARK 924 INTRA-LIGAND FREE ENERGY PREDICTED BY IDOCK:   -0.54 KCAL/MOL
REMARK 927      BINDING AFFINITY PREDICTED BY RF-SCORE:    0.00 PKD
ROOT
HETATM    1  O   UNL     1     -11.357   8.941  72.157  1.00  0.00    -0.356 OA 
HETATM    2  N   UNL     1     -11.764   7.717  72.713  1.00  0.00    -0.584 N  
HETATM    3  H   UNL     1     -11.600   9.758  72.576  1.00  0.00     0.000 HD 
HETATM    4  C   UNL     1     -11.414   6.543  72.111  1.00  0.00    -0.292 C  
HETATM    5  H   UNL     1     -12.321   7.706  73.567  1.00  0.00     0.000 HD 
HETATM    6  O   UNL     1     -11.754   5.469  72.605  1.00  0.00    -0.293 OA 
ENDROOT
BRANCH   4   7
HETATM    7  C   UNL     1     -10.610   6.664  70.831  1.00  0.00    -0.263 C  
BRANCH   7   8
HETATM    8  C   UNL     1     -11.484   6.514  69.589  1.00  0.00    -0.417 C  
BRANCH   8   9
HETATM    9  C   UNL     1     -10.693   5.915  68.431  1.00  0.00    -0.323 C  
BRANCH   9  10
HETATM   10  C   UNL     1     -10.836   6.759  67.161  1.00  0.00    -0.462 C  
BRANCH  10  11
HETATM   11  C   UNL     1     -10.275   8.149  67.412  1.00  0.00    -0.327 C  
BRANCH  11  12
HETATM   12  C   UNL     1      -9.237   8.602  66.382  1.00  0.00    -0.245 C  
BRANCH  12  13
HETATM   13  C   UNL     1      -9.475  10.072  66.074  1.00  0.00    -0.197 C  
HETATM   14  N   UNL     1     -10.733  10.347  65.566  1.00  0.00    -0.014 N  
HETATM   15  O   UNL     1      -8.599  10.907  66.296  1.00  0.00    -0.153 OA 
HETATM   16  H   UNL     1     -11.370   9.565  65.421  1.00  0.00     0.000 HD 
BRANCH  14  17
HETATM   17  C   UNL     1     -11.190  11.647  65.235  1.00  0.00    -0.199 A  
HETATM   18  C   UNL     1     -11.494  12.612  66.201  1.00  0.00    -0.413 A  
HETATM   19  C   UNL     1     -12.047  13.841  65.842  1.00  0.00    -0.464 A  
HETATM   20  C   UNL     1     -12.277  14.131  64.503  1.00  0.00    -0.468 A  
HETATM   21  C   UNL     1     -11.923  13.204  63.525  1.00  0.00    -0.580 A  
HETATM   22  C   UNL     1     -11.370  11.969  63.887  1.00  0.00    -0.503 A  
ENDBRANCH  14  17
ENDBRANCH  12  13
ENDBRANCH  11  12
ENDBRANCH  10  11
ENDBRANCH   9  10
ENDBRANCH   8   9
ENDBRANCH   7   8
ENDBRANCH   4   7
TORSDOF 8
ENDMDL
MODEL      121
REMARK 921   NORMALIZED FREE ENERGY PREDICTED BY IDOCK:   -4.29 KCAL/MOL
REMARK 922        TOTAL FREE ENERGY PREDICTED BY IDOCK:   -7.09 KCAL/MOL
REMARK 923 INTER-LIGAND FREE ENERGY PREDICTED BY IDOCK:   -6.27 KCAL/MOL
REMARK 924 INTRA-LIGAND FREE ENERGY PREDICTED BY IDOCK:   -0.82 KCAL/MOL
REMARK 927      BINDING AFFINITY PREDICTED BY RF-SCORE:    0.00 PKD
ROOT
HETATM    1  O   UNL     1     -11.941  15.120  64.074  1.00  0.00    -0.848 OA 
HETATM    2  N   UNL     1     -12.393  14.037  63.303  1.00  0.00    -1.145 N  
HETATM    3  H   UNL     1     -11.941  15.997  63.708  1.00  0.00     0.000 HD 
HETATM    4  C   UNL     1     -12.394  12.777  63.829  1.00  0.00    -0.446 C  
HETATM    5  H   UNL     1     -12.721  14.193  62.350  1.00  0.00     0.000 HD 
HETATM    6  O   UNL     1     -12.807  11.829  63.163  1.00  0.00    -0.571 OA 
ENDROOT
BRANCH   4   7
HETATM    7  C   UNL     1     -11.862  12.645  65.242  1.00  0.00    -0.452 C  
BRANCH   7   8
HETATM    8  C   UNL     1     -10.431  12.112  65.268  1.00  0.00    -0.311 C  
BRANCH   8   9
HETATM    9  C   UNL     1     -10.411  10.606  65.502  1.00  0.00    -0.297 C  
BRANCH   9  10
HETATM   10  C   UNL     1      -9.201  10.188  66.343  1.00  0.00    -0.190 C  
BRANCH  10  11
HETATM   11  C   UNL     1      -8.237  11.358  66.459  1.00  0.00    -0.152 C  
BRANCH  11  12
HETATM   12  C   UNL     1      -7.382  11.342  67.729  1.00  0.00    -0.094 C  
BRANCH  12  13
HETATM   13  C   UNL     1      -7.163  12.778  68.179  1.00  0.00    -0.115 C  
HETATM   14  N   UNL     1      -7.682  13.727  67.315  1.00  0.00    -0.331 N  
HETATM   15  O   UNL     1      -6.588  13.020  69.239  1.00  0.00    -0.107 OA 
HETATM   16  H   UNL     1      -8.133  13.399  66.461  1.00  0.00     0.000 HD 
BRANCH  14  17
HETATM   17  C   UNL     1      -7.625  15.125  67.541  1.00  0.00    -0.192 A  
HETATM   18  C   UNL     1      -6.499  15.897  67.236  1.00  0.00    -0.174 A  
HETATM   19  C   UNL     1      -6.439  17.248  67.575  1.00  0.00    -0.161 A  
HETATM   20  C   UNL     1      -7.522  17.853  68.203  1.00  0.00    -0.250 A  
HETATM   21  C   UNL     1      -8.674  17.111  68.458  1.00  0.00    -0.261 A  
HETATM   22  C   UNL     1      -8.732  15.753  68.119  1.00  0.00    -0.173 A  
ENDBRANCH  14  17
ENDBRANCH  12  13
ENDBRANCH  11  12
ENDBRANCH  10  11
ENDBRANCH   9  10
ENDBRANCH   8   9
ENDBRANCH   7   8
ENDBRANCH   4   7
TORSDOF 8
ENDMDL
MODEL      122
REMARK 921   NORMALIZED FREE ENERGY PREDICTED BY IDOCK:   -4.27 KCAL/MOL
REMARK 922        TOTAL FREE ENERGY PREDICTED BY IDOCK:   -7.06 KCAL/MOL
REMARK 923 INTER-LIGAND FREE ENERGY PREDICTED BY IDOCK:   -6.35 KCAL/MOL
REMARK 924 INTRA-LIGAND FREE ENERGY PREDICTED BY IDOCK:   -0.71 KCAL/MOL
REMARK 927      BINDING AFFINITY PREDICTED BY RF-SCORE:    0.00 PKD
ROOT
HETATM    1  O   UNL     1     -12.316  14.955  67.612  1.00  0.00    -0.493 OA 
HETATM    2  N   UNL     1     -12.768  14.222  66.503  1.00  0.00    -0.433 N  
HETATM    3  H   UNL     1     -12.717  15.789  67.826  1.00  0.00     0.000 HD 
HETATM    4  C   UNL     1     -12.191  13.023  66.194  1.00  0.00    -0.360 C  
HETATM    5  H   UNL     1     -13.527  14.586  65.927  1.00  0.00     0.000 HD 
HETATM    6  O   UNL     1     -12.597  12.370  65.235  1.00  0.00    -0.636 OA 
ENDROOT
BRANCH   4   7
HETATM    7  C   UNL     1     -11.052  12.582  67.092  1.00  0.00    -0.321 C  
BRANCH   7   8
HETATM    8  C   UNL     1      -9.692  12.991  66.535  1.00  0.00    -0.266 C  
BRANCH   8   9
HETATM    9  C   UNL     1      -8.641  13.047  67.638  1.00  0.00    -0.190 C  
BRANCH   9  10
HETATM   10  C   UNL     1      -7.601  11.934  67.476  1.00  0.00    -0.140 C  
BRANCH  10  11
HETATM   11  C   UNL     1      -7.298  11.323  68.834  1.00  0.00    -0.115 C  
BRANCH  11  12
HETATM   12  C   UNL     1      -7.683   9.846  68.958  1.00  0.00    -0.089 C  
BRANCH  12  13
HETATM   13  C   UNL     1      -8.708   9.709  70.074  1.00  0.00    -0.231 C  
HETATM   14  N   UNL     1     -10.007   9.988  69.686  1.00  0.00    -0.225 N  
HETATM   15  O   UNL     1      -8.361   9.355  71.200  1.00  0.00    -0.310 OA 
HETATM   16  H   UNL     1     -10.165  10.277  68.722  1.00  0.00     0.000 HD 
BRANCH  14  17
HETATM   17  C   UNL     1     -11.130   9.896  70.545  1.00  0.00    -0.332 A  
HETATM   18  C   UNL     1     -11.482   8.717  71.209  1.00  0.00    -0.341 A  
HETATM   19  C   UNL     1     -12.656   8.635  71.958  1.00  0.00    -0.434 A  
HETATM   20  C   UNL     1     -13.482   9.746  72.074  1.00  0.00    -0.498 A  
HETATM   21  C   UNL     1     -13.113  10.946  71.468  1.00  0.00    -0.503 A  
HETATM   22  C   UNL     1     -11.935  11.027  70.715  1.00  0.00    -0.436 A  
ENDBRANCH  14  17
ENDBRANCH  12  13
ENDBRANCH  11  12
ENDBRANCH  10  11
ENDBRANCH   9  10
ENDBRANCH   8   9
ENDBRANCH   7   8
ENDBRANCH   4   7
TORSDOF 8
ENDMDL
MODEL      123
REMARK 921   NORMALIZED FREE ENERGY PREDICTED BY IDOCK:   -4.27 KCAL/MOL
REMARK 922        TOTAL FREE ENERGY PREDICTED BY IDOCK:   -7.06 KCAL/MOL
REMARK 923 INTER-LIGAND FREE ENERGY PREDICTED BY IDOCK:   -6.67 KCAL/MOL
REMARK 924 INTRA-LIGAND FREE ENERGY PREDICTED BY IDOCK:   -0.39 KCAL/MOL
REMARK 927      BINDING AFFINITY PREDICTED BY RF-SCORE:    0.00 PKD
ROOT
HETATM    1  O   UNL     1      -9.724   9.299  64.954  1.00  0.00    -0.421 OA 
HETATM    2  N   UNL     1      -9.543   8.155  65.747  1.00  0.00    -0.432 N  
HETATM    3  H   UNL     1      -9.377   9.325  64.069  1.00  0.00     0.000 HD 
HETATM    4  C   UNL     1     -10.041   8.118  67.018  1.00  0.00    -0.280 C  
HETATM    5  H   UNL     1      -9.039   7.351  65.373  1.00  0.00     0.000 HD 
HETATM    6  O   UNL     1      -9.901   7.110  67.708  1.00  0.00    -0.137 OA 
ENDROOT
BRANCH   4   7
HETATM    7  C   UNL     1     -10.750   9.372  67.492  1.00  0.00    -0.290 C  
BRANCH   7   8
HETATM    8  C   UNL     1      -9.813  10.305  68.253  1.00  0.00    -0.161 C  
BRANCH   8   9
HETATM    9  C   UNL     1     -10.327  11.740  68.224  1.00  0.00    -0.217 C  
BRANCH   9  10
HETATM   10  C   UNL     1      -9.552  12.591  67.212  1.00  0.00    -0.205 C  
BRANCH  10  11
HETATM   11  C   UNL     1      -9.458  14.020  67.719  1.00  0.00    -0.209 C  
BRANCH  11  12
HETATM   12  C   UNL     1     -10.586  14.935  67.233  1.00  0.00    -0.272 C  
BRANCH  12  13
HETATM   13  C   UNL     1     -11.189  15.637  68.440  1.00  0.00    -0.352 C  
HETATM   14  N   UNL     1     -11.630  14.778  69.432  1.00  0.00    -0.292 N  
HETATM   15  O   UNL     1     -11.236  16.865  68.489  1.00  0.00    -0.289 OA 
HETATM   16  H   UNL     1     -11.541  13.776  69.270  1.00  0.00     0.000 HD 
BRANCH  14  17
HETATM   17  C   UNL     1     -12.198  15.205  70.658  1.00  0.00    -0.351 A  
HETATM   18  C   UNL     1     -11.543  16.077  71.534  1.00  0.00    -0.529 A  
HETATM   19  C   UNL     1     -12.085  16.387  72.781  1.00  0.00    -0.570 A  
HETATM   20  C   UNL     1     -13.307  15.845  73.158  1.00  0.00    -0.681 A  
HETATM   21  C   UNL     1     -14.001  15.023  72.272  1.00  0.00    -0.611 A  
HETATM   22  C   UNL     1     -13.455  14.711  71.020  1.00  0.00    -0.375 A  
ENDBRANCH  14  17
ENDBRANCH  12  13
ENDBRANCH  11  12
ENDBRANCH  10  11
ENDBRANCH   9  10
ENDBRANCH   8   9
ENDBRANCH   7   8
ENDBRANCH   4   7
TORSDOF 8
ENDMDL
MODEL      124
REMARK 921   NORMALIZED FREE ENERGY PREDICTED BY IDOCK:   -4.27 KCAL/MOL
REMARK 922        TOTAL FREE ENERGY PREDICTED BY IDOCK:   -7.06 KCAL/MOL
REMARK 923 INTER-LIGAND FREE ENERGY PREDICTED BY IDOCK:   -6.39 KCAL/MOL
REMARK 924 INTRA-LIGAND FREE ENERGY PREDICTED BY IDOCK:   -0.66 KCAL/MOL
REMARK 927      BINDING AFFINITY PREDICTED BY RF-SCORE:    0.00 PKD
ROOT
HETATM    1  O   UNL     1     -11.384   9.464  68.620  1.00  0.00    -0.459 OA 
HETATM    2  N   UNL     1     -10.530   9.370  69.731  1.00  0.00    -0.214 N  
HETATM    3  H   UNL     1     -11.020   9.549  67.746  1.00  0.00     0.000 HD 
HETATM    4  C   UNL     1     -11.053   9.248  70.986  1.00  0.00    -0.326 C  
HETATM    5  H   UNL     1      -9.519   9.394  69.599  1.00  0.00     0.000 HD 
HETATM    6  O   UNL     1     -10.308   9.147  71.960  1.00  0.00    -0.307 OA 
ENDROOT
BRANCH   4   7
HETATM    7  C   UNL     1     -12.566   9.251  71.081  1.00  0.00    -0.324 C  
BRANCH   7   8
HETATM    8  C   UNL     1     -13.083  10.395  71.949  1.00  0.00    -0.563 C  
BRANCH   8   9
HETATM    9  C   UNL     1     -12.923  11.736  71.242  1.00  0.00    -0.353 C  
BRANCH   9  10
HETATM   10  C   UNL     1     -13.472  12.885  72.093  1.00  0.00    -0.619 C  
BRANCH  10  11
HETATM   11  C   UNL     1     -12.610  14.121  71.891  1.00  0.00    -0.371 C  
BRANCH  11  12
HETATM   12  C   UNL     1     -13.206  15.151  70.928  1.00  0.00    -0.488 C  
BRANCH  12  13
HETATM   13  C   UNL     1     -12.240  15.341  69.769  1.00  0.00    -0.294 C  
HETATM   14  N   UNL     1     -11.266  16.297  69.994  1.00  0.00    -0.353 N  
HETATM   15  O   UNL     1     -12.347  14.660  68.749  1.00  0.00    -0.165 OA 
HETATM   16  H   UNL     1     -11.287  16.800  70.881  1.00  0.00     0.000 HD 
BRANCH  14  17
HETATM   17  C   UNL     1     -10.241  16.622  69.071  1.00  0.00    -0.301 A  
HETATM   18  C   UNL     1     -10.453  17.452  67.965  1.00  0.00    -0.383 A  
HETATM   19  C   UNL     1      -9.450  17.659  67.018  1.00  0.00    -0.266 A  
HETATM   20  C   UNL     1      -8.209  17.057  67.181  1.00  0.00    -0.214 A  
HETATM   21  C   UNL     1      -7.964  16.276  68.309  1.00  0.00    -0.166 A  
HETATM   22  C   UNL     1      -8.972  16.067  69.259  1.00  0.00    -0.228 A  
ENDBRANCH  14  17
ENDBRANCH  12  13
ENDBRANCH  11  12
ENDBRANCH  10  11
ENDBRANCH   9  10
ENDBRANCH   8   9
ENDBRANCH   7   8
ENDBRANCH   4   7
TORSDOF 8
ENDMDL
MODEL      125
REMARK 921   NORMALIZED FREE ENERGY PREDICTED BY IDOCK:   -4.26 KCAL/MOL
REMARK 922        TOTAL FREE ENERGY PREDICTED BY IDOCK:   -7.05 KCAL/MOL
REMARK 923 INTER-LIGAND FREE ENERGY PREDICTED BY IDOCK:   -5.89 KCAL/MOL
REMARK 924 INTRA-LIGAND FREE ENERGY PREDICTED BY IDOCK:   -1.16 KCAL/MOL
REMARK 927      BINDING AFFINITY PREDICTED BY RF-SCORE:    0.00 PKD
ROOT
HETATM    1  O   UNL     1      -6.183  17.802  68.638  1.00  0.00    -0.184 OA 
HETATM    2  N   UNL     1      -5.357  17.617  67.518  1.00  0.00    -0.127 N  
HETATM    3  H   UNL     1      -5.835  17.673  69.512  1.00  0.00     0.000 HD 
HETATM    4  C   UNL     1      -5.858  17.804  66.261  1.00  0.00    -0.204 C  
HETATM    5  H   UNL     1      -4.383  17.344  67.643  1.00  0.00     0.000 HD 
HETATM    6  O   UNL     1      -5.132  17.661  65.278  1.00  0.00    -0.168 OA 
ENDROOT
BRANCH   4   7
HETATM    7  C   UNL     1      -7.324  18.181  66.177  1.00  0.00    -0.309 C  
BRANCH   7   8
HETATM    8  C   UNL     1      -7.523  19.579  65.598  1.00  0.00    -0.202 C  
BRANCH   8   9
HETATM    9  C   UNL     1      -8.677  20.298  66.287  1.00  0.00    -0.203 C  
BRANCH   9  10
HETATM   10  C   UNL     1     -10.001  19.558  66.081  1.00  0.00    -0.526 C  
BRANCH  10  11
HETATM   11  C   UNL     1     -10.756  19.494  67.398  1.00  0.00    -0.589 C  
BRANCH  11  12
HETATM   12  C   UNL     1      -9.881  19.155  68.608  1.00  0.00    -0.485 C  
BRANCH  12  13
HETATM   13  C   UNL     1      -9.946  17.653  68.842  1.00  0.00    -0.324 C  
HETATM   14  N   UNL     1     -11.214  17.115  68.714  1.00  0.00    -0.163 N  
HETATM   15  O   UNL     1      -8.925  17.016  69.099  1.00  0.00    -0.190 OA 
HETATM   16  H   UNL     1     -11.983  17.751  68.503  1.00  0.00     0.000 HD 
BRANCH  14  17
HETATM   17  C   UNL     1     -11.512  15.737  68.857  1.00  0.00    -0.378 A  
HETATM   18  C   UNL     1     -12.021  15.190  70.039  1.00  0.00    -0.374 A  
HETATM   19  C   UNL     1     -12.197  13.814  70.179  1.00  0.00    -0.425 A  
HETATM   20  C   UNL     1     -11.889  12.966  69.123  1.00  0.00    -0.353 A  
HETATM   21  C   UNL     1     -11.438  13.501  67.917  1.00  0.00    -0.353 A  
HETATM   22  C   UNL     1     -11.260  14.884  67.778  1.00  0.00    -0.329 A  
ENDBRANCH  14  17
ENDBRANCH  12  13
ENDBRANCH  11  12
ENDBRANCH  10  11
ENDBRANCH   9  10
ENDBRANCH   8   9
ENDBRANCH   7   8
ENDBRANCH   4   7
TORSDOF 8
ENDMDL
MODEL      126
REMARK 921   NORMALIZED FREE ENERGY PREDICTED BY IDOCK:   -4.26 KCAL/MOL
REMARK 922        TOTAL FREE ENERGY PREDICTED BY IDOCK:   -7.04 KCAL/MOL
REMARK 923 INTER-LIGAND FREE ENERGY PREDICTED BY IDOCK:   -6.23 KCAL/MOL
REMARK 924 INTRA-LIGAND FREE ENERGY PREDICTED BY IDOCK:   -0.81 KCAL/MOL
REMARK 927      BINDING AFFINITY PREDICTED BY RF-SCORE:    0.00 PKD
ROOT
HETATM    1  O   UNL     1     -12.784  16.048  69.469  1.00  0.00    -0.472 OA 
HETATM    2  N   UNL     1     -12.735  14.696  69.844  1.00  0.00    -0.569 N  
HETATM    3  H   UNL     1     -13.260  16.673  70.004  1.00  0.00     0.000 HD 
HETATM    4  C   UNL     1     -12.053  13.797  69.075  1.00  0.00    -0.322 C  
HETATM    5  H   UNL     1     -13.210  14.385  70.691  1.00  0.00     0.000 HD 
HETATM    6  O   UNL     1     -11.992  12.616  69.410  1.00  0.00    -0.301 OA 
ENDROOT
BRANCH   4   7
HETATM    7  C   UNL     1     -11.405  14.351  67.821  1.00  0.00    -0.331 C  
BRANCH   7   8
HETATM    8  C   UNL     1     -12.196  13.998  66.564  1.00  0.00    -0.485 C  
BRANCH   8   9
HETATM    9  C   UNL     1     -11.450  14.430  65.307  1.00  0.00    -0.350 C  
BRANCH   9  10
HETATM   10  C   UNL     1     -11.621  13.410  64.177  1.00  0.00    -0.440 C  
BRANCH  10  11
HETATM   11  C   UNL     1     -11.716  12.012  64.767  1.00  0.00    -0.342 C  
BRANCH  11  12
HETATM   12  C   UNL     1     -10.433  11.187  64.637  1.00  0.00    -0.400 C  
BRANCH  12  13
HETATM   13  C   UNL     1     -10.267  10.356  65.900  1.00  0.00    -0.234 C  
HETATM   14  N   UNL     1      -9.887   9.045  65.669  1.00  0.00    -0.465 N  
HETATM   15  O   UNL     1     -10.446  10.861  67.008  1.00  0.00    -0.221 OA 
HETATM   16  H   UNL     1      -9.776   8.745  64.701  1.00  0.00     0.000 HD 
BRANCH  14  17
HETATM   17  C   UNL     1      -9.643   8.096  66.693  1.00  0.00    -0.229 A  
HETATM   18  C   UNL     1      -8.417   7.999  67.359  1.00  0.00    -0.126 A  
HETATM   19  C   UNL     1      -8.178   6.981  68.282  1.00  0.00    -0.124 A  
HETATM   20  C   UNL     1      -9.177   6.059  68.570  1.00  0.00    -0.114 A  
HETATM   21  C   UNL     1     -10.424   6.180  67.959  1.00  0.00    -0.284 A  
HETATM   22  C   UNL     1     -10.663   7.202  67.031  1.00  0.00    -0.420 A  
ENDBRANCH  14  17
ENDBRANCH  12  13
ENDBRANCH  11  12
ENDBRANCH  10  11
ENDBRANCH   9  10
ENDBRANCH   8   9
ENDBRANCH   7   8
ENDBRANCH   4   7
TORSDOF 8
ENDMDL
MODEL      127
REMARK 921   NORMALIZED FREE ENERGY PREDICTED BY IDOCK:   -4.25 KCAL/MOL
REMARK 922        TOTAL FREE ENERGY PREDICTED BY IDOCK:   -7.03 KCAL/MOL
REMARK 923 INTER-LIGAND FREE ENERGY PREDICTED BY IDOCK:   -6.43 KCAL/MOL
REMARK 924 INTRA-LIGAND FREE ENERGY PREDICTED BY IDOCK:   -0.60 KCAL/MOL
REMARK 927      BINDING AFFINITY PREDICTED BY RF-SCORE:    0.00 PKD
ROOT
HETATM    1  O   UNL     1     -12.061  11.692  62.935  1.00  0.00    -0.876 OA 
HETATM    2  N   UNL     1     -12.512  13.021  62.936  1.00  0.00    -0.606 N  
HETATM    3  H   UNL     1     -12.265  11.121  62.204  1.00  0.00     0.000 HD 
HETATM    4  C   UNL     1     -12.218  13.842  63.988  1.00  0.00    -0.369 C  
HETATM    5  H   UNL     1     -13.059  13.374  62.151  1.00  0.00     0.000 HD 
HETATM    6  O   UNL     1     -12.595  15.013  63.983  1.00  0.00    -0.817 OA 
ENDROOT
BRANCH   4   7
HETATM    7  C   UNL     1     -11.425  13.217  65.118  1.00  0.00    -0.319 C  
BRANCH   7   8
HETATM    8  C   UNL     1     -12.155  13.319  66.455  1.00  0.00    -0.454 C  
BRANCH   8   9
HETATM    9  C   UNL     1     -11.199  13.096  67.621  1.00  0.00    -0.313 C  
BRANCH   9  10
HETATM   10  C   UNL     1     -11.871  12.314  68.753  1.00  0.00    -0.356 C  
BRANCH  10  11
HETATM   11  C   UNL     1     -11.432  10.859  68.692  1.00  0.00    -0.380 C  
BRANCH  11  12
HETATM   12  C   UNL     1     -10.155  10.622  67.882  1.00  0.00    -0.194 C  
BRANCH  12  13
HETATM   13  C   UNL     1      -9.627   9.235  68.214  1.00  0.00    -0.147 C  
HETATM   14  N   UNL     1     -10.576   8.231  68.123  1.00  0.00    -0.393 N  
HETATM   15  O   UNL     1      -8.444   9.071  68.510  1.00  0.00    -0.126 OA 
HETATM   16  H   UNL     1     -11.528   8.497  67.873  1.00  0.00     0.000 HD 
BRANCH  14  17
HETATM   17  C   UNL     1     -10.308   6.860  68.356  1.00  0.00    -0.190 A  
HETATM   18  C   UNL     1     -10.148   5.932  67.320  1.00  0.00    -0.208 A  
HETATM   19  C   UNL     1      -9.996   4.572  67.589  1.00  0.00    -0.138 A  
HETATM   20  C   UNL     1      -9.975   4.125  68.904  1.00  0.00     0.029 A  
HETATM   21  C   UNL     1     -10.072   5.044  69.947  1.00  0.00    -0.344 A  
HETATM   22  C   UNL     1     -10.227   6.409  69.677  1.00  0.00    -0.229 A  
ENDBRANCH  14  17
ENDBRANCH  12  13
ENDBRANCH  11  12
ENDBRANCH  10  11
ENDBRANCH   9  10
ENDBRANCH   8   9
ENDBRANCH   7   8
ENDBRANCH   4   7
TORSDOF 8
ENDMDL
MODEL      128
REMARK 921   NORMALIZED FREE ENERGY PREDICTED BY IDOCK:   -4.24 KCAL/MOL
REMARK 922        TOTAL FREE ENERGY PREDICTED BY IDOCK:   -7.02 KCAL/MOL
REMARK 923 INTER-LIGAND FREE ENERGY PREDICTED BY IDOCK:   -6.04 KCAL/MOL
REMARK 924 INTRA-LIGAND FREE ENERGY PREDICTED BY IDOCK:   -0.97 KCAL/MOL
REMARK 927      BINDING AFFINITY PREDICTED BY RF-SCORE:    0.00 PKD
ROOT
HETATM    1  O   UNL     1      -8.965  11.256  69.442  1.00  0.00    -0.373 OA 
HETATM    2  N   UNL     1      -9.695  10.334  68.674  1.00  0.00    -0.160 N  
HETATM    3  H   UNL     1      -8.766  12.116  69.090  1.00  0.00     0.000 HD 
HETATM    4  C   UNL     1      -9.982   9.098  69.179  1.00  0.00    -0.187 C  
HETATM    5  H   UNL     1     -10.011  10.589  67.738  1.00  0.00     0.000 HD 
HETATM    6  O   UNL     1     -10.637   8.296  68.516  1.00  0.00    -0.187 OA 
ENDROOT
BRANCH   4   7
HETATM    7  C   UNL     1      -9.444   8.805  70.566  1.00  0.00    -0.219 C  
BRANCH   7   8
HETATM    8  C   UNL     1     -10.426   9.216  71.659  1.00  0.00    -0.403 C  
BRANCH   8   9
HETATM    9  C   UNL     1     -11.820   8.667  71.379  1.00  0.00    -0.352 C  
BRANCH   9  10
HETATM   10  C   UNL     1     -12.906   9.678  71.759  1.00  0.00    -0.514 C  
BRANCH  10  11
HETATM   11  C   UNL     1     -12.777  10.913  70.882  1.00  0.00    -0.464 C  
BRANCH  11  12
HETATM   12  C   UNL     1     -12.868  12.237  71.645  1.00  0.00    -0.378 C  
BRANCH  12  13
HETATM   13  C   UNL     1     -12.561  13.370  70.678  1.00  0.00    -0.253 C  
HETATM   14  N   UNL     1     -11.568  13.077  69.759  1.00  0.00    -0.470 N  
HETATM   15  O   UNL     1     -13.186  14.428  70.737  1.00  0.00    -0.353 OA 
HETATM   16  H   UNL     1     -11.119  12.164  69.818  1.00  0.00     0.000 HD 
BRANCH  14  17
HETATM   17  C   UNL     1     -11.136  13.967  68.744  1.00  0.00    -0.265 A  
HETATM   18  C   UNL     1     -11.735  14.024  67.482  1.00  0.00    -0.421 A  
HETATM   19  C   UNL     1     -11.213  14.832  66.472  1.00  0.00    -0.342 A  
HETATM   20  C   UNL     1     -10.095  15.617  66.724  1.00  0.00    -0.277 A  
HETATM   21  C   UNL     1      -9.523  15.617  67.995  1.00  0.00    -0.194 A  
HETATM   22  C   UNL     1     -10.047  14.803  69.008  1.00  0.00    -0.232 A  
ENDBRANCH  14  17
ENDBRANCH  12  13
ENDBRANCH  11  12
ENDBRANCH  10  11
ENDBRANCH   9  10
ENDBRANCH   8   9
ENDBRANCH   7   8
ENDBRANCH   4   7
TORSDOF 8
ENDMDL
MODEL      129
REMARK 921   NORMALIZED FREE ENERGY PREDICTED BY IDOCK:   -4.24 KCAL/MOL
REMARK 922        TOTAL FREE ENERGY PREDICTED BY IDOCK:   -7.01 KCAL/MOL
REMARK 923 INTER-LIGAND FREE ENERGY PREDICTED BY IDOCK:   -6.31 KCAL/MOL
REMARK 924 INTRA-LIGAND FREE ENERGY PREDICTED BY IDOCK:   -0.70 KCAL/MOL
REMARK 927      BINDING AFFINITY PREDICTED BY RF-SCORE:    0.00 PKD
ROOT
HETATM    1  O   UNL     1     -10.510   7.715  68.870  1.00  0.00    -0.211 OA 
HETATM    2  N   UNL     1     -11.258   8.503  69.759  1.00  0.00    -0.445 N  
HETATM    3  H   UNL     1     -10.418   6.782  69.023  1.00  0.00     0.000 HD 
HETATM    4  C   UNL     1     -11.390   9.845  69.539  1.00  0.00    -0.124 C  
HETATM    5  H   UNL     1     -11.703   8.073  70.569  1.00  0.00     0.000 HD 
HETATM    6  O   UNL     1     -12.060  10.534  70.305  1.00  0.00    -0.282 OA 
ENDROOT
BRANCH   4   7
HETATM    7  C   UNL     1     -10.667  10.394  68.325  1.00  0.00    -0.275 C  
BRANCH   7   8
HETATM    8  C   UNL     1     -11.204  11.761  67.908  1.00  0.00    -0.331 C  
BRANCH   8   9
HETATM    9  C   UNL     1     -11.091  11.958  66.401  1.00  0.00    -0.359 C  
BRANCH   9  10
HETATM   10  C   UNL     1     -10.826  13.425  66.048  1.00  0.00    -0.281 C  
BRANCH  10  11
HETATM   11  C   UNL     1     -10.276  14.147  67.267  1.00  0.00    -0.256 C  
BRANCH  11  12
HETATM   12  C   UNL     1     -10.401  15.672  67.203  1.00  0.00    -0.285 C  
BRANCH  12  13
HETATM   13  C   UNL     1     -11.176  16.142  68.424  1.00  0.00    -0.358 C  
HETATM   14  N   UNL     1     -11.417  15.150  69.358  1.00  0.00    -0.286 N  
HETATM   15  O   UNL     1     -11.516  17.320  68.532  1.00  0.00     0.133 OA 
HETATM   16  H   UNL     1     -11.088  14.208  69.149  1.00  0.00     0.000 HD 
BRANCH  14  17
HETATM   17  C   UNL     1     -12.093  15.361  70.585  1.00  0.00    -0.369 A  
HETATM   18  C   UNL     1     -13.393  14.903  70.824  1.00  0.00    -0.338 A  
HETATM   19  C   UNL     1     -14.065  15.225  72.003  1.00  0.00    -0.662 A  
HETATM   20  C   UNL     1     -13.432  15.991  72.973  1.00  0.00    -0.567 A  
HETATM   21  C   UNL     1     -12.115  16.404  72.776  1.00  0.00    -0.570 A  
HETATM   22  C   UNL     1     -11.441  16.081  71.591  1.00  0.00    -0.443 A  
ENDBRANCH  14  17
ENDBRANCH  12  13
ENDBRANCH  11  12
ENDBRANCH  10  11
ENDBRANCH   9  10
ENDBRANCH   8   9
ENDBRANCH   7   8
ENDBRANCH   4   7
TORSDOF 8
ENDMDL
MODEL      130
REMARK 921   NORMALIZED FREE ENERGY PREDICTED BY IDOCK:   -4.21 KCAL/MOL
REMARK 922        TOTAL FREE ENERGY PREDICTED BY IDOCK:   -6.97 KCAL/MOL
REMARK 923 INTER-LIGAND FREE ENERGY PREDICTED BY IDOCK:   -6.12 KCAL/MOL
REMARK 924 INTRA-LIGAND FREE ENERGY PREDICTED BY IDOCK:   -0.85 KCAL/MOL
REMARK 927      BINDING AFFINITY PREDICTED BY RF-SCORE:    0.00 PKD
ROOT
HETATM    1  O   UNL     1     -13.430  16.016  70.211  1.00  0.00    -0.528 OA 
HETATM    2  N   UNL     1     -13.342  14.617  70.292  1.00  0.00    -0.466 N  
HETATM    3  H   UNL     1     -14.241  16.455  70.441  1.00  0.00     0.000 HD 
HETATM    4  C   UNL     1     -12.177  13.985  69.962  1.00  0.00    -0.352 C  
HETATM    5  H   UNL     1     -14.148  14.073  70.599  1.00  0.00     0.000 HD 
HETATM    6  O   UNL     1     -12.090  12.762  70.050  1.00  0.00    -0.328 OA 
ENDROOT
BRANCH   4   7
HETATM    7  C   UNL     1     -11.046  14.878  69.492  1.00  0.00    -0.301 C  
BRANCH   7   8
HETATM    8  C   UNL     1     -10.887  14.850  67.974  1.00  0.00    -0.263 C  
BRANCH   8   9
HETATM    9  C   UNL     1      -9.580  15.508  67.547  1.00  0.00    -0.212 C  
BRANCH   9  10
HETATM   10  C   UNL     1      -9.555  15.773  66.039  1.00  0.00    -0.388 C  
BRANCH  10  11
HETATM   11  C   UNL     1     -10.924  15.476  65.449  1.00  0.00    -0.365 C  
BRANCH  11  12
HETATM   12  C   UNL     1     -10.913  14.428  64.334  1.00  0.00    -0.169 C  
BRANCH  12  13
HETATM   13  C   UNL     1     -11.218  13.070  64.949  1.00  0.00    -0.302 C  
HETATM   14  N   UNL     1     -10.094  12.347  65.310  1.00  0.00    -0.297 N  
HETATM   15  O   UNL     1     -12.382  12.704  65.109  1.00  0.00    -0.472 OA 
HETATM   16  H   UNL     1      -9.181  12.758  65.119  1.00  0.00     0.000 HD 
BRANCH  14  17
HETATM   17  C   UNL     1     -10.133  11.073  65.928  1.00  0.00    -0.249 A  
HETATM   18  C   UNL     1      -9.747   9.900  65.271  1.00  0.00    -0.383 A  
HETATM   19  C   UNL     1      -9.904   8.651  65.873  1.00  0.00    -0.073 A  
HETATM   20  C   UNL     1     -10.427   8.564  67.157  1.00  0.00    -0.370 A  
HETATM   21  C   UNL     1     -10.759   9.728  67.848  1.00  0.00    -0.312 A  
HETATM   22  C   UNL     1     -10.603  10.981  67.242  1.00  0.00    -0.287 A  
ENDBRANCH  14  17
ENDBRANCH  12  13
ENDBRANCH  11  12
ENDBRANCH  10  11
ENDBRANCH   9  10
ENDBRANCH   8   9
ENDBRANCH   7   8
ENDBRANCH   4   7
TORSDOF 8
ENDMDL
MODEL      131
REMARK 921   NORMALIZED FREE ENERGY PREDICTED BY IDOCK:   -4.21 KCAL/MOL
REMARK 922        TOTAL FREE ENERGY PREDICTED BY IDOCK:   -6.97 KCAL/MOL
REMARK 923 INTER-LIGAND FREE ENERGY PREDICTED BY IDOCK:   -5.87 KCAL/MOL
REMARK 924 INTRA-LIGAND FREE ENERGY PREDICTED BY IDOCK:   -1.10 KCAL/MOL
REMARK 927      BINDING AFFINITY PREDICTED BY RF-SCORE:    0.00 PKD
ROOT
HETATM    1  O   UNL     1      -9.020  12.999  66.161  1.00  0.00    -0.446 OA 
HETATM    2  N   UNL     1     -10.310  13.543  66.055  1.00  0.00    -0.296 N  
HETATM    3  H   UNL     1      -8.415  13.064  65.431  1.00  0.00     0.000 HD 
HETATM    4  C   UNL     1     -11.180  13.450  67.103  1.00  0.00    -0.302 C  
HETATM    5  H   UNL     1     -10.597  14.008  65.193  1.00  0.00     0.000 HD 
HETATM    6  O   UNL     1     -12.304  13.942  67.020  1.00  0.00    -0.391 OA 
ENDROOT
BRANCH   4   7
HETATM    7  C   UNL     1     -10.670  12.717  68.328  1.00  0.00    -0.248 C  
BRANCH   7   8
HETATM    8  C   UNL     1     -11.651  11.651  68.807  1.00  0.00    -0.374 C  
BRANCH   8   9
HETATM    9  C   UNL     1     -11.782  11.669  70.326  1.00  0.00    -0.355 C  
BRANCH   9  10
HETATM   10  C   UNL     1     -13.007  12.473  70.772  1.00  0.00     0.032 C  
BRANCH  10  11
HETATM   11  C   UNL     1     -12.552  13.714  71.522  1.00  0.00    -0.385 C  
BRANCH  11  12
HETATM   12  C   UNL     1     -13.052  15.030  70.920  1.00  0.00    -0.462 C  
BRANCH  12  13
HETATM   13  C   UNL     1     -11.852  15.933  70.678  1.00  0.00    -0.370 C  
HETATM   14  N   UNL     1     -11.385  15.916  69.375  1.00  0.00    -0.326 N  
HETATM   15  O   UNL     1     -11.390  16.616  71.591  1.00  0.00    -0.169 OA 
HETATM   16  H   UNL     1     -11.851  15.301  68.709  1.00  0.00     0.000 HD 
BRANCH  14  17
HETATM   17  C   UNL     1     -10.299  16.699  68.910  1.00  0.00    -0.300 A  
HETATM   18  C   UNL     1      -8.964  16.308  69.057  1.00  0.00    -0.254 A  
HETATM   19  C   UNL     1      -7.920  17.155  68.686  1.00  0.00    -0.265 A  
HETATM   20  C   UNL     1      -8.202  18.399  68.136  1.00  0.00    -0.303 A  
HETATM   21  C   UNL     1      -9.527  18.778  67.927  1.00  0.00    -0.339 A  
HETATM   22  C   UNL     1     -10.574  17.928  68.301  1.00  0.00    -0.314 A  
ENDBRANCH  14  17
ENDBRANCH  12  13
ENDBRANCH  11  12
ENDBRANCH  10  11
ENDBRANCH   9  10
ENDBRANCH   8   9
ENDBRANCH   7   8
ENDBRANCH   4   7
TORSDOF 8
ENDMDL
MODEL      132
REMARK 921   NORMALIZED FREE ENERGY PREDICTED BY IDOCK:   -4.20 KCAL/MOL
REMARK 922        TOTAL FREE ENERGY PREDICTED BY IDOCK:   -6.95 KCAL/MOL
REMARK 923 INTER-LIGAND FREE ENERGY PREDICTED BY IDOCK:   -6.88 KCAL/MOL
REMARK 924 INTRA-LIGAND FREE ENERGY PREDICTED BY IDOCK:   -0.07 KCAL/MOL
REMARK 927      BINDING AFFINITY PREDICTED BY RF-SCORE:    0.00 PKD
ROOT
HETATM    1  O   UNL     1     -10.604  19.669  65.658  1.00  0.00    -0.503 OA 
HETATM    2  N   UNL     1     -10.783  19.663  67.051  1.00  0.00    -0.480 N  
HETATM    3  H   UNL     1     -11.338  19.860  65.085  1.00  0.00     0.000 HD 
HETATM    4  C   UNL     1      -9.729  19.389  67.875  1.00  0.00    -0.352 C  
HETATM    5  H   UNL     1     -11.701  19.865  67.447  1.00  0.00     0.000 HD 
HETATM    6  O   UNL     1      -9.878  19.402  69.095  1.00  0.00    -0.426 OA 
ENDROOT
BRANCH   4   7
HETATM    7  C   UNL     1      -8.414  19.075  67.190  1.00  0.00    -0.297 C  
BRANCH   7   8
HETATM    8  C   UNL     1      -7.459  18.315  68.106  1.00  0.00    -0.270 C  
BRANCH   8   9
HETATM    9  C   UNL     1      -7.358  16.849  67.699  1.00  0.00    -0.170 C  
BRANCH   9  10
HETATM   10  C   UNL     1      -8.167  16.565  66.430  1.00  0.00    -0.364 C  
BRANCH  10  11
HETATM   11  C   UNL     1      -8.866  15.222  66.565  1.00  0.00    -0.335 C  
BRANCH  11  12
HETATM   12  C   UNL     1     -10.343  15.321  66.956  1.00  0.00    -0.277 C  
BRANCH  12  13
HETATM   13  C   UNL     1     -10.662  14.186  67.917  1.00  0.00    -0.240 C  
HETATM   14  N   UNL     1     -11.526  14.536  68.941  1.00  0.00    -0.282 N  
HETATM   15  O   UNL     1     -10.184  13.066  67.742  1.00  0.00    -0.219 OA 
HETATM   16  H   UNL     1     -11.849  15.503  68.982  1.00  0.00     0.000 HD 
BRANCH  14  17
HETATM   17  C   UNL     1     -11.987  13.638  69.934  1.00  0.00    -0.348 A  
HETATM   18  C   UNL     1     -11.817  12.253  69.842  1.00  0.00    -0.383 A  
HETATM   19  C   UNL     1     -12.382  11.393  70.784  1.00  0.00    -0.483 A  
HETATM   20  C   UNL     1     -13.105  11.914  71.850  1.00  0.00    -0.474 A  
HETATM   21  C   UNL     1     -13.232  13.295  71.989  1.00  0.00    -0.541 A  
HETATM   22  C   UNL     1     -12.666  14.158  71.041  1.00  0.00    -0.433 A  
ENDBRANCH  14  17
ENDBRANCH  12  13
ENDBRANCH  11  12
ENDBRANCH  10  11
ENDBRANCH   9  10
ENDBRANCH   8   9
ENDBRANCH   7   8
ENDBRANCH   4   7
TORSDOF 8
ENDMDL
MODEL      133
REMARK 921   NORMALIZED FREE ENERGY PREDICTED BY IDOCK:   -4.18 KCAL/MOL
REMARK 922        TOTAL FREE ENERGY PREDICTED BY IDOCK:   -6.93 KCAL/MOL
REMARK 923 INTER-LIGAND FREE ENERGY PREDICTED BY IDOCK:   -6.14 KCAL/MOL
REMARK 924 INTRA-LIGAND FREE ENERGY PREDICTED BY IDOCK:   -0.79 KCAL/MOL
REMARK 927      BINDING AFFINITY PREDICTED BY RF-SCORE:    0.00 PKD
ROOT
HETATM    1  O   UNL     1     -11.971  11.809  63.083  1.00  0.00    -0.813 OA 
HETATM    2  N   UNL     1     -12.422  13.133  62.960  1.00  0.00    -0.741 N  
HETATM    3  H   UNL     1     -12.092  11.196  62.367  1.00  0.00     0.000 HD 
HETATM    4  C   UNL     1     -12.247  14.014  63.988  1.00  0.00    -0.355 C  
HETATM    5  H   UNL     1     -12.881  13.436  62.101  1.00  0.00     0.000 HD 
HETATM    6  O   UNL     1     -12.624  15.179  63.876  1.00  0.00    -0.794 OA 
ENDROOT
BRANCH   4   7
HETATM    7  C   UNL     1     -11.581  13.460  65.232  1.00  0.00    -0.329 C  
BRANCH   7   8
HETATM    8  C   UNL     1     -12.510  13.495  66.443  1.00  0.00    -0.349 C  
BRANCH   8   9
HETATM    9  C   UNL     1     -11.799  14.067  67.664  1.00  0.00    -0.430 C  
BRANCH   9  10
HETATM   10  C   UNL     1     -11.832  13.087  68.840  1.00  0.00    -0.358 C  
BRANCH  10  11
HETATM   11  C   UNL     1     -10.963  11.881  68.519  1.00  0.00    -0.277 C  
BRANCH  11  12
HETATM   12  C   UNL     1      -9.525  12.231  68.127  1.00  0.00    -0.213 C  
BRANCH  12  13
HETATM   13  C   UNL     1      -8.846  10.968  67.618  1.00  0.00    -0.131 C  
HETATM   14  N   UNL     1      -9.626  10.212  66.761  1.00  0.00    -0.171 N  
HETATM   15  O   UNL     1      -7.693  10.701  67.953  1.00  0.00    -0.097 OA 
HETATM   16  H   UNL     1     -10.572  10.538  66.565  1.00  0.00     0.000 HD 
BRANCH  14  17
HETATM   17  C   UNL     1      -9.194   9.014  66.140  1.00  0.00    -0.216 A  
HETATM   18  C   UNL     1      -9.463   7.747  66.668  1.00  0.00    -0.263 A  
HETATM   19  C   UNL     1      -8.927   6.597  66.089  1.00  0.00    -0.157 A  
HETATM   20  C   UNL     1      -8.133   6.700  64.954  1.00  0.00    -0.115 A  
HETATM   21  C   UNL     1      -7.905   7.950  64.382  1.00  0.00    -0.139 A  
HETATM   22  C   UNL     1      -8.443   9.104  64.964  1.00  0.00    -0.187 A  
ENDBRANCH  14  17
ENDBRANCH  12  13
ENDBRANCH  11  12
ENDBRANCH  10  11
ENDBRANCH   9  10
ENDBRANCH   8   9
ENDBRANCH   7   8
ENDBRANCH   4   7
TORSDOF 8
ENDMDL
MODEL      134
REMARK 921   NORMALIZED FREE ENERGY PREDICTED BY IDOCK:   -4.17 KCAL/MOL
REMARK 922        TOTAL FREE ENERGY PREDICTED BY IDOCK:   -6.91 KCAL/MOL
REMARK 923 INTER-LIGAND FREE ENERGY PREDICTED BY IDOCK:   -5.84 KCAL/MOL
REMARK 924 INTRA-LIGAND FREE ENERGY PREDICTED BY IDOCK:   -1.07 KCAL/MOL
REMARK 927      BINDING AFFINITY PREDICTED BY RF-SCORE:    0.00 PKD
ROOT
HETATM    1  O   UNL     1     -11.180   5.269  65.814  1.00  0.00    -0.791 OA 
HETATM    2  N   UNL     1     -10.389   4.370  66.547  1.00  0.00    -0.339 N  
HETATM    3  H   UNL     1     -11.543   5.009  64.975  1.00  0.00     0.000 HD 
HETATM    4  C   UNL     1      -9.868   4.743  67.753  1.00  0.00    -0.141 C  
HETATM    5  H   UNL     1     -10.203   3.437  66.178  1.00  0.00     0.000 HD 
HETATM    6  O   UNL     1      -9.190   3.952  68.406  1.00  0.00    -0.131 OA 
ENDROOT
BRANCH   4   7
HETATM    7  C   UNL     1     -10.177   6.158  68.202  1.00  0.00    -0.208 C  
BRANCH   7   8
HETATM    8  C   UNL     1     -11.358   6.207  69.168  1.00  0.00    -0.303 C  
BRANCH   8   9
HETATM    9  C   UNL     1     -10.883   6.202  70.616  1.00  0.00    -0.355 C  
BRANCH   9  10
HETATM   10  C   UNL     1      -9.554   6.948  70.771  1.00  0.00    -0.167 C  
BRANCH  10  11
HETATM   11  C   UNL     1      -9.768   8.192  71.618  1.00  0.00    -0.238 C  
BRANCH  11  12
HETATM   12  C   UNL     1     -10.874   9.118  71.105  1.00  0.00    -0.381 C  
BRANCH  12  13
HETATM   13  C   UNL     1     -10.369   9.824  69.856  1.00  0.00    -0.254 C  
HETATM   14  N   UNL     1     -11.237   9.760  68.780  1.00  0.00    -0.469 N  
HETATM   15  O   UNL     1      -9.284  10.404  69.862  1.00  0.00    -0.087 OA 
HETATM   16  H   UNL     1     -12.107   9.241  68.899  1.00  0.00     0.000 HD 
BRANCH  14  17
HETATM   17  C   UNL     1     -10.993  10.370  67.524  1.00  0.00    -0.295 A  
HETATM   18  C   UNL     1     -10.213   9.771  66.529  1.00  0.00    -0.289 A  
HETATM   19  C   UNL     1      -9.904  10.449  65.350  1.00  0.00    -0.347 A  
HETATM   20  C   UNL     1     -10.397  11.731  65.140  1.00  0.00    -0.323 A  
HETATM   21  C   UNL     1     -11.225  12.317  66.096  1.00  0.00    -0.372 A  
HETATM   22  C   UNL     1     -11.534  11.636  67.280  1.00  0.00    -0.350 A  
ENDBRANCH  14  17
ENDBRANCH  12  13
ENDBRANCH  11  12
ENDBRANCH  10  11
ENDBRANCH   9  10
ENDBRANCH   8   9
ENDBRANCH   7   8
ENDBRANCH   4   7
TORSDOF 8
ENDMDL
MODEL      135
REMARK 921   NORMALIZED FREE ENERGY PREDICTED BY IDOCK:   -4.13 KCAL/MOL
REMARK 922        TOTAL FREE ENERGY PREDICTED BY IDOCK:   -6.85 KCAL/MOL
REMARK 923 INTER-LIGAND FREE ENERGY PREDICTED BY IDOCK:   -6.22 KCAL/MOL
REMARK 924 INTRA-LIGAND FREE ENERGY PREDICTED BY IDOCK:   -0.62 KCAL/MOL
REMARK 927      BINDING AFFINITY PREDICTED BY RF-SCORE:    0.00 PKD
ROOT
HETATM    1  O   UNL     1     -12.495  14.175  66.443  1.00  0.00    -0.473 OA 
HETATM    2  N   UNL     1     -12.980  13.737  65.201  1.00  0.00    -0.762 N  
HETATM    3  H   UNL     1     -12.841  14.968  66.837  1.00  0.00     0.000 HD 
HETATM    4  C   UNL     1     -12.484  12.598  64.635  1.00  0.00    -0.466 C  
HETATM    5  H   UNL     1     -13.705  14.271  64.721  1.00  0.00     0.000 HD 
HETATM    6  O   UNL     1     -12.920  12.202  63.556  1.00  0.00    -0.794 OA 
ENDROOT
BRANCH   4   7
HETATM    7  C   UNL     1     -11.390  11.891  65.412  1.00  0.00    -0.334 C  
BRANCH   7   8
HETATM    8  C   UNL     1     -10.657  10.860  64.559  1.00  0.00    -0.335 C  
BRANCH   8   9
HETATM    9  C   UNL     1      -9.155  10.903  64.818  1.00  0.00    -0.197 C  
BRANCH   9  10
HETATM   10  C   UNL     1      -8.804  10.275  66.171  1.00  0.00    -0.166 C  
BRANCH  10  11
HETATM   11  C   UNL     1      -7.986  11.261  66.989  1.00  0.00    -0.150 C  
BRANCH  11  12
HETATM   12  C   UNL     1      -8.653  11.698  68.296  1.00  0.00    -0.162 C  
BRANCH  12  13
HETATM   13  C   UNL     1      -8.959  10.456  69.117  1.00  0.00    -0.179 C  
HETATM   14  N   UNL     1     -10.298  10.106  69.137  1.00  0.00    -0.205 N  
HETATM   15  O   UNL     1      -8.054   9.839  69.678  1.00  0.00    -0.120 OA 
HETATM   16  H   UNL     1     -10.955  10.703  68.635  1.00  0.00     0.000 HD 
BRANCH  14  17
HETATM   17  C   UNL     1     -10.814   8.970  69.810  1.00  0.00    -0.205 A  
HETATM   18  C   UNL     1     -11.480   9.054  71.037  1.00  0.00    -0.358 A  
HETATM   19  C   UNL     1     -11.875   7.905  71.722  1.00  0.00    -0.333 A  
HETATM   20  C   UNL     1     -11.630   6.653  71.172  1.00  0.00    -0.384 A  
HETATM   21  C   UNL     1     -11.022   6.556  69.922  1.00  0.00    -0.393 A  
HETATM   22  C   UNL     1     -10.624   7.710  69.235  1.00  0.00    -0.206 A  
ENDBRANCH  14  17
ENDBRANCH  12  13
ENDBRANCH  11  12
ENDBRANCH  10  11
ENDBRANCH   9  10
ENDBRANCH   8   9
ENDBRANCH   7   8
ENDBRANCH   4   7
TORSDOF 8
ENDMDL
MODEL      136
REMARK 921   NORMALIZED FREE ENERGY PREDICTED BY IDOCK:   -4.13 KCAL/MOL
REMARK 922        TOTAL FREE ENERGY PREDICTED BY IDOCK:   -6.84 KCAL/MOL
REMARK 923 INTER-LIGAND FREE ENERGY PREDICTED BY IDOCK:   -5.74 KCAL/MOL
REMARK 924 INTRA-LIGAND FREE ENERGY PREDICTED BY IDOCK:   -1.10 KCAL/MOL
REMARK 927      BINDING AFFINITY PREDICTED BY RF-SCORE:    0.00 PKD
ROOT
HETATM    1  O   UNL     1     -10.722  17.940  65.232  1.00  0.00    -0.640 OA 
HETATM    2  N   UNL     1     -10.778  17.958  66.634  1.00  0.00    -0.210 N  
HETATM    3  H   UNL     1     -11.194  17.274  64.746  1.00  0.00     0.000 HD 
HETATM    4  C   UNL     1     -10.100  18.915  67.334  1.00  0.00    -0.361 C  
HETATM    5  H   UNL     1     -11.325  17.255  67.131  1.00  0.00     0.000 HD 
HETATM    6  O   UNL     1     -10.162  18.945  68.561  1.00  0.00    -0.381 OA 
ENDROOT
BRANCH   4   7
HETATM    7  C   UNL     1      -9.292  19.897  66.507  1.00  0.00    -0.501 C  
BRANCH   7   8
HETATM    8  C   UNL     1      -7.791  19.721  66.714  1.00  0.00    -0.317 C  
BRANCH   8   9
HETATM    9  C   UNL     1      -7.183  18.855  65.617  1.00  0.00    -0.192 C  
BRANCH   9  10
HETATM   10  C   UNL     1      -6.286  17.759  66.201  1.00  0.00    -0.278 C  
BRANCH  10  11
HETATM   11  C   UNL     1      -7.147  16.721  66.902  1.00  0.00    -0.258 C  
BRANCH  11  12
HETATM   12  C   UNL     1      -6.502  16.109  68.148  1.00  0.00    -0.132 C  
BRANCH  12  13
HETATM   13  C   UNL     1      -7.604  15.551  69.035  1.00  0.00    -0.180 C  
HETATM   14  N   UNL     1      -8.884  15.842  68.597  1.00  0.00    -0.188 N  
HETATM   15  O   UNL     1      -7.327  14.886  70.033  1.00  0.00    -0.130 OA 
HETATM   16  H   UNL     1      -8.983  16.409  67.756  1.00  0.00     0.000 HD 
BRANCH  14  17
HETATM   17  C   UNL     1     -10.065  15.401  69.244  1.00  0.00    -0.253 A  
HETATM   18  C   UNL     1     -10.663  14.166  68.973  1.00  0.00    -0.249 A  
HETATM   19  C   UNL     1     -11.884  13.814  69.547  1.00  0.00    -0.394 A  
HETATM   20  C   UNL     1     -12.512  14.689  70.426  1.00  0.00    -0.410 A  
HETATM   21  C   UNL     1     -11.900  15.897  70.753  1.00  0.00    -0.423 A  
HETATM   22  C   UNL     1     -10.674  16.250  70.174  1.00  0.00    -0.246 A  
ENDBRANCH  14  17
ENDBRANCH  12  13
ENDBRANCH  11  12
ENDBRANCH  10  11
ENDBRANCH   9  10
ENDBRANCH   8   9
ENDBRANCH   7   8
ENDBRANCH   4   7
TORSDOF 8
ENDMDL
MODEL      137
REMARK 921   NORMALIZED FREE ENERGY PREDICTED BY IDOCK:   -4.11 KCAL/MOL
REMARK 922        TOTAL FREE ENERGY PREDICTED BY IDOCK:   -6.82 KCAL/MOL
REMARK 923 INTER-LIGAND FREE ENERGY PREDICTED BY IDOCK:   -6.15 KCAL/MOL
REMARK 924 INTRA-LIGAND FREE ENERGY PREDICTED BY IDOCK:   -0.67 KCAL/MOL
REMARK 927      BINDING AFFINITY PREDICTED BY RF-SCORE:    0.00 PKD
ROOT
HETATM    1  O   UNL     1      -6.672  20.042  70.187  1.00  0.00    -0.314 OA 
HETATM    2  N   UNL     1      -6.216  19.076  69.276  1.00  0.00    -0.262 N  
HETATM    3  H   UNL     1      -6.533  19.921  71.119  1.00  0.00     0.000 HD 
HETATM    4  C   UNL     1      -6.416  19.250  67.937  1.00  0.00    -0.233 C  
HETATM    5  H   UNL     1      -5.735  18.243  69.616  1.00  0.00     0.000 HD 
HETATM    6  O   UNL     1      -6.001  18.415  67.135  1.00  0.00    -0.151 OA 
ENDROOT
BRANCH   4   7
HETATM    7  C   UNL     1      -7.166  20.505  67.533  1.00  0.00    -0.368 C  
BRANCH   7   8
HETATM    8  C   UNL     1      -8.329  20.200  66.594  1.00  0.00    -0.338 C  
BRANCH   8   9
HETATM    9  C   UNL     1      -9.663  20.288  67.326  1.00  0.00    -0.590 C  
BRANCH   9  10
HETATM   10  C   UNL     1     -10.524  19.047  67.071  1.00  0.00    -0.514 C  
BRANCH  10  11
HETATM   11  C   UNL     1      -9.685  17.981  66.387  1.00  0.00    -0.324 C  
BRANCH  11  12
HETATM   12  C   UNL     1     -10.498  16.831  65.786  1.00  0.00    -0.305 C  
BRANCH  12  13
HETATM   13  C   UNL     1     -10.303  15.599  66.655  1.00  0.00    -0.289 C  
HETATM   14  N   UNL     1     -11.275  14.628  66.488  1.00  0.00    -0.341 N  
HETATM   15  O   UNL     1      -9.334  15.514  67.409  1.00  0.00    -0.203 OA 
HETATM   16  H   UNL     1     -12.033  14.821  65.835  1.00  0.00     0.000 HD 
BRANCH  14  17
HETATM   17  C   UNL     1     -11.282  13.385  67.168  1.00  0.00    -0.302 A  
HETATM   18  C   UNL     1     -11.880  13.209  68.420  1.00  0.00    -0.386 A  
HETATM   19  C   UNL     1     -11.771  12.000  69.107  1.00  0.00    -0.389 A  
HETATM   20  C   UNL     1     -11.082  10.939  68.534  1.00  0.00    -0.311 A  
HETATM   21  C   UNL     1     -10.532  11.079  67.261  1.00  0.00    -0.270 A  
HETATM   22  C   UNL     1     -10.641  12.294  66.572  1.00  0.00    -0.263 A  
ENDBRANCH  14  17
ENDBRANCH  12  13
ENDBRANCH  11  12
ENDBRANCH  10  11
ENDBRANCH   9  10
ENDBRANCH   8   9
ENDBRANCH   7   8
ENDBRANCH   4   7
TORSDOF 8
ENDMDL
MODEL      138
REMARK 921   NORMALIZED FREE ENERGY PREDICTED BY IDOCK:   -4.09 KCAL/MOL
REMARK 922        TOTAL FREE ENERGY PREDICTED BY IDOCK:   -6.79 KCAL/MOL
REMARK 923 INTER-LIGAND FREE ENERGY PREDICTED BY IDOCK:   -6.16 KCAL/MOL
REMARK 924 INTRA-LIGAND FREE ENERGY PREDICTED BY IDOCK:   -0.63 KCAL/MOL
REMARK 927      BINDING AFFINITY PREDICTED BY RF-SCORE:    0.00 PKD
ROOT
HETATM    1  O   UNL     1     -11.106  12.962  69.696  1.00  0.00    -0.466 OA 
HETATM    2  N   UNL     1     -10.031  13.225  68.833  1.00  0.00    -0.431 N  
HETATM    3  H   UNL     1     -10.950  12.550  70.538  1.00  0.00     0.000 HD 
HETATM    4  C   UNL     1     -10.255  13.818  67.623  1.00  0.00    -0.242 C  
HETATM    5  H   UNL     1      -9.082  12.972  69.109  1.00  0.00     0.000 HD 
HETATM    6  O   UNL     1      -9.313  14.066  66.872  1.00  0.00    -0.238 OA 
ENDROOT
BRANCH   4   7
HETATM    7  C   UNL     1     -11.701  14.129  67.291  1.00  0.00    -0.421 C  
BRANCH   7   8
HETATM    8  C   UNL     1     -12.181  13.372  66.056  1.00  0.00    -0.491 C  
BRANCH   8   9
HETATM    9  C   UNL     1     -12.337  14.311  64.865  1.00  0.00    -0.435 C  
BRANCH   9  10
HETATM   10  C   UNL     1     -12.086  13.581  63.542  1.00  0.00    -0.425 C  
BRANCH  10  11
HETATM   11  C   UNL     1     -11.628  12.160  63.826  1.00  0.00    -0.557 C  
BRANCH  11  12
HETATM   12  C   UNL     1     -10.245  11.822  63.263  1.00  0.00    -0.452 C  
BRANCH  12  13
HETATM   13  C   UNL     1      -9.715  10.598  63.995  1.00  0.00    -0.315 C  
HETATM   14  N   UNL     1      -9.923  10.622  65.363  1.00  0.00    -0.263 N  
HETATM   15  O   UNL     1      -9.176   9.684  63.373  1.00  0.00    -0.241 OA 
HETATM   16  H   UNL     1     -10.379  11.442  65.762  1.00  0.00     0.000 HD 
BRANCH  14  17
HETATM   17  C   UNL     1      -9.544   9.579  66.243  1.00  0.00    -0.226 A  
HETATM   18  C   UNL     1      -8.289   8.963  66.193  1.00  0.00    -0.125 A  
HETATM   19  C   UNL     1      -7.991   7.866  67.001  1.00  0.00    -0.112 A  
HETATM   20  C   UNL     1      -8.942   7.387  67.894  1.00  0.00    -0.131 A  
HETATM   21  C   UNL     1     -10.175   8.028  67.999  1.00  0.00    -0.260 A  
HETATM   22  C   UNL     1     -10.474   9.128  67.186  1.00  0.00    -0.325 A  
ENDBRANCH  14  17
ENDBRANCH  12  13
ENDBRANCH  11  12
ENDBRANCH  10  11
ENDBRANCH   9  10
ENDBRANCH   8   9
ENDBRANCH   7   8
ENDBRANCH   4   7
TORSDOF 8
ENDMDL
MODEL      139
REMARK 921   NORMALIZED FREE ENERGY PREDICTED BY IDOCK:   -4.09 KCAL/MOL
REMARK 922        TOTAL FREE ENERGY PREDICTED BY IDOCK:   -6.79 KCAL/MOL
REMARK 923 INTER-LIGAND FREE ENERGY PREDICTED BY IDOCK:   -6.25 KCAL/MOL
REMARK 924 INTRA-LIGAND FREE ENERGY PREDICTED BY IDOCK:   -0.54 KCAL/MOL
REMARK 927      BINDING AFFINITY PREDICTED BY RF-SCORE:    0.00 PKD
ROOT
HETATM    1  O   UNL     1     -11.149  16.884  64.694  1.00  0.00    -0.934 OA 
HETATM    2  N   UNL     1     -11.618  15.853  63.864  1.00  0.00    -0.842 N  
HETATM    3  H   UNL     1     -10.765  17.665  64.312  1.00  0.00     0.000 HD 
HETATM    4  C   UNL     1     -12.170  14.731  64.412  1.00  0.00    -0.428 C  
HETATM    5  H   UNL     1     -11.545  15.943  62.850  1.00  0.00     0.000 HD 
HETATM    6  O   UNL     1     -12.599  13.835  63.687  1.00  0.00    -0.742 OA 
ENDROOT
BRANCH   4   7
HETATM    7  C   UNL     1     -12.208  14.679  65.926  1.00  0.00    -0.165 C  
BRANCH   7   8
HETATM    8  C   UNL     1     -11.199  13.682  66.490  1.00  0.00    -0.321 C  
BRANCH   8   9
HETATM    9  C   UNL     1     -11.896  12.602  67.309  1.00  0.00    -0.395 C  
BRANCH   9  10
HETATM   10  C   UNL     1     -10.890  11.778  68.118  1.00  0.00    -0.258 C  
BRANCH  10  11
HETATM   11  C   UNL     1      -9.960  11.039  67.169  1.00  0.00    -0.218 C  
BRANCH  11  12
HETATM   12  C   UNL     1     -10.625   9.888  66.409  1.00  0.00    -0.126 C  
BRANCH  12  13
HETATM   13  C   UNL     1      -9.786   8.635  66.605  1.00  0.00    -0.247 C  
HETATM   14  N   UNL     1     -10.520   7.464  66.656  1.00  0.00    -0.509 N  
HETATM   15  O   UNL     1      -8.560   8.710  66.683  1.00  0.00    -0.113 OA 
HETATM   16  H   UNL     1     -11.535   7.534  66.586  1.00  0.00     0.000 HD 
BRANCH  14  17
HETATM   17  C   UNL     1      -9.952   6.174  66.801  1.00  0.00    -0.172 A  
HETATM   18  C   UNL     1      -9.535   5.402  65.712  1.00  0.00    -0.104 A  
HETATM   19  C   UNL     1      -9.083   4.094  65.886  1.00  0.00    -0.136 A  
HETATM   20  C   UNL     1      -9.018   3.549  67.162  1.00  0.00    -0.168 A  
HETATM   21  C   UNL     1      -9.373   4.326  68.264  1.00  0.00    -0.207 A  
HETATM   22  C   UNL     1      -9.828   5.639  68.088  1.00  0.00    -0.170 A  
ENDBRANCH  14  17
ENDBRANCH  12  13
ENDBRANCH  11  12
ENDBRANCH  10  11
ENDBRANCH   9  10
ENDBRANCH   8   9
ENDBRANCH   7   8
ENDBRANCH   4   7
TORSDOF 8
ENDMDL
MODEL      140
REMARK 921   NORMALIZED FREE ENERGY PREDICTED BY IDOCK:   -4.09 KCAL/MOL
REMARK 922        TOTAL FREE ENERGY PREDICTED BY IDOCK:   -6.78 KCAL/MOL
REMARK 923 INTER-LIGAND FREE ENERGY PREDICTED BY IDOCK:   -6.26 KCAL/MOL
REMARK 924 INTRA-LIGAND FREE ENERGY PREDICTED BY IDOCK:   -0.53 KCAL/MOL
REMARK 927      BINDING AFFINITY PREDICTED BY RF-SCORE:    0.00 PKD
ROOT
HETATM    1  O   UNL     1     -12.199   7.007  70.169  1.00  0.00    -0.618 OA 
HETATM    2  N   UNL     1     -11.799   8.352  70.199  1.00  0.00    -0.397 N  
HETATM    3  H   UNL     1     -12.959   6.726  70.665  1.00  0.00     0.000 HD 
HETATM    4  C   UNL     1     -10.707   8.757  69.486  1.00  0.00    -0.188 C  
HETATM    5  H   UNL     1     -12.324   9.028  70.754  1.00  0.00     0.000 HD 
HETATM    6  O   UNL     1     -10.364   9.938  69.495  1.00  0.00    -0.199 OA 
ENDROOT
BRANCH   4   7
HETATM    7  C   UNL     1      -9.976   7.674  68.716  1.00  0.00    -0.178 C  
BRANCH   7   8
HETATM    8  C   UNL     1     -10.464   7.568  67.274  1.00  0.00    -0.391 C  
BRANCH   8   9
HETATM    9  C   UNL     1      -9.426   8.119  66.302  1.00  0.00    -0.259 C  
BRANCH   9  10
HETATM   10  C   UNL     1      -9.827   9.503  65.782  1.00  0.00    -0.363 C  
BRANCH  10  11
HETATM   11  C   UNL     1      -8.992   9.845  64.559  1.00  0.00    -0.272 C  
BRANCH  11  12
HETATM   12  C   UNL     1      -9.763  10.574  63.456  1.00  0.00    -0.374 C  
BRANCH  12  13
HETATM   13  C   UNL     1     -10.549  11.711  64.090  1.00  0.00    -0.357 C  
HETATM   14  N   UNL     1      -9.783  12.566  64.864  1.00  0.00    -0.484 N  
HETATM   15  O   UNL     1     -11.756  11.828  63.883  1.00  0.00    -0.397 OA 
HETATM   16  H   UNL     1      -8.790  12.357  64.964  1.00  0.00     0.000 HD 
BRANCH  14  17
HETATM   17  C   UNL     1     -10.292  13.710  65.526  1.00  0.00    -0.309 A  
HETATM   18  C   UNL     1     -10.227  14.995  64.977  1.00  0.00    -0.349 A  
HETATM   19  C   UNL     1     -10.638  16.112  65.705  1.00  0.00    -0.377 A  
HETATM   20  C   UNL     1     -11.145  15.952  66.988  1.00  0.00    -0.119 A  
HETATM   21  C   UNL     1     -11.272  14.672  67.526  1.00  0.00    -0.343 A  
HETATM   22  C   UNL     1     -10.858  13.552  66.795  1.00  0.00    -0.284 A  
ENDBRANCH  14  17
ENDBRANCH  12  13
ENDBRANCH  11  12
ENDBRANCH  10  11
ENDBRANCH   9  10
ENDBRANCH   8   9
ENDBRANCH   7   8
ENDBRANCH   4   7
TORSDOF 8
ENDMDL
MODEL      141
REMARK 921   NORMALIZED FREE ENERGY PREDICTED BY IDOCK:   -4.08 KCAL/MOL
REMARK 922        TOTAL FREE ENERGY PREDICTED BY IDOCK:   -6.77 KCAL/MOL
REMARK 923 INTER-LIGAND FREE ENERGY PREDICTED BY IDOCK:   -5.99 KCAL/MOL
REMARK 924 INTRA-LIGAND FREE ENERGY PREDICTED BY IDOCK:   -0.78 KCAL/MOL
REMARK 927      BINDING AFFINITY PREDICTED BY RF-SCORE:    0.00 PKD
ROOT
HETATM    1  O   UNL     1     -14.016  15.384  71.543  1.00  0.00    -0.495 OA 
HETATM    2  N   UNL     1     -13.062  15.056  70.568  1.00  0.00    -0.623 N  
HETATM    3  H   UNL     1     -14.390  16.258  71.568  1.00  0.00     0.000 HD 
HETATM    4  C   UNL     1     -12.524  13.801  70.532  1.00  0.00    -0.339 C  
HETATM    5  H   UNL     1     -12.770  15.755  69.885  1.00  0.00     0.000 HD 
HETATM    6  O   UNL     1     -11.702  13.505  69.667  1.00  0.00    -0.291 OA 
ENDROOT
BRANCH   4   7
HETATM    7  C   UNL     1     -13.000  12.843  71.605  1.00  0.00    -0.410 C  
BRANCH   7   8
HETATM    8  C   UNL     1     -12.895  11.387  71.160  1.00  0.00    -0.440 C  
BRANCH   8   9
HETATM    9  C   UNL     1     -13.285  10.439  72.288  1.00  0.00    -0.285 C  
BRANCH   9  10
HETATM   10  C   UNL     1     -12.974   8.983  71.928  1.00  0.00    -0.451 C  
BRANCH  10  11
HETATM   11  C   UNL     1     -11.469   8.775  71.916  1.00  0.00    -0.428 C  
BRANCH  11  12
HETATM   12  C   UNL     1     -11.004   7.601  71.050  1.00  0.00    -0.262 C  
BRANCH  12  13
HETATM   13  C   UNL     1     -10.501   8.152  69.724  1.00  0.00    -0.227 C  
HETATM   14  N   UNL     1     -10.532   9.533  69.636  1.00  0.00    -0.211 N  
HETATM   15  O   UNL     1     -10.093   7.392  68.847  1.00  0.00    -0.175 OA 
HETATM   16  H   UNL     1     -10.901  10.053  70.432  1.00  0.00     0.000 HD 
BRANCH  14  17
HETATM   17  C   UNL     1     -10.085  10.268  68.511  1.00  0.00    -0.165 A  
HETATM   18  C   UNL     1      -8.737  10.570  68.290  1.00  0.00    -0.135 A  
HETATM   19  C   UNL     1      -8.347  11.390  67.231  1.00  0.00    -0.149 A  
HETATM   20  C   UNL     1      -9.304  11.899  66.361  1.00  0.00    -0.233 A  
HETATM   21  C   UNL     1     -10.644  11.557  66.533  1.00  0.00    -0.301 A  
HETATM   22  C   UNL     1     -11.035  10.735  67.597  1.00  0.00    -0.365 A  
ENDBRANCH  14  17
ENDBRANCH  12  13
ENDBRANCH  11  12
ENDBRANCH  10  11
ENDBRANCH   9  10
ENDBRANCH   8   9
ENDBRANCH   7   8
ENDBRANCH   4   7
TORSDOF 8
ENDMDL
MODEL      142
REMARK 921   NORMALIZED FREE ENERGY PREDICTED BY IDOCK:   -4.08 KCAL/MOL
REMARK 922        TOTAL FREE ENERGY PREDICTED BY IDOCK:   -6.77 KCAL/MOL
REMARK 923 INTER-LIGAND FREE ENERGY PREDICTED BY IDOCK:   -6.22 KCAL/MOL
REMARK 924 INTRA-LIGAND FREE ENERGY PREDICTED BY IDOCK:   -0.55 KCAL/MOL
REMARK 927      BINDING AFFINITY PREDICTED BY RF-SCORE:    0.00 PKD
ROOT
HETATM    1  O   UNL     1      -8.809   6.221  70.522  1.00  0.00    -0.141 OA 
HETATM    2  N   UNL     1      -8.339   7.256  71.346  1.00  0.00    -0.110 N  
HETATM    3  H   UNL     1      -8.244   5.853  69.852  1.00  0.00     0.000 HD 
HETATM    4  C   UNL     1      -9.151   7.786  72.308  1.00  0.00    -0.149 C  
HETATM    5  H   UNL     1      -7.392   7.613  71.226  1.00  0.00     0.000 HD 
HETATM    6  O   UNL     1      -8.737   8.680  73.044  1.00  0.00    -0.380 OA 
ENDROOT
BRANCH   4   7
HETATM    7  C   UNL     1     -10.550   7.208  72.390  1.00  0.00    -0.257 C  
BRANCH   7   8
HETATM    8  C   UNL     1     -11.608   8.294  72.569  1.00  0.00    -0.454 C  
BRANCH   8   9
HETATM    9  C   UNL     1     -11.653   9.220  71.359  1.00  0.00    -0.437 C  
BRANCH   9  10
HETATM   10  C   UNL     1     -12.646  10.367  71.569  1.00  0.00    -0.544 C  
BRANCH  10  11
HETATM   11  C   UNL     1     -12.327  11.497  70.603  1.00  0.00    -0.457 C  
BRANCH  11  12
HETATM   12  C   UNL     1     -11.515  11.066  69.379  1.00  0.00    -0.364 C  
BRANCH  12  13
HETATM   13  C   UNL     1     -11.422  12.246  68.425  1.00  0.00    -0.307 C  
HETATM   14  N   UNL     1     -10.490  13.200  68.794  1.00  0.00    -0.376 N  
HETATM   15  O   UNL     1     -12.122  12.289  67.414  1.00  0.00    -0.533 OA 
HETATM   16  H   UNL     1      -9.974  13.053  69.661  1.00  0.00     0.000 HD 
BRANCH  14  17
HETATM   17  C   UNL     1     -10.208  14.369  68.043  1.00  0.00    -0.228 A  
HETATM   18  C   UNL     1      -9.270  14.396  67.006  1.00  0.00    -0.246 A  
HETATM   19  C   UNL     1      -8.939  15.589  66.364  1.00  0.00    -0.359 A  
HETATM   20  C   UNL     1      -9.567  16.771  66.736  1.00  0.00    -0.261 A  
HETATM   21  C   UNL     1     -10.548  16.750  67.726  1.00  0.00    -0.341 A  
HETATM   22  C   UNL     1     -10.878  15.551  68.371  1.00  0.00    -0.273 A  
ENDBRANCH  14  17
ENDBRANCH  12  13
ENDBRANCH  11  12
ENDBRANCH  10  11
ENDBRANCH   9  10
ENDBRANCH   8   9
ENDBRANCH   7   8
ENDBRANCH   4   7
TORSDOF 8
ENDMDL
MODEL      143
REMARK 921   NORMALIZED FREE ENERGY PREDICTED BY IDOCK:   -4.07 KCAL/MOL
REMARK 922        TOTAL FREE ENERGY PREDICTED BY IDOCK:   -6.76 KCAL/MOL
REMARK 923 INTER-LIGAND FREE ENERGY PREDICTED BY IDOCK:   -6.18 KCAL/MOL
REMARK 924 INTRA-LIGAND FREE ENERGY PREDICTED BY IDOCK:   -0.58 KCAL/MOL
REMARK 927      BINDING AFFINITY PREDICTED BY RF-SCORE:    0.00 PKD
ROOT
HETATM    1  O   UNL     1      -7.437  10.955  64.889  1.00  0.00    -0.349 OA 
HETATM    2  N   UNL     1      -8.103  10.510  63.736  1.00  0.00    -0.320 N  
HETATM    3  H   UNL     1      -6.597  10.580  65.127  1.00  0.00     0.000 HD 
HETATM    4  C   UNL     1      -9.310  11.050  63.393  1.00  0.00    -0.282 C  
HETATM    5  H   UNL     1      -7.686   9.784  63.155  1.00  0.00     0.000 HD 
HETATM    6  O   UNL     1      -9.888  10.676  62.374  1.00  0.00    -0.150 OA 
ENDROOT
BRANCH   4   7
HETATM    7  C   UNL     1      -9.861  12.102  64.336  1.00  0.00    -0.154 C  
BRANCH   7   8
HETATM    8  C   UNL     1     -11.367  11.959  64.536  1.00  0.00    -0.382 C  
BRANCH   8   9
HETATM    9  C   UNL     1     -11.829  12.711  65.779  1.00  0.00    -0.497 C  
BRANCH   9  10
HETATM   10  C   UNL     1     -11.556  11.906  67.053  1.00  0.00    -0.365 C  
BRANCH  10  11
HETATM   11  C   UNL     1     -10.416  12.551  67.824  1.00  0.00    -0.230 C  
BRANCH  11  12
HETATM   12  C   UNL     1     -10.856  13.668  68.775  1.00  0.00    -0.279 C  
BRANCH  12  13
HETATM   13  C   UNL     1     -10.172  14.958  68.348  1.00  0.00    -0.231 C  
HETATM   14  N   UNL     1     -11.044  15.996  68.070  1.00  0.00    -0.346 N  
HETATM   15  O   UNL     1      -8.945  15.026  68.293  1.00  0.00    -0.165 OA 
HETATM   16  H   UNL     1     -12.044  15.812  68.148  1.00  0.00     0.000 HD 
BRANCH  14  17
HETATM   17  C   UNL     1     -10.635  17.297  67.685  1.00  0.00    -0.350 A  
HETATM   18  C   UNL     1     -10.270  18.281  68.610  1.00  0.00    -0.377 A  
HETATM   19  C   UNL     1      -9.980  19.583  68.200  1.00  0.00    -0.522 A  
HETATM   20  C   UNL     1     -10.027  19.909  66.850  1.00  0.00    -0.563 A  
HETATM   21  C   UNL     1     -10.330  18.924  65.912  1.00  0.00    -0.408 A  
HETATM   22  C   UNL     1     -10.623  17.618  66.325  1.00  0.00    -0.215 A  
ENDBRANCH  14  17
ENDBRANCH  12  13
ENDBRANCH  11  12
ENDBRANCH  10  11
ENDBRANCH   9  10
ENDBRANCH   8   9
ENDBRANCH   7   8
ENDBRANCH   4   7
TORSDOF 8
ENDMDL
MODEL      144
REMARK 921   NORMALIZED FREE ENERGY PREDICTED BY IDOCK:   -4.06 KCAL/MOL
REMARK 922        TOTAL FREE ENERGY PREDICTED BY IDOCK:   -6.74 KCAL/MOL
REMARK 923 INTER-LIGAND FREE ENERGY PREDICTED BY IDOCK:   -5.69 KCAL/MOL
REMARK 924 INTRA-LIGAND FREE ENERGY PREDICTED BY IDOCK:   -1.06 KCAL/MOL
REMARK 927      BINDING AFFINITY PREDICTED BY RF-SCORE:    0.00 PKD
ROOT
HETATM    1  O   UNL     1     -12.383  10.541  68.645  1.00  0.00    -0.785 OA 
HETATM    2  N   UNL     1     -11.773   9.760  69.639  1.00  0.00    -0.451 N  
HETATM    3  H   UNL     1     -12.156  10.412  67.732  1.00  0.00     0.000 HD 
HETATM    4  C   UNL     1     -12.100   9.944  70.952  1.00  0.00    -0.341 C  
HETATM    5  H   UNL     1     -11.084   9.054  69.380  1.00  0.00     0.000 HD 
HETATM    6  O   UNL     1     -11.580   9.249  71.823  1.00  0.00    -0.366 OA 
ENDROOT
BRANCH   4   7
HETATM    7  C   UNL     1     -13.112  11.036  71.238  1.00  0.00    -0.381 C  
BRANCH   7   8
HETATM    8  C   UNL     1     -12.442  12.344  71.650  1.00  0.00    -0.031 C  
BRANCH   8   9
HETATM    9  C   UNL     1     -12.899  13.497  70.764  1.00  0.00    -0.243 C  
BRANCH   9  10
HETATM   10  C   UNL     1     -11.903  14.660  70.803  1.00  0.00    -0.372 C  
BRANCH  10  11
HETATM   11  C   UNL     1     -11.064  14.651  69.535  1.00  0.00    -0.294 C  
BRANCH  11  12
HETATM   12  C   UNL     1     -11.836  14.252  68.275  1.00  0.00    -0.370 C  
BRANCH  12  13
HETATM   13  C   UNL     1     -10.847  13.694  67.262  1.00  0.00    -0.284 C  
HETATM   14  N   UNL     1     -10.623  12.334  67.379  1.00  0.00    -0.219 N  
HETATM   15  O   UNL     1     -10.335  14.430  66.420  1.00  0.00    -0.276 OA 
HETATM   16  H   UNL     1     -11.105  11.834  68.126  1.00  0.00     0.000 HD 
BRANCH  14  17
HETATM   17  C   UNL     1      -9.767  11.592  66.527  1.00  0.00    -0.206 A  
HETATM   18  C   UNL     1     -10.246  10.763  65.508  1.00  0.00    -0.330 A  
HETATM   19  C   UNL     1      -9.379   9.964  64.762  1.00  0.00    -0.339 A  
HETATM   20  C   UNL     1      -8.013  10.006  65.012  1.00  0.00    -0.143 A  
HETATM   21  C   UNL     1      -7.515  10.872  65.984  1.00  0.00    -0.086 A  
HETATM   22  C   UNL     1      -8.387  11.673  66.733  1.00  0.00    -0.171 A  
ENDBRANCH  14  17
ENDBRANCH  12  13
ENDBRANCH  11  12
ENDBRANCH  10  11
ENDBRANCH   9  10
ENDBRANCH   8   9
ENDBRANCH   7   8
ENDBRANCH   4   7
TORSDOF 8
ENDMDL
MODEL      145
REMARK 921   NORMALIZED FREE ENERGY PREDICTED BY IDOCK:   -4.06 KCAL/MOL
REMARK 922        TOTAL FREE ENERGY PREDICTED BY IDOCK:   -6.74 KCAL/MOL
REMARK 923 INTER-LIGAND FREE ENERGY PREDICTED BY IDOCK:   -6.07 KCAL/MOL
REMARK 924 INTRA-LIGAND FREE ENERGY PREDICTED BY IDOCK:   -0.67 KCAL/MOL
REMARK 927      BINDING AFFINITY PREDICTED BY RF-SCORE:    0.00 PKD
ROOT
HETATM    1  O   UNL     1      -6.456  19.230  68.521  1.00  0.00    -0.234 OA 
HETATM    2  N   UNL     1      -6.243  18.743  67.222  1.00  0.00    -0.178 N  
HETATM    3  H   UNL     1      -5.925  18.911  69.242  1.00  0.00     0.000 HD 
HETATM    4  C   UNL     1      -7.006  19.201  66.186  1.00  0.00    -0.244 C  
HETATM    5  H   UNL     1      -5.518  18.046  67.052  1.00  0.00     0.000 HD 
HETATM    6  O   UNL     1      -6.809  18.790  65.044  1.00  0.00    -0.504 OA 
ENDROOT
BRANCH   4   7
HETATM    7  C   UNL     1      -8.075  20.214  66.545  1.00  0.00    -0.315 C  
BRANCH   7   8
HETATM    8  C   UNL     1      -9.481  19.639  66.395  1.00  0.00    -0.479 C  
BRANCH   8   9
HETATM    9  C   UNL     1     -10.101  19.344  67.756  1.00  0.00    -0.508 C  
BRANCH   9  10
HETATM   10  C   UNL     1     -10.628  17.908  67.831  1.00  0.00    -0.387 C  
BRANCH  10  11
HETATM   11  C   UNL     1      -9.714  16.992  67.033  1.00  0.00    -0.264 C  
BRANCH  11  12
HETATM   12  C   UNL     1     -10.452  16.034  66.094  1.00  0.00    -0.334 C  
BRANCH  12  13
HETATM   13  C   UNL     1      -9.947  14.623  66.353  1.00  0.00    -0.283 C  
HETATM   14  N   UNL     1     -10.803  13.626  65.918  1.00  0.00    -0.274 N  
HETATM   15  O   UNL     1      -8.854  14.439  66.888  1.00  0.00    -0.228 OA 
HETATM   16  H   UNL     1     -11.686  13.908  65.494  1.00  0.00     0.000 HD 
BRANCH  14  17
HETATM   17  C   UNL     1     -10.530  12.240  66.025  1.00  0.00    -0.254 A  
HETATM   18  C   UNL     1      -9.822  11.530  65.051  1.00  0.00    -0.294 A  
HETATM   19  C   UNL     1      -9.668  10.146  65.137  1.00  0.00    -0.370 A  
HETATM   20  C   UNL     1     -10.201   9.457  66.219  1.00  0.00    -0.284 A  
HETATM   21  C   UNL     1     -10.857  10.159  67.229  1.00  0.00    -0.295 A  
HETATM   22  C   UNL     1     -11.012  11.549  67.141  1.00  0.00    -0.338 A  
ENDBRANCH  14  17
ENDBRANCH  12  13
ENDBRANCH  11  12
ENDBRANCH  10  11
ENDBRANCH   9  10
ENDBRANCH   8   9
ENDBRANCH   7   8
ENDBRANCH   4   7
TORSDOF 8
ENDMDL
MODEL      146
REMARK 921   NORMALIZED FREE ENERGY PREDICTED BY IDOCK:   -4.05 KCAL/MOL
REMARK 922        TOTAL FREE ENERGY PREDICTED BY IDOCK:   -6.73 KCAL/MOL
REMARK 923 INTER-LIGAND FREE ENERGY PREDICTED BY IDOCK:   -6.23 KCAL/MOL
REMARK 924 INTRA-LIGAND FREE ENERGY PREDICTED BY IDOCK:   -0.50 KCAL/MOL
REMARK 927      BINDING AFFINITY PREDICTED BY RF-SCORE:    0.00 PKD
ROOT
HETATM    1  O   UNL     1     -11.521  16.684  70.675  1.00  0.00    -0.523 OA 
HETATM    2  N   UNL     1     -11.740  16.534  72.054  1.00  0.00    -0.594 N  
HETATM    3  H   UNL     1     -10.805  17.225  70.363  1.00  0.00     0.000 HD 
HETATM    4  C   UNL     1     -12.769  15.757  72.503  1.00  0.00    -0.451 C  
HETATM    5  H   UNL     1     -11.129  17.006  72.720  1.00  0.00     0.000 HD 
HETATM    6  O   UNL     1     -12.951  15.608  73.710  1.00  0.00    -0.522 OA 
ENDROOT
BRANCH   4   7
HETATM    7  C   UNL     1     -13.637  15.121  71.435  1.00  0.00    -0.570 C  
BRANCH   7   8
HETATM    8  C   UNL     1     -14.136  13.740  71.851  1.00  0.00    -0.415 C  
BRANCH   8   9
HETATM    9  C   UNL     1     -12.990  12.737  71.909  1.00  0.00    -0.400 C  
BRANCH   9  10
HETATM   10  C   UNL     1     -13.505  11.312  72.131  1.00  0.00    -0.197 C  
BRANCH  10  11
HETATM   11  C   UNL     1     -13.044  10.423  70.987  1.00  0.00    -0.450 C  
BRANCH  11  12
HETATM   12  C   UNL     1     -11.526  10.245  70.903  1.00  0.00    -0.425 C  
BRANCH  12  13
HETATM   13  C   UNL     1     -11.146  10.047  69.443  1.00  0.00    -0.223 C  
HETATM   14  N   UNL     1      -9.978   9.329  69.255  1.00  0.00    -0.174 N  
HETATM   15  O   UNL     1     -11.862  10.490  68.546  1.00  0.00    -0.349 OA 
HETATM   16  H   UNL     1      -9.469   9.021  70.083  1.00  0.00     0.000 HD 
BRANCH  14  17
HETATM   17  C   UNL     1      -9.445   8.996  67.985  1.00  0.00    -0.142 A  
HETATM   18  C   UNL     1      -8.581   9.841  67.280  1.00  0.00    -0.128 A  
HETATM   19  C   UNL     1      -8.165   9.529  65.986  1.00  0.00    -0.115 A  
HETATM   20  C   UNL     1      -8.591   8.349  65.388  1.00  0.00    -0.193 A  
HETATM   21  C   UNL     1      -9.404   7.469  66.100  1.00  0.00    -0.128 A  
HETATM   22  C   UNL     1      -9.822   7.783  67.400  1.00  0.00    -0.230 A  
ENDBRANCH  14  17
ENDBRANCH  12  13
ENDBRANCH  11  12
ENDBRANCH  10  11
ENDBRANCH   9  10
ENDBRANCH   8   9
ENDBRANCH   7   8
ENDBRANCH   4   7
TORSDOF 8
ENDMDL
MODEL      147
REMARK 921   NORMALIZED FREE ENERGY PREDICTED BY IDOCK:   -4.05 KCAL/MOL
REMARK 922        TOTAL FREE ENERGY PREDICTED BY IDOCK:   -6.73 KCAL/MOL
REMARK 923 INTER-LIGAND FREE ENERGY PREDICTED BY IDOCK:   -6.21 KCAL/MOL
REMARK 924 INTRA-LIGAND FREE ENERGY PREDICTED BY IDOCK:   -0.52 KCAL/MOL
REMARK 927      BINDING AFFINITY PREDICTED BY RF-SCORE:    0.00 PKD
ROOT
HETATM    1  O   UNL     1     -10.697  19.777  67.177  1.00  0.00    -0.466 OA 
HETATM    2  N   UNL     1      -9.535  19.229  67.743  1.00  0.00    -0.308 N  
HETATM    3  H   UNL     1     -10.694  20.671  66.855  1.00  0.00     0.000 HD 
HETATM    4  C   UNL     1      -9.540  17.944  68.205  1.00  0.00    -0.306 C  
HETATM    5  H   UNL     1      -8.687  19.792  67.810  1.00  0.00     0.000 HD 
HETATM    6  O   UNL     1      -8.518  17.456  68.684  1.00  0.00    -0.268 OA 
ENDROOT
BRANCH   4   7
HETATM    7  C   UNL     1     -10.855  17.199  68.087  1.00  0.00    -0.316 C  
BRANCH   7   8
HETATM    8  C   UNL     1     -10.734  15.749  68.546  1.00  0.00    -0.274 C  
BRANCH   8   9
HETATM    9  C   UNL     1     -11.920  15.349  69.416  1.00  0.00    -0.351 C  
BRANCH   9  10
HETATM   10  C   UNL     1     -11.925  13.843  69.696  1.00  0.00    -0.399 C  
BRANCH  10  11
HETATM   11  C   UNL     1     -11.574  13.090  68.423  1.00  0.00    -0.370 C  
BRANCH  11  12
HETATM   12  C   UNL     1     -10.373  12.151  68.560  1.00  0.00    -0.233 C  
BRANCH  12  13
HETATM   13  C   UNL     1     -10.885  10.766  68.924  1.00  0.00    -0.227 C  
HETATM   14  N   UNL     1     -10.874  10.496  70.281  1.00  0.00    -0.446 N  
HETATM   15  O   UNL     1     -11.283   9.998  68.049  1.00  0.00    -0.244 OA 
HETATM   16  H   UNL     1     -10.512  11.215  70.907  1.00  0.00     0.000 HD 
BRANCH  14  17
HETATM   17  C   UNL     1     -11.333   9.285  70.855  1.00  0.00    -0.308 A  
HETATM   18  C   UNL     1     -10.541   8.135  70.933  1.00  0.00    -0.236 A  
HETATM   19  C   UNL     1     -11.063   6.930  71.403  1.00  0.00    -0.284 A  
HETATM   20  C   UNL     1     -12.384   6.869  71.828  1.00  0.00    -0.401 A  
HETATM   21  C   UNL     1     -13.169   8.021  71.814  1.00  0.00    -0.367 A  
HETATM   22  C   UNL     1     -12.643   9.230  71.340  1.00  0.00    -0.411 A  
ENDBRANCH  14  17
ENDBRANCH  12  13
ENDBRANCH  11  12
ENDBRANCH  10  11
ENDBRANCH   9  10
ENDBRANCH   8   9
ENDBRANCH   7   8
ENDBRANCH   4   7
TORSDOF 8
ENDMDL
MODEL      148
REMARK 921   NORMALIZED FREE ENERGY PREDICTED BY IDOCK:   -4.05 KCAL/MOL
REMARK 922        TOTAL FREE ENERGY PREDICTED BY IDOCK:   -6.73 KCAL/MOL
REMARK 923 INTER-LIGAND FREE ENERGY PREDICTED BY IDOCK:   -6.03 KCAL/MOL
REMARK 924 INTRA-LIGAND FREE ENERGY PREDICTED BY IDOCK:   -0.69 KCAL/MOL
REMARK 927      BINDING AFFINITY PREDICTED BY RF-SCORE:    0.00 PKD
ROOT
HETATM    1  O   UNL     1     -11.548  14.282  69.308  1.00  0.00    -0.267 OA 
HETATM    2  N   UNL     1     -10.459  14.365  68.426  1.00  0.00    -0.239 N  
HETATM    3  H   UNL     1     -11.406  14.342  70.246  1.00  0.00     0.000 HD 
HETATM    4  C   UNL     1     -10.663  14.278  67.078  1.00  0.00    -0.290 C  
HETATM    5  H   UNL     1      -9.516  14.491  68.792  1.00  0.00     0.000 HD 
HETATM    6  O   UNL     1      -9.714  14.370  66.302  1.00  0.00    -0.286 OA 
ENDROOT
BRANCH   4   7
HETATM    7  C   UNL     1     -12.096  14.064  66.634  1.00  0.00    -0.487 C  
BRANCH   7   8
HETATM    8  C   UNL     1     -12.232  14.066  65.114  1.00  0.00    -0.446 C  
BRANCH   8   9
HETATM    9  C   UNL     1     -12.842  12.762  64.616  1.00  0.00    -0.355 C  
BRANCH   9  10
HETATM   10  C   UNL     1     -12.067  12.202  63.419  1.00  0.00    -0.608 C  
BRANCH  10  11
HETATM   11  C   UNL     1     -10.578  12.226  63.725  1.00  0.00    -0.488 C  
BRANCH  11  12
HETATM   12  C   UNL     1      -9.880  10.874  63.554  1.00  0.00    -0.407 C  
BRANCH  12  13
HETATM   13  C   UNL     1      -9.606  10.297  64.934  1.00  0.00    -0.304 C  
HETATM   14  N   UNL     1     -10.231  10.975  65.966  1.00  0.00    -0.245 N  
HETATM   15  O   UNL     1      -8.900   9.298  65.064  1.00  0.00    -0.182 OA 
HETATM   16  H   UNL     1     -10.787  11.796  65.729  1.00  0.00     0.000 HD 
BRANCH  14  17
HETATM   17  C   UNL     1     -10.146  10.602  67.330  1.00  0.00    -0.199 A  
HETATM   18  C   UNL     1     -11.191  10.804  68.238  1.00  0.00    -0.358 A  
HETATM   19  C   UNL     1     -11.030  10.526  69.595  1.00  0.00    -0.333 A  
HETATM   20  C   UNL     1      -9.824  10.013  70.058  1.00  0.00    -0.247 A  
HETATM   21  C   UNL     1      -8.795   9.749  69.156  1.00  0.00    -0.160 A  
HETATM   22  C   UNL     1      -8.957  10.030  67.793  1.00  0.00    -0.133 A  
ENDBRANCH  14  17
ENDBRANCH  12  13
ENDBRANCH  11  12
ENDBRANCH  10  11
ENDBRANCH   9  10
ENDBRANCH   8   9
ENDBRANCH   7   8
ENDBRANCH   4   7
TORSDOF 8
ENDMDL
MODEL      149
REMARK 921   NORMALIZED FREE ENERGY PREDICTED BY IDOCK:   -4.04 KCAL/MOL
REMARK 922        TOTAL FREE ENERGY PREDICTED BY IDOCK:   -6.72 KCAL/MOL
REMARK 923 INTER-LIGAND FREE ENERGY PREDICTED BY IDOCK:   -6.04 KCAL/MOL
REMARK 924 INTRA-LIGAND FREE ENERGY PREDICTED BY IDOCK:   -0.68 KCAL/MOL
REMARK 927      BINDING AFFINITY PREDICTED BY RF-SCORE:    0.00 PKD
ROOT
HETATM    1  O   UNL     1     -11.869  14.474  66.609  1.00  0.00    -0.393 OA 
HETATM    2  N   UNL     1     -11.368  13.339  67.265  1.00  0.00    -0.299 N  
HETATM    3  H   UNL     1     -11.784  14.556  65.667  1.00  0.00     0.000 HD 
HETATM    4  C   UNL     1     -11.489  13.222  68.620  1.00  0.00    -0.304 C  
HETATM    5  H   UNL     1     -10.912  12.601  66.728  1.00  0.00     0.000 HD 
HETATM    6  O   UNL     1     -11.068  12.220  69.195  1.00  0.00    -0.238 OA 
ENDROOT
BRANCH   4   7
HETATM    7  C   UNL     1     -12.155  14.383  69.331  1.00  0.00    -0.338 C  
BRANCH   7   8
HETATM    8  C   UNL     1     -12.057  14.257  70.849  1.00  0.00    -0.417 C  
BRANCH   8   9
HETATM    9  C   UNL     1     -13.404  13.883  71.456  1.00  0.00    -0.406 C  
BRANCH   9  10
HETATM   10  C   UNL     1     -13.303  12.609  72.299  1.00  0.00    -0.527 C  
BRANCH  10  11
HETATM   11  C   UNL     1     -13.049  11.418  71.388  1.00  0.00    -0.377 C  
BRANCH  11  12
HETATM   12  C   UNL     1     -13.192  10.059  72.078  1.00  0.00    -0.545 C  
BRANCH  12  13
HETATM   13  C   UNL     1     -12.017   9.186  71.665  1.00  0.00    -0.367 C  
HETATM   14  N   UNL     1     -11.816   9.116  70.297  1.00  0.00    -0.468 N  
HETATM   15  O   UNL     1     -11.324   8.629  72.515  1.00  0.00    -0.340 OA 
HETATM   16  H   UNL     1     -12.466   9.621  69.694  1.00  0.00     0.000 HD 
BRANCH  14  17
HETATM   17  C   UNL     1     -10.766   8.390  69.683  1.00  0.00    -0.198 A  
HETATM   18  C   UNL     1      -9.554   8.979  69.309  1.00  0.00    -0.162 A  
HETATM   19  C   UNL     1      -8.588   8.258  68.608  1.00  0.00    -0.133 A  
HETATM   20  C   UNL     1      -8.814   6.924  68.294  1.00  0.00    -0.122 A  
HETATM   21  C   UNL     1      -9.991   6.306  68.713  1.00  0.00    -0.173 A  
HETATM   22  C   UNL     1     -10.961   7.031  69.416  1.00  0.00    -0.232 A  
ENDBRANCH  14  17
ENDBRANCH  12  13
ENDBRANCH  11  12
ENDBRANCH  10  11
ENDBRANCH   9  10
ENDBRANCH   8   9
ENDBRANCH   7   8
ENDBRANCH   4   7
TORSDOF 8
ENDMDL
MODEL      150
REMARK 921   NORMALIZED FREE ENERGY PREDICTED BY IDOCK:   -4.04 KCAL/MOL
REMARK 922        TOTAL FREE ENERGY PREDICTED BY IDOCK:   -6.71 KCAL/MOL
REMARK 923 INTER-LIGAND FREE ENERGY PREDICTED BY IDOCK:   -5.61 KCAL/MOL
REMARK 924 INTRA-LIGAND FREE ENERGY PREDICTED BY IDOCK:   -1.10 KCAL/MOL
REMARK 927      BINDING AFFINITY PREDICTED BY RF-SCORE:    0.00 PKD
ROOT
HETATM    1  O   UNL     1     -11.173   7.786  67.334  1.00  0.00    -0.465 OA 
HETATM    2  N   UNL     1     -11.350   6.477  66.858  1.00  0.00    -0.817 N  
HETATM    3  H   UNL     1     -11.928   8.317  67.559  1.00  0.00     0.000 HD 
HETATM    4  C   UNL     1     -10.264   5.714  66.535  1.00  0.00    -0.211 C  
HETATM    5  H   UNL     1     -12.290   6.097  66.752  1.00  0.00     0.000 HD 
HETATM    6  O   UNL     1     -10.415   4.561  66.135  1.00  0.00    -0.272 OA 
ENDROOT
BRANCH   4   7
HETATM    7  C   UNL     1      -8.911   6.378  66.699  1.00  0.00    -0.145 C  
BRANCH   7   8
HETATM    8  C   UNL     1      -8.221   5.960  67.994  1.00  0.00    -0.105 C  
BRANCH   8   9
HETATM    9  C   UNL     1      -7.350   7.086  68.539  1.00  0.00    -0.100 C  
BRANCH   9  10
HETATM   10  C   UNL     1      -7.444   8.339  67.663  1.00  0.00    -0.094 C  
BRANCH  10  11
HETATM   11  C   UNL     1      -7.461   9.575  68.549  1.00  0.00    -0.080 C  
BRANCH  11  12
HETATM   12  C   UNL     1      -8.858  10.151  68.796  1.00  0.00    -0.146 C  
BRANCH  12  13
HETATM   13  C   UNL     1      -9.209  11.074  67.639  1.00  0.00    -0.149 C  
HETATM   14  N   UNL     1     -10.413  10.779  67.025  1.00  0.00    -0.235 N  
HETATM   15  O   UNL     1      -8.461  12.001  67.331  1.00  0.00    -0.154 OA 
HETATM   16  H   UNL     1     -10.941   9.978  67.370  1.00  0.00     0.000 HD 
BRANCH  14  17
HETATM   17  C   UNL     1     -10.959  11.520  65.948  1.00  0.00    -0.243 A  
HETATM   18  C   UNL     1     -10.664  11.241  64.609  1.00  0.00    -0.371 A  
HETATM   19  C   UNL     1     -11.131  12.061  63.582  1.00  0.00    -0.525 A  
HETATM   20  C   UNL     1     -11.926  13.160  63.882  1.00  0.00    -0.550 A  
HETATM   21  C   UNL     1     -12.279  13.416  65.206  1.00  0.00    -0.478 A  
HETATM   22  C   UNL     1     -11.808  12.593  66.237  1.00  0.00    -0.471 A  
ENDBRANCH  14  17
ENDBRANCH  12  13
ENDBRANCH  11  12
ENDBRANCH  10  11
ENDBRANCH   9  10
ENDBRANCH   8   9
ENDBRANCH   7   8
ENDBRANCH   4   7
TORSDOF 8
ENDMDL
MODEL      151
REMARK 921   NORMALIZED FREE ENERGY PREDICTED BY IDOCK:   -4.01 KCAL/MOL
REMARK 922        TOTAL FREE ENERGY PREDICTED BY IDOCK:   -6.68 KCAL/MOL
REMARK 923 INTER-LIGAND FREE ENERGY PREDICTED BY IDOCK:   -5.78 KCAL/MOL
REMARK 924 INTRA-LIGAND FREE ENERGY PREDICTED BY IDOCK:   -0.90 KCAL/MOL
REMARK 927      BINDING AFFINITY PREDICTED BY RF-SCORE:    0.00 PKD
ROOT
HETATM    1  O   UNL     1     -13.040  10.533  69.878  1.00  0.00    -0.496 OA 
HETATM    2  N   UNL     1     -11.727  10.282  69.451  1.00  0.00    -0.464 N  
HETATM    3  H   UNL     1     -13.500   9.891  70.406  1.00  0.00     0.000 HD 
HETATM    4  C   UNL     1     -11.066  11.205  68.691  1.00  0.00    -0.239 C  
HETATM    5  H   UNL     1     -11.266   9.409  69.708  1.00  0.00     0.000 HD 
HETATM    6  O   UNL     1      -9.909  10.995  68.331  1.00  0.00    -0.168 OA 
ENDROOT
BRANCH   4   7
HETATM    7  C   UNL     1     -11.846  12.456  68.338  1.00  0.00    -0.361 C  
BRANCH   7   8
HETATM    8  C   UNL     1     -11.063  13.372  67.401  1.00  0.00    -0.297 C  
BRANCH   8   9
HETATM    9  C   UNL     1     -11.997  14.306  66.641  1.00  0.00    -0.454 C  
BRANCH   9  10
HETATM   10  C   UNL     1     -12.525  13.650  65.362  1.00  0.00    -0.537 C  
BRANCH  10  11
HETATM   11  C   UNL     1     -11.357  13.288  64.459  1.00  0.00    -0.392 C  
BRANCH  11  12
HETATM   12  C   UNL     1     -11.609  12.071  63.564  1.00  0.00    -0.553 C  
BRANCH  12  13
HETATM   13  C   UNL     1     -10.479  11.075  63.779  1.00  0.00    -0.341 C  
HETATM   14  N   UNL     1     -10.180  10.837  65.109  1.00  0.00    -0.296 N  
HETATM   15  O   UNL     1      -9.928  10.539  62.818  1.00  0.00    -0.243 OA 
HETATM   16  H   UNL     1     -10.706  11.350  65.816  1.00  0.00     0.000 HD 
BRANCH  14  17
HETATM   17  C   UNL     1      -9.188   9.927  65.550  1.00  0.00    -0.203 A  
HETATM   18  C   UNL     1      -9.486   8.626  65.971  1.00  0.00    -0.278 A  
HETATM   19  C   UNL     1      -8.499   7.797  66.503  1.00  0.00    -0.132 A  
HETATM   20  C   UNL     1      -7.190   8.252  66.595  1.00  0.00    -0.081 A  
HETATM   21  C   UNL     1      -6.866   9.523  66.124  1.00  0.00    -0.090 A  
HETATM   22  C   UNL     1      -7.858  10.356  65.592  1.00  0.00    -0.154 A  
ENDBRANCH  14  17
ENDBRANCH  12  13
ENDBRANCH  11  12
ENDBRANCH  10  11
ENDBRANCH   9  10
ENDBRANCH   8   9
ENDBRANCH   7   8
ENDBRANCH   4   7
TORSDOF 8
ENDMDL
MODEL      152
REMARK 921   NORMALIZED FREE ENERGY PREDICTED BY IDOCK:   -4.01 KCAL/MOL
REMARK 922        TOTAL FREE ENERGY PREDICTED BY IDOCK:   -6.67 KCAL/MOL
REMARK 923 INTER-LIGAND FREE ENERGY PREDICTED BY IDOCK:   -6.03 KCAL/MOL
REMARK 924 INTRA-LIGAND FREE ENERGY PREDICTED BY IDOCK:   -0.64 KCAL/MOL
REMARK 927      BINDING AFFINITY PREDICTED BY RF-SCORE:    0.00 PKD
ROOT
HETATM    1  O   UNL     1     -10.757   4.327  64.257  1.00  0.00    -0.477 OA 
HETATM    2  N   UNL     1     -11.257   4.690  65.518  1.00  0.00    -0.946 N  
HETATM    3  H   UNL     1     -11.273   3.775  63.682  1.00  0.00     0.000 HD 
HETATM    4  C   UNL     1     -10.515   5.483  66.345  1.00  0.00    -0.236 C  
HETATM    5  H   UNL     1     -12.175   4.361  65.815  1.00  0.00     0.000 HD 
HETATM    6  O   UNL     1     -10.958   5.819  67.442  1.00  0.00    -0.249 OA 
ENDROOT
BRANCH   4   7
HETATM    7  C   UNL     1      -9.152   5.897  65.825  1.00  0.00    -0.101 C  
BRANCH   7   8
HETATM    8  C   UNL     1      -8.958   7.410  65.869  1.00  0.00    -0.114 C  
BRANCH   8   9
HETATM    9  C   UNL     1      -7.702   7.824  65.110  1.00  0.00    -0.101 C  
BRANCH   9  10
HETATM   10  C   UNL     1      -7.926   9.118  64.322  1.00  0.00    -0.139 C  
BRANCH  10  11
HETATM   11  C   UNL     1      -9.265   9.723  64.712  1.00  0.00    -0.319 C  
BRANCH  11  12
HETATM   12  C   UNL     1      -9.965  10.480  63.581  1.00  0.00    -0.299 C  
BRANCH  12  13
HETATM   13  C   UNL     1     -10.623  11.720  64.168  1.00  0.00    -0.353 C  
HETATM   14  N   UNL     1     -10.141  12.080  65.414  1.00  0.00    -0.252 N  
HETATM   15  O   UNL     1     -11.488  12.325  63.537  1.00  0.00    -0.436 OA 
HETATM   16  H   UNL     1      -9.424  11.491  65.837  1.00  0.00     0.000 HD 
BRANCH  14  17
HETATM   17  C   UNL     1     -10.582  13.214  66.140  1.00  0.00    -0.279 A  
HETATM   18  C   UNL     1     -10.146  14.513  65.854  1.00  0.00    -0.346 A  
HETATM   19  C   UNL     1     -10.515  15.590  66.660  1.00  0.00    -0.299 A  
HETATM   20  C   UNL     1     -11.350  15.384  67.751  1.00  0.00    -0.308 A  
HETATM   21  C   UNL     1     -11.841  14.105  68.012  1.00  0.00    -0.400 A  
HETATM   22  C   UNL     1     -11.469  13.024  67.204  1.00  0.00    -0.379 A  
ENDBRANCH  14  17
ENDBRANCH  12  13
ENDBRANCH  11  12
ENDBRANCH  10  11
ENDBRANCH   9  10
ENDBRANCH   8   9
ENDBRANCH   7   8
ENDBRANCH   4   7
TORSDOF 8
ENDMDL
MODEL      153
REMARK 921   NORMALIZED FREE ENERGY PREDICTED BY IDOCK:   -4.00 KCAL/MOL
REMARK 922        TOTAL FREE ENERGY PREDICTED BY IDOCK:   -6.66 KCAL/MOL
REMARK 923 INTER-LIGAND FREE ENERGY PREDICTED BY IDOCK:   -6.85 KCAL/MOL
REMARK 924 INTRA-LIGAND FREE ENERGY PREDICTED BY IDOCK:    0.19 KCAL/MOL
REMARK 927      BINDING AFFINITY PREDICTED BY RF-SCORE:    0.00 PKD
ROOT
HETATM    1  O   UNL     1     -13.306  15.754  70.472  1.00  0.00    -0.767 OA 
HETATM    2  N   UNL     1     -12.948  15.827  71.828  1.00  0.00    -0.459 N  
HETATM    3  H   UNL     1     -13.173  16.504  69.904  1.00  0.00     0.000 HD 
HETATM    4  C   UNL     1     -13.140  14.749  72.644  1.00  0.00    -0.441 C  
HETATM    5  H   UNL     1     -12.544  16.685  72.202  1.00  0.00     0.000 HD 
HETATM    6  O   UNL     1     -12.810  14.803  73.828  1.00  0.00    -0.503 OA 
ENDROOT
BRANCH   4   7
HETATM    7  C   UNL     1     -13.772  13.531  72.001  1.00  0.00    -0.568 C  
BRANCH   7   8
HETATM    8  C   UNL     1     -12.728  12.508  71.562  1.00  0.00    -0.325 C  
BRANCH   8   9
HETATM    9  C   UNL     1     -13.221  11.085  71.796  1.00  0.00    -0.505 C  
BRANCH   9  10
HETATM   10  C   UNL     1     -12.643  10.115  70.761  1.00  0.00    -0.406 C  
BRANCH  10  11
HETATM   11  C   UNL     1     -11.281   9.628  71.229  1.00  0.00    -0.446 C  
BRANCH  11  12
HETATM   12  C   UNL     1     -11.336   8.431  72.181  1.00  0.00    -0.437 C  
BRANCH  12  13
HETATM   13  C   UNL     1     -10.814   7.207  71.445  1.00  0.00    -0.231 C  
HETATM   14  N   UNL     1     -10.653   6.090  72.245  1.00  0.00    -0.208 N  
HETATM   15  O   UNL     1     -10.591   7.254  70.236  1.00  0.00    -0.218 OA 
HETATM   16  H   UNL     1     -10.868   6.180  73.238  1.00  0.00     0.000 HD 
BRANCH  14  17
HETATM   17  C   UNL     1     -10.210   4.830  71.773  1.00  0.00    -0.188 A  
HETATM   18  C   UNL     1      -9.885   4.594  70.433  1.00  0.00    -0.306 A  
HETATM   19  C   UNL     1      -9.559   3.314  69.985  1.00  0.00    -0.182 A  
HETATM   20  C   UNL     1      -9.528   2.254  70.883  1.00  0.00    -0.212 A  
HETATM   21  C   UNL     1      -9.790   2.485  72.232  1.00  0.00    -0.220 A  
HETATM   22  C   UNL     1     -10.119   3.770  72.681  1.00  0.00    -0.228 A  
ENDBRANCH  14  17
ENDBRANCH  12  13
ENDBRANCH  11  12
ENDBRANCH  10  11
ENDBRANCH   9  10
ENDBRANCH   8   9
ENDBRANCH   7   8
ENDBRANCH   4   7
TORSDOF 8
ENDMDL
MODEL      154
REMARK 921   NORMALIZED FREE ENERGY PREDICTED BY IDOCK:   -3.99 KCAL/MOL
REMARK 922        TOTAL FREE ENERGY PREDICTED BY IDOCK:   -6.65 KCAL/MOL
REMARK 923 INTER-LIGAND FREE ENERGY PREDICTED BY IDOCK:   -5.77 KCAL/MOL
REMARK 924 INTRA-LIGAND FREE ENERGY PREDICTED BY IDOCK:   -0.88 KCAL/MOL
REMARK 927      BINDING AFFINITY PREDICTED BY RF-SCORE:    0.00 PKD
ROOT
HETATM    1  O   UNL     1      -7.715  12.139  69.074  1.00  0.00    -0.312 OA 
HETATM    2  N   UNL     1      -6.711  12.760  69.834  1.00  0.00    -0.349 N  
HETATM    3  H   UNL     1      -7.882  11.209  69.175  1.00  0.00     0.000 HD 
HETATM    4  C   UNL     1      -6.471  14.096  69.689  1.00  0.00    -0.134 C  
HETATM    5  H   UNL     1      -6.160  12.212  70.495  1.00  0.00     0.000 HD 
HETATM    6  O   UNL     1      -5.605  14.647  70.366  1.00  0.00    -0.120 OA 
ENDROOT
BRANCH   4   7
HETATM    7  C   UNL     1      -7.322  14.818  68.662  1.00  0.00    -0.123 C  
BRANCH   7   8
HETATM    8  C   UNL     1      -7.208  16.334  68.788  1.00  0.00    -0.179 C  
BRANCH   8   9
HETATM    9  C   UNL     1      -8.575  16.971  69.009  1.00  0.00    -0.126 C  
BRANCH   9  10
HETATM   10  C   UNL     1      -9.626  15.922  69.386  1.00  0.00    -0.265 C  
BRANCH  10  11
HETATM   11  C   UNL     1     -10.924  16.219  68.654  1.00  0.00    -0.340 C  
BRANCH  11  12
HETATM   12  C   UNL     1     -10.743  16.984  67.340  1.00  0.00    -0.240 C  
BRANCH  12  13
HETATM   13  C   UNL     1     -10.456  15.979  66.235  1.00  0.00    -0.320 C  
HETATM   14  N   UNL     1     -11.168  14.797  66.347  1.00  0.00    -0.341 N  
HETATM   15  O   UNL     1      -9.667  16.252  65.332  1.00  0.00    -0.473 OA 
HETATM   16  H   UNL     1     -11.789  14.688  67.148  1.00  0.00     0.000 HD 
BRANCH  14  17
HETATM   17  C   UNL     1     -11.087  13.730  65.418  1.00  0.00    -0.302 A  
HETATM   18  C   UNL     1     -11.997  13.567  64.368  1.00  0.00    -0.466 A  
HETATM   19  C   UNL     1     -11.952  12.445  63.542  1.00  0.00    -0.627 A  
HETATM   20  C   UNL     1     -10.973  11.479  63.741  1.00  0.00    -0.485 A  
HETATM   21  C   UNL     1     -10.022  11.656  64.745  1.00  0.00    -0.292 A  
HETATM   22  C   UNL     1     -10.069  12.784  65.575  1.00  0.00    -0.278 A  
ENDBRANCH  14  17
ENDBRANCH  12  13
ENDBRANCH  11  12
ENDBRANCH  10  11
ENDBRANCH   9  10
ENDBRANCH   8   9
ENDBRANCH   7   8
ENDBRANCH   4   7
TORSDOF 8
ENDMDL
MODEL      155
REMARK 921   NORMALIZED FREE ENERGY PREDICTED BY IDOCK:   -3.98 KCAL/MOL
REMARK 922        TOTAL FREE ENERGY PREDICTED BY IDOCK:   -6.63 KCAL/MOL
REMARK 923 INTER-LIGAND FREE ENERGY PREDICTED BY IDOCK:   -5.98 KCAL/MOL
REMARK 924 INTRA-LIGAND FREE ENERGY PREDICTED BY IDOCK:   -0.65 KCAL/MOL
REMARK 927      BINDING AFFINITY PREDICTED BY RF-SCORE:    0.00 PKD
ROOT
HETATM    1  O   UNL     1      -8.403   7.001  69.777  1.00  0.00    -0.129 OA 
HETATM    2  N   UNL     1      -9.318   6.936  68.715  1.00  0.00    -0.131 N  
HETATM    3  H   UNL     1      -7.515   7.304  69.623  1.00  0.00     0.000 HD 
HETATM    4  C   UNL     1     -10.593   6.501  68.937  1.00  0.00    -0.241 C  
HETATM    5  H   UNL     1      -9.030   7.214  67.777  1.00  0.00     0.000 HD 
HETATM    6  O   UNL     1     -11.403   6.460  68.012  1.00  0.00    -0.267 OA 
ENDROOT
BRANCH   4   7
HETATM    7  C   UNL     1     -10.917   6.084  70.358  1.00  0.00    -0.399 C  
BRANCH   7   8
HETATM    8  C   UNL     1     -12.080   6.883  70.939  1.00  0.00    -0.424 C  
BRANCH   8   9
HETATM    9  C   UNL     1     -11.581   8.111  71.691  1.00  0.00    -0.325 C  
BRANCH   9  10
HETATM   10  C   UNL     1     -12.595   9.257  71.626  1.00  0.00    -0.446 C  
BRANCH  10  11
HETATM   11  C   UNL     1     -12.144  10.275  70.592  1.00  0.00    -0.433 C  
BRANCH  11  12
HETATM   12  C   UNL     1     -10.652  10.207  70.253  1.00  0.00    -0.324 C  
BRANCH  12  13
HETATM   13  C   UNL     1     -10.433  10.886  68.910  1.00  0.00    -0.203 C  
HETATM   14  N   UNL     1     -11.560  11.507  68.399  1.00  0.00    -0.293 N  
HETATM   15  O   UNL     1      -9.325  10.874  68.377  1.00  0.00    -0.157 OA 
HETATM   16  H   UNL     1     -12.425  11.441  68.935  1.00  0.00     0.000 HD 
BRANCH  14  17
HETATM   17  C   UNL     1     -11.587  12.228  67.180  1.00  0.00    -0.353 A  
HETATM   18  C   UNL     1     -11.058  11.722  65.988  1.00  0.00    -0.363 A  
HETATM   19  C   UNL     1     -11.003  12.505  64.835  1.00  0.00    -0.335 A  
HETATM   20  C   UNL     1     -11.504  13.800  64.854  1.00  0.00    -0.351 A  
HETATM   21  C   UNL     1     -12.089  14.298  66.017  1.00  0.00    -0.423 A  
HETATM   22  C   UNL     1     -12.143  13.512  67.175  1.00  0.00    -0.386 A  
ENDBRANCH  14  17
ENDBRANCH  12  13
ENDBRANCH  11  12
ENDBRANCH  10  11
ENDBRANCH   9  10
ENDBRANCH   8   9
ENDBRANCH   7   8
ENDBRANCH   4   7
TORSDOF 8
ENDMDL
MODEL      156
REMARK 921   NORMALIZED FREE ENERGY PREDICTED BY IDOCK:   -3.98 KCAL/MOL
REMARK 922        TOTAL FREE ENERGY PREDICTED BY IDOCK:   -6.63 KCAL/MOL
REMARK 923 INTER-LIGAND FREE ENERGY PREDICTED BY IDOCK:   -5.98 KCAL/MOL
REMARK 924 INTRA-LIGAND FREE ENERGY PREDICTED BY IDOCK:   -0.65 KCAL/MOL
REMARK 927      BINDING AFFINITY PREDICTED BY RF-SCORE:    0.00 PKD
ROOT
HETATM    1  O   UNL     1      -8.719   6.849  69.043  1.00  0.00    -0.131 OA 
HETATM    2  N   UNL     1      -8.315   7.547  70.191  1.00  0.00    -0.133 N  
HETATM    3  H   UNL     1      -8.133   6.221  68.636  1.00  0.00     0.000 HD 
HETATM    4  C   UNL     1      -9.157   8.450  70.775  1.00  0.00    -0.156 C  
HETATM    5  H   UNL     1      -7.391   7.380  70.589  1.00  0.00     0.000 HD 
HETATM    6  O   UNL     1      -8.812   9.049  71.792  1.00  0.00    -0.348 OA 
ENDROOT
BRANCH   4   7
HETATM    7  C   UNL     1     -10.496   8.648  70.093  1.00  0.00    -0.228 C  
BRANCH   7   8
HETATM    8  C   UNL     1     -11.203   9.912  70.576  1.00  0.00    -0.399 C  
BRANCH   8   9
HETATM    9  C   UNL     1     -12.550   9.579  71.207  1.00  0.00    -0.425 C  
BRANCH   9  10
HETATM   10  C   UNL     1     -13.141  10.791  71.934  1.00  0.00    -0.557 C  
BRANCH  10  11
HETATM   11  C   UNL     1     -12.931  12.039  71.092  1.00  0.00    -0.252 C  
BRANCH  11  12
HETATM   12  C   UNL     1     -13.157  13.351  71.848  1.00  0.00    -0.476 C  
BRANCH  12  13
HETATM   13  C   UNL     1     -12.548  14.484  71.035  1.00  0.00    -0.340 C  
HETATM   14  N   UNL     1     -11.478  14.102  70.245  1.00  0.00    -0.476 N  
HETATM   15  O   UNL     1     -13.020  15.619  71.096  1.00  0.00    -0.480 OA 
HETATM   16  H   UNL     1     -11.177  13.129  70.287  1.00  0.00     0.000 HD 
BRANCH  14  17
HETATM   17  C   UNL     1     -10.775  14.979  69.381  1.00  0.00    -0.261 A  
HETATM   18  C   UNL     1      -9.656  15.710  69.791  1.00  0.00    -0.192 A  
HETATM   19  C   UNL     1      -9.058  16.646  68.947  1.00  0.00    -0.238 A  
HETATM   20  C   UNL     1      -9.559  16.841  67.666  1.00  0.00    -0.244 A  
HETATM   21  C   UNL     1     -10.636  16.076  67.222  1.00  0.00    -0.313 A  
HETATM   22  C   UNL     1     -11.237  15.138  68.071  1.00  0.00    -0.329 A  
ENDBRANCH  14  17
ENDBRANCH  12  13
ENDBRANCH  11  12
ENDBRANCH  10  11
ENDBRANCH   9  10
ENDBRANCH   8   9
ENDBRANCH   7   8
ENDBRANCH   4   7
TORSDOF 8
ENDMDL
MODEL      157
REMARK 921   NORMALIZED FREE ENERGY PREDICTED BY IDOCK:   -3.98 KCAL/MOL
REMARK 922        TOTAL FREE ENERGY PREDICTED BY IDOCK:   -6.62 KCAL/MOL
REMARK 923 INTER-LIGAND FREE ENERGY PREDICTED BY IDOCK:   -6.98 KCAL/MOL
REMARK 924 INTRA-LIGAND FREE ENERGY PREDICTED BY IDOCK:    0.36 KCAL/MOL
REMARK 927      BINDING AFFINITY PREDICTED BY RF-SCORE:    0.00 PKD
ROOT
HETATM    1  O   UNL     1      -9.103  18.495  67.977  1.00  0.00    -0.287 OA 
HETATM    2  N   UNL     1     -10.186  18.523  67.084  1.00  0.00    -0.358 N  
HETATM    3  H   UNL     1      -9.115  19.040  68.756  1.00  0.00     0.000 HD 
HETATM    4  C   UNL     1     -10.169  17.741  65.964  1.00  0.00    -0.293 C  
HETATM    5  H   UNL     1     -10.985  19.128  67.271  1.00  0.00     0.000 HD 
HETATM    6  O   UNL     1     -11.124  17.749  65.189  1.00  0.00    -0.554 OA 
ENDROOT
BRANCH   4   7
HETATM    7  C   UNL     1      -8.925  16.899  65.759  1.00  0.00     0.096 C  
BRANCH   7   8
HETATM    8  C   UNL     1      -9.193  15.415  65.995  1.00  0.00    -0.333 C  
BRANCH   8   9
HETATM    9  C   UNL     1     -10.398  14.941  65.191  1.00  0.00    -0.431 C  
BRANCH   9  10
HETATM   10  C   UNL     1     -10.670  13.451  65.417  1.00  0.00    -0.307 C  
BRANCH  10  11
HETATM   11  C   UNL     1     -11.316  13.255  66.780  1.00  0.00    -0.359 C  
BRANCH  11  12
HETATM   12  C   UNL     1     -10.346  13.382  67.958  1.00  0.00    -0.242 C  
BRANCH  12  13
HETATM   13  C   UNL     1     -10.914  14.395  68.940  1.00  0.00    -0.255 C  
HETATM   14  N   UNL     1     -11.693  13.839  69.939  1.00  0.00    -0.369 N  
HETATM   15  O   UNL     1     -10.653  15.591  68.824  1.00  0.00    -0.228 OA 
HETATM   16  H   UNL     1     -11.840  12.830  69.923  1.00  0.00     0.000 HD 
BRANCH  14  17
HETATM   17  C   UNL     1     -12.300  14.582  70.982  1.00  0.00    -0.347 A  
HETATM   18  C   UNL     1     -11.594  15.497  71.770  1.00  0.00    -0.515 A  
HETATM   19  C   UNL     1     -12.198  16.128  72.857  1.00  0.00    -0.640 A  
HETATM   20  C   UNL     1     -13.530  15.869  73.154  1.00  0.00    -0.650 A  
HETATM   21  C   UNL     1     -14.264  15.006  72.342  1.00  0.00    -0.516 A  
HETATM   22  C   UNL     1     -13.656  14.372  71.251  1.00  0.00    -0.389 A  
ENDBRANCH  14  17
ENDBRANCH  12  13
ENDBRANCH  11  12
ENDBRANCH  10  11
ENDBRANCH   9  10
ENDBRANCH   8   9
ENDBRANCH   7   8
ENDBRANCH   4   7
TORSDOF 8
ENDMDL
MODEL      158
REMARK 921   NORMALIZED FREE ENERGY PREDICTED BY IDOCK:   -3.96 KCAL/MOL
REMARK 922        TOTAL FREE ENERGY PREDICTED BY IDOCK:   -6.59 KCAL/MOL
REMARK 923 INTER-LIGAND FREE ENERGY PREDICTED BY IDOCK:   -6.19 KCAL/MOL
REMARK 924 INTRA-LIGAND FREE ENERGY PREDICTED BY IDOCK:   -0.40 KCAL/MOL
REMARK 927      BINDING AFFINITY PREDICTED BY RF-SCORE:    0.00 PKD
ROOT
HETATM    1  O   UNL     1     -10.541  15.063  70.485  1.00  0.00    -0.504 OA 
HETATM    2  N   UNL     1     -11.267  15.391  69.329  1.00  0.00    -0.274 N  
HETATM    3  H   UNL     1     -10.452  15.698  71.187  1.00  0.00     0.000 HD 
HETATM    4  C   UNL     1     -11.396  14.479  68.321  1.00  0.00    -0.297 C  
HETATM    5  H   UNL     1     -11.698  16.311  69.242  1.00  0.00     0.000 HD 
HETATM    6  O   UNL     1     -12.047  14.757  67.315  1.00  0.00    -0.307 OA 
ENDROOT
BRANCH   4   7
HETATM    7  C   UNL     1     -10.696  13.151  68.531  1.00  0.00    -0.277 C  
BRANCH   7   8
HETATM    8  C   UNL     1     -11.684  11.993  68.635  1.00  0.00    -0.380 C  
BRANCH   8   9
HETATM    9  C   UNL     1     -12.052  11.716  70.089  1.00  0.00    -0.414 C  
BRANCH   9  10
HETATM   10  C   UNL     1     -11.796  10.252  70.460  1.00  0.00    -0.419 C  
BRANCH  10  11
HETATM   11  C   UNL     1     -12.678   9.867  71.637  1.00  0.00    -0.527 C  
BRANCH  11  12
HETATM   12  C   UNL     1     -12.228   8.601  72.371  1.00  0.00    -0.419 C  
BRANCH  12  13
HETATM   13  C   UNL     1     -12.149   7.464  71.364  1.00  0.00    -0.327 C  
HETATM   14  N   UNL     1     -10.870   7.199  70.908  1.00  0.00    -0.239 N  
HETATM   15  O   UNL     1     -13.163   6.851  71.034  1.00  0.00    -0.234 OA 
HETATM   16  H   UNL     1     -10.110   7.785  71.254  1.00  0.00     0.000 HD 
BRANCH  14  17
HETATM   17  C   UNL     1     -10.550   6.167  69.992  1.00  0.00    -0.261 A  
HETATM   18  C   UNL     1     -10.019   4.936  70.392  1.00  0.00    -0.316 A  
HETATM   19  C   UNL     1      -9.614   3.987  69.453  1.00  0.00    -0.257 A  
HETATM   20  C   UNL     1      -9.759   4.250  68.097  1.00  0.00    -0.165 A  
HETATM   21  C   UNL     1     -10.342   5.447  67.684  1.00  0.00    -0.235 A  
HETATM   22  C   UNL     1     -10.748   6.400  68.627  1.00  0.00    -0.341 A  
ENDBRANCH  14  17
ENDBRANCH  12  13
ENDBRANCH  11  12
ENDBRANCH  10  11
ENDBRANCH   9  10
ENDBRANCH   8   9
ENDBRANCH   7   8
ENDBRANCH   4   7
TORSDOF 8
ENDMDL
MODEL      159
REMARK 921   NORMALIZED FREE ENERGY PREDICTED BY IDOCK:   -3.95 KCAL/MOL
REMARK 922        TOTAL FREE ENERGY PREDICTED BY IDOCK:   -6.59 KCAL/MOL
REMARK 923 INTER-LIGAND FREE ENERGY PREDICTED BY IDOCK:   -5.93 KCAL/MOL
REMARK 924 INTRA-LIGAND FREE ENERGY PREDICTED BY IDOCK:   -0.66 KCAL/MOL
REMARK 927      BINDING AFFINITY PREDICTED BY RF-SCORE:    0.00 PKD
ROOT
HETATM    1  O   UNL     1     -14.283  13.529  72.554  1.00  0.00    -0.734 OA 
HETATM    2  N   UNL     1     -13.165  14.346  72.783  1.00  0.00    -0.495 N  
HETATM    3  H   UNL     1     -14.899  13.357  73.256  1.00  0.00     0.000 HD 
HETATM    4  C   UNL     1     -12.279  14.593  71.774  1.00  0.00    -0.338 C  
HETATM    5  H   UNL     1     -13.015  14.756  73.705  1.00  0.00     0.000 HD 
HETATM    6  O   UNL     1     -11.309  15.323  71.967  1.00  0.00    -0.433 OA 
ENDROOT
BRANCH   4   7
HETATM    7  C   UNL     1     -12.574  13.916  70.450  1.00  0.00    -0.350 C  
BRANCH   7   8
HETATM    8  C   UNL     1     -11.864  12.570  70.324  1.00  0.00    -0.305 C  
BRANCH   8   9
HETATM    9  C   UNL     1     -11.409  12.322  68.891  1.00  0.00    -0.337 C  
BRANCH   9  10
HETATM   10  C   UNL     1     -12.101  13.275  67.911  1.00  0.00    -0.270 C  
BRANCH  10  11
HETATM   11  C   UNL     1     -11.270  13.390  66.644  1.00  0.00    -0.330 C  
BRANCH  11  12
HETATM   12  C   UNL     1     -11.283  14.783  66.010  1.00  0.00    -0.341 C  
BRANCH  12  13
HETATM   13  C   UNL     1     -10.528  15.735  66.925  1.00  0.00    -0.315 C  
HETATM   14  N   UNL     1      -9.152  15.604  66.867  1.00  0.00    -0.220 N  
HETATM   15  O   UNL     1     -11.137  16.548  67.620  1.00  0.00    -0.255 OA 
HETATM   16  H   UNL     1      -8.767  14.887  66.253  1.00  0.00     0.000 HD 
BRANCH  14  17
HETATM   17  C   UNL     1      -8.245  16.403  67.606  1.00  0.00    -0.153 A  
HETATM   18  C   UNL     1      -8.015  17.753  67.317  1.00  0.00    -0.223 A  
HETATM   19  C   UNL     1      -7.034  18.477  67.995  1.00  0.00    -0.236 A  
HETATM   20  C   UNL     1      -6.287  17.864  68.992  1.00  0.00    -0.232 A  
HETATM   21  C   UNL     1      -6.546  16.537  69.332  1.00  0.00    -0.213 A  
HETATM   22  C   UNL     1      -7.530  15.810  68.651  1.00  0.00    -0.151 A  
ENDBRANCH  14  17
ENDBRANCH  12  13
ENDBRANCH  11  12
ENDBRANCH  10  11
ENDBRANCH   9  10
ENDBRANCH   8   9
ENDBRANCH   7   8
ENDBRANCH   4   7
TORSDOF 8
ENDMDL
MODEL      160
REMARK 921   NORMALIZED FREE ENERGY PREDICTED BY IDOCK:   -3.95 KCAL/MOL
REMARK 922        TOTAL FREE ENERGY PREDICTED BY IDOCK:   -6.58 KCAL/MOL
REMARK 923 INTER-LIGAND FREE ENERGY PREDICTED BY IDOCK:   -6.07 KCAL/MOL
REMARK 924 INTRA-LIGAND FREE ENERGY PREDICTED BY IDOCK:   -0.51 KCAL/MOL
REMARK 927      BINDING AFFINITY PREDICTED BY RF-SCORE:    0.00 PKD
ROOT
HETATM    1  O   UNL     1      -6.340  17.627  68.409  1.00  0.00    -0.177 OA 
HETATM    2  N   UNL     1      -5.478  17.845  67.323  1.00  0.00    -0.125 N  
HETATM    3  H   UNL     1      -5.987  17.369  69.253  1.00  0.00     0.000 HD 
HETATM    4  C   UNL     1      -5.985  18.215  66.110  1.00  0.00    -0.193 C  
HETATM    5  H   UNL     1      -4.472  17.727  67.441  1.00  0.00     0.000 HD 
HETATM    6  O   UNL     1      -5.230  18.425  65.162  1.00  0.00    -0.154 OA 
ENDROOT
BRANCH   4   7
HETATM    7  C   UNL     1      -7.494  18.336  66.029  1.00  0.00    -0.255 C  
BRANCH   7   8
HETATM    8  C   UNL     1      -7.948  19.791  65.956  1.00  0.00    -0.339 C  
BRANCH   8   9
HETATM    9  C   UNL     1      -9.220  20.009  66.768  1.00  0.00    -0.494 C  
BRANCH   9  10
HETATM   10  C   UNL     1     -10.309  19.003  66.382  1.00  0.00    -0.520 C  
BRANCH  10  11
HETATM   11  C   UNL     1     -11.083  18.594  67.625  1.00  0.00    -0.030 C  
BRANCH  11  12
HETATM   12  C   UNL     1     -10.222  17.955  68.718  1.00  0.00    -0.362 C  
BRANCH  12  13
HETATM   13  C   UNL     1     -10.968  16.751  69.274  1.00  0.00    -0.197 C  
HETATM   14  N   UNL     1     -11.370  16.893  70.591  1.00  0.00    -0.270 N  
HETATM   15  O   UNL     1     -11.187  15.770  68.565  1.00  0.00    -0.314 OA 
HETATM   16  H   UNL     1     -11.121  17.755  71.075  1.00  0.00     0.000 HD 
BRANCH  14  17
HETATM   17  C   UNL     1     -12.105  15.917  71.307  1.00  0.00    -0.438 A  
HETATM   18  C   UNL     1     -11.602  15.270  72.441  1.00  0.00    -0.515 A  
HETATM   19  C   UNL     1     -12.309  14.236  73.055  1.00  0.00    -0.100 A  
HETATM   20  C   UNL     1     -13.546  13.853  72.553  1.00  0.00    -0.680 A  
HETATM   21  C   UNL     1     -14.088  14.528  71.461  1.00  0.00    -0.493 A  
HETATM   22  C   UNL     1     -13.377  15.565  70.845  1.00  0.00    -0.414 A  
ENDBRANCH  14  17
ENDBRANCH  12  13
ENDBRANCH  11  12
ENDBRANCH  10  11
ENDBRANCH   9  10
ENDBRANCH   8   9
ENDBRANCH   7   8
ENDBRANCH   4   7
TORSDOF 8
ENDMDL
MODEL      161
REMARK 921   NORMALIZED FREE ENERGY PREDICTED BY IDOCK:   -3.95 KCAL/MOL
REMARK 922        TOTAL FREE ENERGY PREDICTED BY IDOCK:   -6.58 KCAL/MOL
REMARK 923 INTER-LIGAND FREE ENERGY PREDICTED BY IDOCK:   -5.67 KCAL/MOL
REMARK 924 INTRA-LIGAND FREE ENERGY PREDICTED BY IDOCK:   -0.91 KCAL/MOL
REMARK 927      BINDING AFFINITY PREDICTED BY RF-SCORE:    0.00 PKD
ROOT
HETATM    1  O   UNL     1      -7.827  12.263  68.901  1.00  0.00    -0.305 OA 
HETATM    2  N   UNL     1      -6.987  11.501  69.728  1.00  0.00    -0.346 N  
HETATM    3  H   UNL     1      -7.545  13.118  68.595  1.00  0.00     0.000 HD 
HETATM    4  C   UNL     1      -7.392  10.272  70.167  1.00  0.00    -0.103 C  
HETATM    5  H   UNL     1      -6.075  11.865  70.001  1.00  0.00     0.000 HD 
HETATM    6  O   UNL     1      -6.651   9.594  70.876  1.00  0.00    -0.123 OA 
ENDROOT
BRANCH   4   7
HETATM    7  C   UNL     1      -8.775   9.832  69.730  1.00  0.00    -0.228 C  
BRANCH   7   8
HETATM    8  C   UNL     1      -9.589   9.268  70.891  1.00  0.00    -0.339 C  
BRANCH   8   9
HETATM    9  C   UNL     1     -11.078   9.255  70.562  1.00  0.00    -0.317 C  
BRANCH   9  10
HETATM   10  C   UNL     1     -11.790  10.480  71.144  1.00  0.00    -0.391 C  
BRANCH  10  11
HETATM   11  C   UNL     1     -12.137  11.444  70.021  1.00  0.00    -0.417 C  
BRANCH  11  12
HETATM   12  C   UNL     1     -11.926  10.874  68.616  1.00  0.00    -0.185 C  
BRANCH  12  13
HETATM   13  C   UNL     1     -11.270  11.945  67.757  1.00  0.00    -0.267 C  
HETATM   14  N   UNL     1     -11.937  13.157  67.756  1.00  0.00    -0.339 N  
HETATM   15  O   UNL     1     -10.224  11.707  67.154  1.00  0.00    -0.207 OA 
HETATM   16  H   UNL     1     -12.801  13.226  68.293  1.00  0.00     0.000 HD 
BRANCH  14  17
HETATM   17  C   UNL     1     -11.497  14.306  67.054  1.00  0.00    -0.361 A  
HETATM   18  C   UNL     1     -11.519  14.398  65.658  1.00  0.00    -0.336 A  
HETATM   19  C   UNL     1     -10.975  15.500  65.000  1.00  0.00    -0.454 A  
HETATM   20  C   UNL     1     -10.423  16.542  65.735  1.00  0.00    -0.343 A  
HETATM   21  C   UNL     1     -10.448  16.493  67.127  1.00  0.00    -0.300 A  
HETATM   22  C   UNL     1     -10.994  15.385  67.788  1.00  0.00    -0.311 A  
ENDBRANCH  14  17
ENDBRANCH  12  13
ENDBRANCH  11  12
ENDBRANCH  10  11
ENDBRANCH   9  10
ENDBRANCH   8   9
ENDBRANCH   7   8
ENDBRANCH   4   7
TORSDOF 8
ENDMDL
MODEL      162
REMARK 921   NORMALIZED FREE ENERGY PREDICTED BY IDOCK:   -3.94 KCAL/MOL
REMARK 922        TOTAL FREE ENERGY PREDICTED BY IDOCK:   -6.57 KCAL/MOL
REMARK 923 INTER-LIGAND FREE ENERGY PREDICTED BY IDOCK:   -5.53 KCAL/MOL
REMARK 924 INTRA-LIGAND FREE ENERGY PREDICTED BY IDOCK:   -1.04 KCAL/MOL
REMARK 927      BINDING AFFINITY PREDICTED BY RF-SCORE:    0.00 PKD
ROOT
HETATM    1  O   UNL     1     -10.293  13.195  69.014  1.00  0.00    -0.422 OA 
HETATM    2  N   UNL     1      -8.923  13.070  68.733  1.00  0.00    -0.384 N  
HETATM    3  H   UNL     1     -10.604  13.911  69.555  1.00  0.00     0.000 HD 
HETATM    4  C   UNL     1      -8.476  12.041  67.955  1.00  0.00    -0.160 C  
HETATM    5  H   UNL     1      -8.262  13.750  69.109  1.00  0.00     0.000 HD 
HETATM    6  O   UNL     1      -7.279  11.940  67.691  1.00  0.00    -0.095 OA 
ENDROOT
BRANCH   4   7
HETATM    7  C   UNL     1      -9.531  11.068  67.467  1.00  0.00    -0.175 C  
BRANCH   7   8
HETATM    8  C   UNL     1      -8.918   9.772  66.945  1.00  0.00    -0.154 C  
BRANCH   8   9
HETATM    9  C   UNL     1      -9.994   8.825  66.426  1.00  0.00    -0.346 C  
BRANCH   9  10
HETATM   10  C   UNL     1      -9.612   7.361  66.663  1.00  0.00    -0.251 C  
BRANCH  10  11
HETATM   11  C   UNL     1      -8.697   7.266  67.872  1.00  0.00    -0.123 C  
BRANCH  11  12
HETATM   12  C   UNL     1      -9.195   6.314  68.963  1.00  0.00    -0.127 C  
BRANCH  12  13
HETATM   13  C   UNL     1     -10.442   6.916  69.592  1.00  0.00    -0.218 C  
HETATM   14  N   UNL     1     -10.221   8.107  70.260  1.00  0.00    -0.197 N  
HETATM   15  O   UNL     1     -11.533   6.360  69.470  1.00  0.00    -0.407 OA 
HETATM   16  H   UNL     1      -9.266   8.463  70.296  1.00  0.00     0.000 HD 
BRANCH  14  17
HETATM   17  C   UNL     1     -11.236   8.864  70.895  1.00  0.00    -0.279 A  
HETATM   18  C   UNL     1     -11.924   8.410  72.026  1.00  0.00    -0.419 A  
HETATM   19  C   UNL     1     -12.993   9.132  72.557  1.00  0.00    -0.416 A  
HETATM   20  C   UNL     1     -13.370  10.336  71.977  1.00  0.00    -0.466 A  
HETATM   21  C   UNL     1     -12.655  10.831  70.887  1.00  0.00    -0.498 A  
HETATM   22  C   UNL     1     -11.583  10.105  70.353  1.00  0.00    -0.396 A  
ENDBRANCH  14  17
ENDBRANCH  12  13
ENDBRANCH  11  12
ENDBRANCH  10  11
ENDBRANCH   9  10
ENDBRANCH   8   9
ENDBRANCH   7   8
ENDBRANCH   4   7
TORSDOF 8
ENDMDL
MODEL      163
REMARK 921   NORMALIZED FREE ENERGY PREDICTED BY IDOCK:   -3.94 KCAL/MOL
REMARK 922        TOTAL FREE ENERGY PREDICTED BY IDOCK:   -6.57 KCAL/MOL
REMARK 923 INTER-LIGAND FREE ENERGY PREDICTED BY IDOCK:   -5.46 KCAL/MOL
REMARK 924 INTRA-LIGAND FREE ENERGY PREDICTED BY IDOCK:   -1.10 KCAL/MOL
REMARK 927      BINDING AFFINITY PREDICTED BY RF-SCORE:    0.00 PKD
ROOT
HETATM    1  O   UNL     1      -8.006   9.912  70.710  1.00  0.00    -0.395 OA 
HETATM    2  N   UNL     1      -7.549   8.587  70.646  1.00  0.00    -0.069 N  
HETATM    3  H   UNL     1      -7.862  10.501  69.978  1.00  0.00     0.000 HD 
HETATM    4  C   UNL     1      -7.757   7.740  71.697  1.00  0.00    -0.088 C  
HETATM    5  H   UNL     1      -7.061   8.256  69.814  1.00  0.00     0.000 HD 
HETATM    6  O   UNL     1      -7.374   6.573  71.637  1.00  0.00    -0.084 OA 
ENDROOT
BRANCH   4   7
HETATM    7  C   UNL     1      -8.465   8.333  72.899  1.00  0.00    -0.260 C  
BRANCH   7   8
HETATM    8  C   UNL     1      -9.310   7.297  73.635  1.00  0.00    -0.278 C  
BRANCH   8   9
HETATM    9  C   UNL     1     -10.774   7.388  73.219  1.00  0.00    -0.441 C  
BRANCH   9  10
HETATM   10  C   UNL     1     -11.190   6.183  72.371  1.00  0.00    -0.329 C  
BRANCH  10  11
HETATM   11  C   UNL     1     -11.864   6.668  71.097  1.00  0.00    -0.414 C  
BRANCH  11  12
HETATM   12  C   UNL     1     -11.004   6.526  69.839  1.00  0.00    -0.393 C  
BRANCH  12  13
HETATM   13  C   UNL     1     -10.753   7.914  69.270  1.00  0.00    -0.135 C  
HETATM   14  N   UNL     1     -10.747   7.966  67.887  1.00  0.00    -0.442 N  
HETATM   15  O   UNL     1     -10.597   8.877  70.019  1.00  0.00    -0.210 OA 
HETATM   16  H   UNL     1     -10.882   7.094  67.376  1.00  0.00     0.000 HD 
BRANCH  14  17
HETATM   17  C   UNL     1     -10.564   9.154  67.137  1.00  0.00    -0.216 A  
HETATM   18  C   UNL     1     -11.138  10.376  67.500  1.00  0.00    -0.336 A  
HETATM   19  C   UNL     1     -11.028  11.497  66.678  1.00  0.00    -0.349 A  
HETATM   20  C   UNL     1     -10.315  11.415  65.489  1.00  0.00    -0.317 A  
HETATM   21  C   UNL     1      -9.686  10.220  65.142  1.00  0.00    -0.364 A  
HETATM   22  C   UNL     1      -9.799   9.095  65.968  1.00  0.00    -0.342 A  
ENDBRANCH  14  17
ENDBRANCH  12  13
ENDBRANCH  11  12
ENDBRANCH  10  11
ENDBRANCH   9  10
ENDBRANCH   8   9
ENDBRANCH   7   8
ENDBRANCH   4   7
TORSDOF 8
ENDMDL
MODEL      164
REMARK 921   NORMALIZED FREE ENERGY PREDICTED BY IDOCK:   -3.94 KCAL/MOL
REMARK 922        TOTAL FREE ENERGY PREDICTED BY IDOCK:   -6.57 KCAL/MOL
REMARK 923 INTER-LIGAND FREE ENERGY PREDICTED BY IDOCK:   -5.96 KCAL/MOL
REMARK 924 INTRA-LIGAND FREE ENERGY PREDICTED BY IDOCK:   -0.61 KCAL/MOL
REMARK 927      BINDING AFFINITY PREDICTED BY RF-SCORE:    0.00 PKD
ROOT
HETATM    1  O   UNL     1     -10.940   5.329  66.069  1.00  0.00    -0.713 OA 
HETATM    2  N   UNL     1     -10.250   4.333  66.778  1.00  0.00    -0.287 N  
HETATM    3  H   UNL     1     -11.333   5.128  65.228  1.00  0.00     0.000 HD 
HETATM    4  C   UNL     1      -9.686   4.620  67.988  1.00  0.00    -0.140 C  
HETATM    5  H   UNL     1     -10.170   3.393  66.388  1.00  0.00     0.000 HD 
HETATM    6  O   UNL     1      -9.096   3.745  68.619  1.00  0.00    -0.117 OA 
ENDROOT
BRANCH   4   7
HETATM    7  C   UNL     1      -9.834   6.050  68.468  1.00  0.00    -0.156 C  
BRANCH   7   8
HETATM    8  C   UNL     1     -11.106   6.249  69.288  1.00  0.00    -0.461 C  
BRANCH   8   9
HETATM    9  C   UNL     1     -10.904   5.802  70.731  1.00  0.00    -0.330 C  
BRANCH   9  10
HETATM   10  C   UNL     1      -9.555   6.277  71.280  1.00  0.00    -0.189 C  
BRANCH  10  11
HETATM   11  C   UNL     1      -9.773   7.003  72.598  1.00  0.00    -0.173 C  
BRANCH  11  12
HETATM   12  C   UNL     1     -10.989   7.933  72.609  1.00  0.00    -0.440 C  
BRANCH  12  13
HETATM   13  C   UNL     1     -10.721   9.087  71.655  1.00  0.00    -0.371 C  
HETATM   14  N   UNL     1     -11.858   9.609  71.064  1.00  0.00    -0.322 N  
HETATM   15  O   UNL     1      -9.574   9.496  71.477  1.00  0.00    -0.207 OA 
HETATM   16  H   UNL     1     -12.754   9.177  71.290  1.00  0.00     0.000 HD 
BRANCH  14  17
HETATM   17  C   UNL     1     -11.856  10.705  70.167  1.00  0.00    -0.337 A  
HETATM   18  C   UNL     1     -11.407  10.603  68.846  1.00  0.00    -0.337 A  
HETATM   19  C   UNL     1     -11.316  11.728  68.026  1.00  0.00    -0.355 A  
HETATM   20  C   UNL     1     -11.700  12.971  68.513  1.00  0.00    -0.377 A  
HETATM   21  C   UNL     1     -12.206  13.079  69.808  1.00  0.00    -0.242 A  
HETATM   22  C   UNL     1     -12.296  11.949  70.630  1.00  0.00    -0.405 A  
ENDBRANCH  14  17
ENDBRANCH  12  13
ENDBRANCH  11  12
ENDBRANCH  10  11
ENDBRANCH   9  10
ENDBRANCH   8   9
ENDBRANCH   7   8
ENDBRANCH   4   7
TORSDOF 8
ENDMDL
MODEL      165
REMARK 921   NORMALIZED FREE ENERGY PREDICTED BY IDOCK:   -3.94 KCAL/MOL
REMARK 922        TOTAL FREE ENERGY PREDICTED BY IDOCK:   -6.57 KCAL/MOL
REMARK 923 INTER-LIGAND FREE ENERGY PREDICTED BY IDOCK:   -5.83 KCAL/MOL
REMARK 924 INTRA-LIGAND FREE ENERGY PREDICTED BY IDOCK:   -0.74 KCAL/MOL
REMARK 927      BINDING AFFINITY PREDICTED BY RF-SCORE:    0.00 PKD
ROOT
HETATM    1  O   UNL     1     -12.987   7.106  71.515  1.00  0.00    -0.374 OA 
HETATM    2  N   UNL     1     -12.169   6.287  72.308  1.00  0.00    -0.518 N  
HETATM    3  H   UNL     1     -13.785   6.756  71.134  1.00  0.00     0.000 HD 
HETATM    4  C   UNL     1     -11.023   6.790  72.856  1.00  0.00    -0.263 C  
HETATM    5  H   UNL     1     -12.431   5.316  72.476  1.00  0.00     0.000 HD 
HETATM    6  O   UNL     1     -10.314   6.080  73.567  1.00  0.00    -0.210 OA 
ENDROOT
BRANCH   4   7
HETATM    7  C   UNL     1     -10.706   8.235  72.525  1.00  0.00    -0.411 C  
BRANCH   7   8
HETATM    8  C   UNL     1      -9.313   8.392  71.923  1.00  0.00    -0.313 C  
BRANCH   8   9
HETATM    9  C   UNL     1      -9.362   9.194  70.628  1.00  0.00    -0.312 C  
BRANCH   9  10
HETATM   10  C   UNL     1     -10.433   8.653  69.676  1.00  0.00    -0.220 C  
BRANCH  10  11
HETATM   11  C   UNL     1     -11.471   9.733  69.416  1.00  0.00    -0.015 C  
BRANCH  11  12
HETATM   12  C   UNL     1     -10.932  11.161  69.527  1.00  0.00    -0.276 C  
BRANCH  12  13
HETATM   13  C   UNL     1     -11.756  11.905  70.568  1.00  0.00    -0.007 C  
HETATM   14  N   UNL     1     -11.715  13.283  70.442  1.00  0.00    -0.543 N  
HETATM   15  O   UNL     1     -12.401  11.286  71.412  1.00  0.00    -0.299 OA 
HETATM   16  H   UNL     1     -11.136  13.677  69.702  1.00  0.00     0.000 HD 
BRANCH  14  17
HETATM   17  C   UNL     1     -12.426  14.179  71.278  1.00  0.00    -0.370 A  
HETATM   18  C   UNL     1     -12.083  14.403  72.615  1.00  0.00    -0.029 A  
HETATM   19  C   UNL     1     -12.873  15.207  73.437  1.00  0.00    -0.661 A  
HETATM   20  C   UNL     1     -14.007  15.821  72.920  1.00  0.00    -0.467 A  
HETATM   21  C   UNL     1     -14.329  15.655  71.574  1.00  0.00    -0.261 A  
HETATM   22  C   UNL     1     -13.536  14.847  70.750  1.00  0.00    -0.279 A  
ENDBRANCH  14  17
ENDBRANCH  12  13
ENDBRANCH  11  12
ENDBRANCH  10  11
ENDBRANCH   9  10
ENDBRANCH   8   9
ENDBRANCH   7   8
ENDBRANCH   4   7
TORSDOF 8
ENDMDL
MODEL      166
REMARK 921   NORMALIZED FREE ENERGY PREDICTED BY IDOCK:   -3.94 KCAL/MOL
REMARK 922        TOTAL FREE ENERGY PREDICTED BY IDOCK:   -6.57 KCAL/MOL
REMARK 923 INTER-LIGAND FREE ENERGY PREDICTED BY IDOCK:   -5.61 KCAL/MOL
REMARK 924 INTRA-LIGAND FREE ENERGY PREDICTED BY IDOCK:   -0.96 KCAL/MOL
REMARK 927      BINDING AFFINITY PREDICTED BY RF-SCORE:    0.00 PKD
ROOT
HETATM    1  O   UNL     1      -8.572   7.244  70.839  1.00  0.00    -0.134 OA 
HETATM    2  N   UNL     1      -9.434   7.019  69.754  1.00  0.00    -0.146 N  
HETATM    3  H   UNL     1      -7.715   7.628  70.694  1.00  0.00     0.000 HD 
HETATM    4  C   UNL     1     -10.665   6.467  69.961  1.00  0.00    -0.259 C  
HETATM    5  H   UNL     1      -9.140   7.269  68.810  1.00  0.00     0.000 HD 
HETATM    6  O   UNL     1     -11.430   6.286  69.015  1.00  0.00    -0.363 OA 
ENDROOT
BRANCH   4   7
HETATM    7  C   UNL     1     -10.999   6.103  71.395  1.00  0.00    -0.334 C  
BRANCH   7   8
HETATM    8  C   UNL     1     -12.269   6.796  71.880  1.00  0.00    -0.377 C  
BRANCH   8   9
HETATM    9  C   UNL     1     -11.992   8.246  72.261  1.00  0.00    -0.448 C  
BRANCH   9  10
HETATM   10  C   UNL     1     -13.283   9.070  72.300  1.00  0.00    -0.519 C  
BRANCH  10  11
HETATM   11  C   UNL     1     -13.334   9.988  71.090  1.00  0.00    -0.379 C  
BRANCH  11  12
HETATM   12  C   UNL     1     -12.383  11.185  71.169  1.00  0.00    -0.451 C  
BRANCH  12  13
HETATM   13  C   UNL     1     -11.703  11.349  69.819  1.00  0.00    -0.344 C  
HETATM   14  N   UNL     1     -10.821  10.330  69.501  1.00  0.00    -0.238 N  
HETATM   15  O   UNL     1     -11.967  12.312  69.099  1.00  0.00    -0.297 OA 
HETATM   16  H   UNL     1     -10.684   9.588  70.187  1.00  0.00     0.000 HD 
BRANCH  14  17
HETATM   17  C   UNL     1     -10.098  10.254  68.286  1.00  0.00    -0.154 A  
HETATM   18  C   UNL     1      -9.013  11.089  67.995  1.00  0.00    -0.145 A  
HETATM   19  C   UNL     1      -8.397  11.060  66.745  1.00  0.00    -0.147 A  
HETATM   20  C   UNL     1      -8.843  10.172  65.774  1.00  0.00    -0.177 A  
HETATM   21  C   UNL     1      -9.884   9.293  66.069  1.00  0.00    -0.363 A  
HETATM   22  C   UNL     1     -10.503   9.323  67.324  1.00  0.00    -0.334 A  
ENDBRANCH  14  17
ENDBRANCH  12  13
ENDBRANCH  11  12
ENDBRANCH  10  11
ENDBRANCH   9  10
ENDBRANCH   8   9
ENDBRANCH   7   8
ENDBRANCH   4   7
TORSDOF 8
ENDMDL
MODEL      167
REMARK 921   NORMALIZED FREE ENERGY PREDICTED BY IDOCK:   -3.92 KCAL/MOL
REMARK 922        TOTAL FREE ENERGY PREDICTED BY IDOCK:   -6.55 KCAL/MOL
REMARK 923 INTER-LIGAND FREE ENERGY PREDICTED BY IDOCK:   -5.76 KCAL/MOL
REMARK 924 INTRA-LIGAND FREE ENERGY PREDICTED BY IDOCK:   -0.79 KCAL/MOL
REMARK 927      BINDING AFFINITY PREDICTED BY RF-SCORE:    0.00 PKD
ROOT
HETATM    1  O   UNL     1     -12.501   8.884  70.681  1.00  0.00    -0.493 OA 
HETATM    2  N   UNL     1     -11.566   8.487  71.649  1.00  0.00    -0.279 N  
HETATM    3  H   UNL     1     -12.936   9.725  70.755  1.00  0.00     0.000 HD 
HETATM    4  C   UNL     1     -10.941   7.278  71.542  1.00  0.00    -0.233 C  
HETATM    5  H   UNL     1     -11.353   9.103  72.434  1.00  0.00     0.000 HD 
HETATM    6  O   UNL     1     -10.107   6.936  72.379  1.00  0.00    -0.169 OA 
ENDROOT
BRANCH   4   7
HETATM    7  C   UNL     1     -11.345   6.422  70.357  1.00  0.00    -0.453 C  
BRANCH   7   8
HETATM    8  C   UNL     1     -10.299   6.451  69.246  1.00  0.00    -0.248 C  
BRANCH   8   9
HETATM    9  C   UNL     1     -10.957   6.408  67.872  1.00  0.00    -0.416 C  
BRANCH   9  10
HETATM   10  C   UNL     1     -10.463   7.550  66.979  1.00  0.00    -0.409 C  
BRANCH  10  11
HETATM   11  C   UNL     1     -10.524   8.858  67.750  1.00  0.00    -0.300 C  
BRANCH  11  12
HETATM   12  C   UNL     1      -9.365   9.814  67.457  1.00  0.00    -0.152 C  
BRANCH  12  13
HETATM   13  C   UNL     1      -9.666  11.151  68.118  1.00  0.00    -0.181 C  
HETATM   14  N   UNL     1     -10.981  11.300  68.519  1.00  0.00    -0.202 N  
HETATM   15  O   UNL     1      -8.774  11.984  68.276  1.00  0.00    -0.174 OA 
HETATM   16  H   UNL     1     -11.629  10.537  68.325  1.00  0.00     0.000 HD 
BRANCH  14  17
HETATM   17  C   UNL     1     -11.485  12.446  69.183  1.00  0.00    -0.302 A  
HETATM   18  C   UNL     1     -11.949  12.416  70.502  1.00  0.00    -0.284 A  
HETATM   19  C   UNL     1     -12.540  13.537  71.085  1.00  0.00    -0.438 A  
HETATM   20  C   UNL     1     -12.650  14.716  70.358  1.00  0.00    -0.399 A  
HETATM   21  C   UNL     1     -12.138  14.780  69.063  1.00  0.00    -0.256 A  
HETATM   22  C   UNL     1     -11.546  13.653  68.479  1.00  0.00    -0.371 A  
ENDBRANCH  14  17
ENDBRANCH  12  13
ENDBRANCH  11  12
ENDBRANCH  10  11
ENDBRANCH   9  10
ENDBRANCH   8   9
ENDBRANCH   7   8
ENDBRANCH   4   7
TORSDOF 8
ENDMDL
MODEL      168
REMARK 921   NORMALIZED FREE ENERGY PREDICTED BY IDOCK:   -3.92 KCAL/MOL
REMARK 922        TOTAL FREE ENERGY PREDICTED BY IDOCK:   -6.54 KCAL/MOL
REMARK 923 INTER-LIGAND FREE ENERGY PREDICTED BY IDOCK:   -6.00 KCAL/MOL
REMARK 924 INTRA-LIGAND FREE ENERGY PREDICTED BY IDOCK:   -0.54 KCAL/MOL
REMARK 927      BINDING AFFINITY PREDICTED BY RF-SCORE:    0.00 PKD
ROOT
HETATM    1  O   UNL     1     -11.838  16.517  70.922  1.00  0.00    -0.527 OA 
HETATM    2  N   UNL     1     -11.864  16.458  72.324  1.00  0.00    -0.594 N  
HETATM    3  H   UNL     1     -11.185  17.047  70.480  1.00  0.00     0.000 HD 
HETATM    4  C   UNL     1     -12.802  15.696  72.960  1.00  0.00    -0.490 C  
HETATM    5  H   UNL     1     -11.181  16.984  72.869  1.00  0.00     0.000 HD 
HETATM    6  O   UNL     1     -12.816  15.627  74.187  1.00  0.00    -0.521 OA 
ENDROOT
BRANCH   4   7
HETATM    7  C   UNL     1     -13.790  14.974  72.065  1.00  0.00    -0.578 C  
BRANCH   7   8
HETATM    8  C   UNL     1     -13.424  13.505  71.875  1.00  0.00    -0.528 C  
BRANCH   8   9
HETATM    9  C   UNL     1     -12.356  13.341  70.800  1.00  0.00    -0.425 C  
BRANCH   9  10
HETATM   10  C   UNL     1     -12.246  11.884  70.338  1.00  0.00    -0.399 C  
BRANCH  10  11
HETATM   11  C   UNL     1     -12.100  11.843  68.825  1.00  0.00    -0.182 C  
BRANCH  11  12
HETATM   12  C   UNL     1     -10.940  10.973  68.331  1.00  0.00    -0.281 C  
BRANCH  12  13
HETATM   13  C   UNL     1      -9.836  11.888  67.824  1.00  0.00    -0.184 C  
HETATM   14  N   UNL     1      -8.991  12.359  68.815  1.00  0.00    -0.386 N  
HETATM   15  O   UNL     1      -9.735  12.139  66.624  1.00  0.00    -0.208 OA 
HETATM   16  H   UNL     1      -9.185  12.082  69.777  1.00  0.00     0.000 HD 
BRANCH  14  17
HETATM   17  C   UNL     1      -7.876  13.199  68.576  1.00  0.00    -0.105 A  
HETATM   18  C   UNL     1      -7.978  14.592  68.500  1.00  0.00    -0.142 A  
HETATM   19  C   UNL     1      -6.879  15.377  68.154  1.00  0.00    -0.135 A  
HETATM   20  C   UNL     1      -5.652  14.777  67.904  1.00  0.00    -0.117 A  
HETATM   21  C   UNL     1      -5.519  13.395  68.034  1.00  0.00    -0.113 A  
HETATM   22  C   UNL     1      -6.624  12.607  68.381  1.00  0.00    -0.081 A  
ENDBRANCH  14  17
ENDBRANCH  12  13
ENDBRANCH  11  12
ENDBRANCH  10  11
ENDBRANCH   9  10
ENDBRANCH   8   9
ENDBRANCH   7   8
ENDBRANCH   4   7
TORSDOF 8
ENDMDL
MODEL      169
REMARK 921   NORMALIZED FREE ENERGY PREDICTED BY IDOCK:   -3.91 KCAL/MOL
REMARK 922        TOTAL FREE ENERGY PREDICTED BY IDOCK:   -6.53 KCAL/MOL
REMARK 923 INTER-LIGAND FREE ENERGY PREDICTED BY IDOCK:   -5.54 KCAL/MOL
REMARK 924 INTRA-LIGAND FREE ENERGY PREDICTED BY IDOCK:   -0.99 KCAL/MOL
REMARK 927      BINDING AFFINITY PREDICTED BY RF-SCORE:    0.00 PKD
ROOT
HETATM    1  O   UNL     1      -6.495  12.428  70.391  1.00  0.00    -0.466 OA 
HETATM    2  N   UNL     1      -7.119  12.852  69.208  1.00  0.00    -0.306 N  
HETATM    3  H   UNL     1      -6.300  13.056  71.078  1.00  0.00     0.000 HD 
HETATM    4  C   UNL     1      -7.400  11.951  68.221  1.00  0.00    -0.093 C  
HETATM    5  H   UNL     1      -7.363  13.835  69.085  1.00  0.00     0.000 HD 
HETATM    6  O   UNL     1      -7.963  12.316  67.191  1.00  0.00    -0.169 OA 
ENDROOT
BRANCH   4   7
HETATM    7  C   UNL     1      -6.973  10.520  68.486  1.00  0.00    -0.066 C  
BRANCH   7   8
HETATM    8  C   UNL     1      -7.987   9.512  67.952  1.00  0.00    -0.098 C  
BRANCH   8   9
HETATM    9  C   UNL     1      -8.617   8.714  69.087  1.00  0.00    -0.129 C  
BRANCH   9  10
HETATM   10  C   UNL     1      -8.977   9.615  70.272  1.00  0.00    -0.263 C  
BRANCH  10  11
HETATM   11  C   UNL     1     -10.482   9.822  70.313  1.00  0.00    -0.345 C  
BRANCH  11  12
HETATM   12  C   UNL     1     -10.940  11.195  69.814  1.00  0.00    -0.216 C  
BRANCH  12  13
HETATM   13  C   UNL     1     -11.251  11.088  68.329  1.00  0.00    -0.277 C  
HETATM   14  N   UNL     1     -11.164  12.287  67.644  1.00  0.00    -0.271 N  
HETATM   15  O   UNL     1     -11.528  10.000  67.826  1.00  0.00    -0.211 OA 
HETATM   16  H   UNL     1     -10.930  13.125  68.177  1.00  0.00     0.000 HD 
BRANCH  14  17
HETATM   17  C   UNL     1     -11.379  12.425  66.250  1.00  0.00    -0.340 A  
HETATM   18  C   UNL     1     -10.767  11.597  65.303  1.00  0.00    -0.346 A  
HETATM   19  C   UNL     1     -10.916  11.833  63.937  1.00  0.00    -0.476 A  
HETATM   20  C   UNL     1     -11.705  12.889  63.499  1.00  0.00    -0.576 A  
HETATM   21  C   UNL     1     -12.370  13.686  64.430  1.00  0.00    -0.387 A  
HETATM   22  C   UNL     1     -12.219  13.449  65.802  1.00  0.00    -0.507 A  
ENDBRANCH  14  17
ENDBRANCH  12  13
ENDBRANCH  11  12
ENDBRANCH  10  11
ENDBRANCH   9  10
ENDBRANCH   8   9
ENDBRANCH   7   8
ENDBRANCH   4   7
TORSDOF 8
ENDMDL
MODEL      170
REMARK 921   NORMALIZED FREE ENERGY PREDICTED BY IDOCK:   -3.90 KCAL/MOL
REMARK 922        TOTAL FREE ENERGY PREDICTED BY IDOCK:   -6.52 KCAL/MOL
REMARK 923 INTER-LIGAND FREE ENERGY PREDICTED BY IDOCK:   -6.06 KCAL/MOL
REMARK 924 INTRA-LIGAND FREE ENERGY PREDICTED BY IDOCK:   -0.46 KCAL/MOL
REMARK 927      BINDING AFFINITY PREDICTED BY RF-SCORE:    0.00 PKD
ROOT
HETATM    1  O   UNL     1     -13.956  15.753  71.606  1.00  0.00    -0.456 OA 
HETATM    2  N   UNL     1     -13.311  15.539  70.378  1.00  0.00    -0.779 N  
HETATM    3  H   UNL     1     -14.416  16.569  71.766  1.00  0.00     0.000 HD 
HETATM    4  C   UNL     1     -12.650  14.367  70.148  1.00  0.00    -0.286 C  
HETATM    5  H   UNL     1     -13.337  16.259  69.657  1.00  0.00     0.000 HD 
HETATM    6  O   UNL     1     -12.100  14.168  69.066  1.00  0.00    -0.343 OA 
ENDROOT
BRANCH   4   7
HETATM    7  C   UNL     1     -12.644  13.371  71.291  1.00  0.00    -0.411 C  
BRANCH   7   8
HETATM    8  C   UNL     1     -12.428  11.941  70.803  1.00  0.00    -0.384 C  
BRANCH   8   9
HETATM    9  C   UNL     1     -13.085  10.936  71.743  1.00  0.00    -0.564 C  
BRANCH   9  10
HETATM   10  C   UNL     1     -12.728   9.497  71.361  1.00  0.00    -0.445 C  
BRANCH  10  11
HETATM   11  C   UNL     1     -11.328   9.173  71.857  1.00  0.00    -0.416 C  
BRANCH  11  12
HETATM   12  C   UNL     1     -11.241   7.902  72.706  1.00  0.00    -0.466 C  
BRANCH  12  13
HETATM   13  C   UNL     1     -10.506   6.839  71.905  1.00  0.00    -0.199 C  
HETATM   14  N   UNL     1     -10.280   7.181  70.583  1.00  0.00    -0.195 N  
HETATM   15  O   UNL     1     -10.148   5.790  72.440  1.00  0.00    -0.174 OA 
HETATM   16  H   UNL     1     -10.633   8.080  70.256  1.00  0.00     0.000 HD 
BRANCH  14  17
HETATM   17  C   UNL     1      -9.589   6.362  69.656  1.00  0.00    -0.146 A  
HETATM   18  C   UNL     1      -8.198   6.394  69.507  1.00  0.00    -0.118 A  
HETATM   19  C   UNL     1      -7.564   5.655  68.508  1.00  0.00    -0.085 A  
HETATM   20  C   UNL     1      -8.315   4.851  67.661  1.00  0.00    -0.105 A  
HETATM   21  C   UNL     1      -9.695   4.762  67.836  1.00  0.00    -0.200 A  
HETATM   22  C   UNL     1     -10.331   5.505  68.838  1.00  0.00    -0.289 A  
ENDBRANCH  14  17
ENDBRANCH  12  13
ENDBRANCH  11  12
ENDBRANCH  10  11
ENDBRANCH   9  10
ENDBRANCH   8   9
ENDBRANCH   7   8
ENDBRANCH   4   7
TORSDOF 8
ENDMDL
MODEL      171
REMARK 921   NORMALIZED FREE ENERGY PREDICTED BY IDOCK:   -3.89 KCAL/MOL
REMARK 922        TOTAL FREE ENERGY PREDICTED BY IDOCK:   -6.49 KCAL/MOL
REMARK 923 INTER-LIGAND FREE ENERGY PREDICTED BY IDOCK:   -5.90 KCAL/MOL
REMARK 924 INTRA-LIGAND FREE ENERGY PREDICTED BY IDOCK:   -0.59 KCAL/MOL
REMARK 927      BINDING AFFINITY PREDICTED BY RF-SCORE:    0.00 PKD
ROOT
HETATM    1  O   UNL     1      -7.810   4.004  73.719  1.00  0.00    -0.078 OA 
HETATM    2  N   UNL     1      -7.982   5.329  74.151  1.00  0.00    -0.103 N  
HETATM    3  H   UNL     1      -6.953   3.596  73.765  1.00  0.00     0.000 HD 
HETATM    4  C   UNL     1      -9.213   5.916  74.085  1.00  0.00    -0.131 C  
HETATM    5  H   UNL     1      -7.186   5.853  74.514  1.00  0.00     0.000 HD 
HETATM    6  O   UNL     1      -9.370   7.070  74.480  1.00  0.00    -0.215 OA 
ENDROOT
BRANCH   4   7
HETATM    7  C   UNL     1     -10.325   5.066  73.504  1.00  0.00    -0.250 C  
BRANCH   7   8
HETATM    8  C   UNL     1     -10.800   5.591  72.152  1.00  0.00    -0.293 C  
BRANCH   8   9
HETATM    9  C   UNL     1     -12.184   6.220  72.263  1.00  0.00    -0.203 C  
BRANCH   9  10
HETATM   10  C   UNL     1     -12.323   7.432  71.337  1.00  0.00    -0.394 C  
BRANCH  10  11
HETATM   11  C   UNL     1     -11.969   8.697  72.101  1.00  0.00    -0.449 C  
BRANCH  11  12
HETATM   12  C   UNL     1     -10.932   9.582  71.405  1.00  0.00    -0.415 C  
BRANCH  12  13
HETATM   13  C   UNL     1     -11.667  10.584  70.528  1.00  0.00    -0.350 C  
HETATM   14  N   UNL     1     -10.853  11.263  69.639  1.00  0.00    -0.445 N  
HETATM   15  O   UNL     1     -12.885  10.725  70.628  1.00  0.00    -0.340 OA 
HETATM   16  H   UNL     1      -9.853  11.061  69.658  1.00  0.00     0.000 HD 
BRANCH  14  17
HETATM   17  C   UNL     1     -11.320  12.220  68.704  1.00  0.00    -0.291 A  
HETATM   18  C   UNL     1     -11.678  11.888  67.393  1.00  0.00    -0.326 A  
HETATM   19  C   UNL     1     -12.027  12.873  66.470  1.00  0.00    -0.447 A  
HETATM   20  C   UNL     1     -12.048  14.207  66.857  1.00  0.00    -0.466 A  
HETATM   21  C   UNL     1     -11.752  14.548  68.176  1.00  0.00    -0.369 A  
HETATM   22  C   UNL     1     -11.400  13.558  69.102  1.00  0.00    -0.333 A  
ENDBRANCH  14  17
ENDBRANCH  12  13
ENDBRANCH  11  12
ENDBRANCH  10  11
ENDBRANCH   9  10
ENDBRANCH   8   9
ENDBRANCH   7   8
ENDBRANCH   4   7
TORSDOF 8
ENDMDL
MODEL      172
REMARK 921   NORMALIZED FREE ENERGY PREDICTED BY IDOCK:   -3.88 KCAL/MOL
REMARK 922        TOTAL FREE ENERGY PREDICTED BY IDOCK:   -6.49 KCAL/MOL
REMARK 923 INTER-LIGAND FREE ENERGY PREDICTED BY IDOCK:   -5.02 KCAL/MOL
REMARK 924 INTRA-LIGAND FREE ENERGY PREDICTED BY IDOCK:   -1.47 KCAL/MOL
REMARK 927      BINDING AFFINITY PREDICTED BY RF-SCORE:    0.00 PKD
ROOT
HETATM    1  O   UNL     1      -7.655   6.678  69.620  1.00  0.00    -0.093 OA 
HETATM    2  N   UNL     1      -6.955   7.371  70.621  1.00  0.00    -0.052 N  
HETATM    3  H   UNL     1      -7.314   5.858  69.282  1.00  0.00     0.000 HD 
HETATM    4  C   UNL     1      -7.445   8.549  71.107  1.00  0.00    -0.093 C  
HETATM    5  H   UNL     1      -6.081   6.993  70.985  1.00  0.00     0.000 HD 
HETATM    6  O   UNL     1      -6.844   9.148  71.997  1.00  0.00    -0.301 OA 
ENDROOT
BRANCH   4   7
HETATM    7  C   UNL     1      -8.735   9.042  70.483  1.00  0.00    -0.238 C  
BRANCH   7   8
HETATM    8  C   UNL     1      -9.848   9.199  71.515  1.00  0.00    -0.335 C  
BRANCH   8   9
HETATM    9  C   UNL     1     -11.090   9.826  70.893  1.00  0.00    -0.428 C  
BRANCH   9  10
HETATM   10  C   UNL     1     -12.366   9.116  71.355  1.00  0.00    -0.404 C  
BRANCH  10  11
HETATM   11  C   UNL     1     -12.006   7.765  71.952  1.00  0.00    -0.340 C  
BRANCH  11  12
HETATM   12  C   UNL     1     -12.410   6.569  71.088  1.00  0.00    -0.196 C  
BRANCH  12  13
HETATM   13  C   UNL     1     -11.297   6.302  70.086  1.00  0.00    -0.406 C  
HETATM   14  N   UNL     1     -11.592   6.699  68.793  1.00  0.00    -0.546 N  
HETATM   15  O   UNL     1     -10.238   5.794  70.451  1.00  0.00    -0.194 OA 
HETATM   16  H   UNL     1     -12.511   7.103  68.616  1.00  0.00     0.000 HD 
BRANCH  14  17
HETATM   17  C   UNL     1     -10.697   6.578  67.701  1.00  0.00    -0.307 A  
HETATM   18  C   UNL     1     -10.416   5.355  67.083  1.00  0.00    -0.298 A  
HETATM   19  C   UNL     1      -9.447   5.259  66.084  1.00  0.00    -0.170 A  
HETATM   20  C   UNL     1      -8.764   6.396  65.672  1.00  0.00    -0.108 A  
HETATM   21  C   UNL     1      -9.076   7.632  66.236  1.00  0.00    -0.204 A  
HETATM   22  C   UNL     1     -10.048   7.727  67.240  1.00  0.00    -0.307 A  
ENDBRANCH  14  17
ENDBRANCH  12  13
ENDBRANCH  11  12
ENDBRANCH  10  11
ENDBRANCH   9  10
ENDBRANCH   8   9
ENDBRANCH   7   8
ENDBRANCH   4   7
TORSDOF 8
ENDMDL
MODEL      173
REMARK 921   NORMALIZED FREE ENERGY PREDICTED BY IDOCK:   -3.88 KCAL/MOL
REMARK 922        TOTAL FREE ENERGY PREDICTED BY IDOCK:   -6.49 KCAL/MOL
REMARK 923 INTER-LIGAND FREE ENERGY PREDICTED BY IDOCK:   -5.90 KCAL/MOL
REMARK 924 INTRA-LIGAND FREE ENERGY PREDICTED BY IDOCK:   -0.59 KCAL/MOL
REMARK 927      BINDING AFFINITY PREDICTED BY RF-SCORE:    0.00 PKD
ROOT
HETATM    1  O   UNL     1     -10.768  16.539  64.643  1.00  0.00    -0.757 OA 
HETATM    2  N   UNL     1     -10.163  16.472  65.908  1.00  0.00    -0.350 N  
HETATM    3  H   UNL     1     -10.489  17.196  64.016  1.00  0.00     0.000 HD 
HETATM    4  C   UNL     1     -10.565  15.528  66.809  1.00  0.00    -0.307 C  
HETATM    5  H   UNL     1      -9.423  17.130  66.154  1.00  0.00     0.000 HD 
HETATM    6  O   UNL     1     -10.024  15.455  67.911  1.00  0.00    -0.220 OA 
ENDROOT
BRANCH   4   7
HETATM    7  C   UNL     1     -11.690  14.616  66.361  1.00  0.00    -0.329 C  
BRANCH   7   8
HETATM    8  C   UNL     1     -11.918  13.466  67.338  1.00  0.00    -0.391 C  
BRANCH   8   9
HETATM    9  C   UNL     1     -11.478  12.138  66.732  1.00  0.00    -0.418 C  
BRANCH   9  10
HETATM   10  C   UNL     1     -10.934  12.323  65.313  1.00  0.00    -0.347 C  
BRANCH  10  11
HETATM   11  C   UNL     1     -10.781  10.965  64.648  1.00  0.00    -0.254 C  
BRANCH  11  12
HETATM   12  C   UNL     1      -9.330  10.500  64.498  1.00  0.00    -0.299 C  
BRANCH  12  13
HETATM   13  C   UNL     1      -9.062   9.421  65.536  1.00  0.00    -0.218 C  
HETATM   14  N   UNL     1     -10.204   8.884  66.102  1.00  0.00    -0.369 N  
HETATM   15  O   UNL     1      -7.909   9.078  65.796  1.00  0.00    -0.096 OA 
HETATM   16  H   UNL     1     -11.105   9.259  65.806  1.00  0.00     0.000 HD 
BRANCH  14  17
HETATM   17  C   UNL     1     -10.202   7.847  67.068  1.00  0.00    -0.312 A  
HETATM   18  C   UNL     1     -10.682   6.561  66.800  1.00  0.00    -0.344 A  
HETATM   19  C   UNL     1     -10.765   5.599  67.806  1.00  0.00    -0.250 A  
HETATM   20  C   UNL     1     -10.342   5.906  69.093  1.00  0.00    -0.303 A  
HETATM   21  C   UNL     1      -9.805   7.164  69.362  1.00  0.00    -0.161 A  
HETATM   22  C   UNL     1      -9.723   8.129  68.351  1.00  0.00    -0.172 A  
ENDBRANCH  14  17
ENDBRANCH  12  13
ENDBRANCH  11  12
ENDBRANCH  10  11
ENDBRANCH   9  10
ENDBRANCH   8   9
ENDBRANCH   7   8
ENDBRANCH   4   7
TORSDOF 8
ENDMDL
MODEL      174
REMARK 921   NORMALIZED FREE ENERGY PREDICTED BY IDOCK:   -3.88 KCAL/MOL
REMARK 922        TOTAL FREE ENERGY PREDICTED BY IDOCK:   -6.48 KCAL/MOL
REMARK 923 INTER-LIGAND FREE ENERGY PREDICTED BY IDOCK:   -5.94 KCAL/MOL
REMARK 924 INTRA-LIGAND FREE ENERGY PREDICTED BY IDOCK:   -0.54 KCAL/MOL
REMARK 927      BINDING AFFINITY PREDICTED BY RF-SCORE:    0.00 PKD
ROOT
HETATM    1  O   UNL     1      -9.546   9.366  68.755  1.00  0.00    -0.150 OA 
HETATM    2  N   UNL     1      -8.985   9.323  70.041  1.00  0.00    -0.180 N  
HETATM    3  H   UNL     1      -9.023   9.656  68.017  1.00  0.00     0.000 HD 
HETATM    4  C   UNL     1      -9.736   8.906  71.102  1.00  0.00    -0.274 C  
HETATM    5  H   UNL     1      -8.015   9.604  70.182  1.00  0.00     0.000 HD 
HETATM    6  O   UNL     1      -9.242   8.850  72.226  1.00  0.00    -0.376 OA 
ENDROOT
BRANCH   4   7
HETATM    7  C   UNL     1     -11.174   8.537  70.795  1.00  0.00    -0.289 C  
BRANCH   7   8
HETATM    8  C   UNL     1     -12.159   9.562  71.351  1.00  0.00    -0.459 C  
BRANCH   8   9
HETATM    9  C   UNL     1     -12.706  10.454  70.243  1.00  0.00    -0.221 C  
BRANCH   9  10
HETATM   10  C   UNL     1     -12.048  11.837  70.263  1.00  0.00    -0.426 C  
BRANCH  10  11
HETATM   11  C   UNL     1     -11.237  12.030  68.992  1.00  0.00    -0.313 C  
BRANCH  11  12
HETATM   12  C   UNL     1     -11.856  13.013  67.995  1.00  0.00    -0.391 C  
BRANCH  12  13
HETATM   13  C   UNL     1     -11.646  12.469  66.591  1.00  0.00    -0.380 C  
HETATM   14  N   UNL     1     -10.374  11.974  66.360  1.00  0.00    -0.212 N  
HETATM   15  O   UNL     1     -12.567  12.472  65.775  1.00  0.00    -0.569 OA 
HETATM   16  H   UNL     1      -9.695  12.034  67.118  1.00  0.00     0.000 HD 
BRANCH  14  17
HETATM   17  C   UNL     1      -9.958  11.390  65.138  1.00  0.00    -0.264 A  
HETATM   18  C   UNL     1     -10.142  12.012  63.899  1.00  0.00    -0.394 A  
HETATM   19  C   UNL     1      -9.820  11.359  62.709  1.00  0.00    -0.208 A  
HETATM   20  C   UNL     1      -9.282  10.078  62.748  1.00  0.00    -0.313 A  
HETATM   21  C   UNL     1      -9.035   9.469  63.977  1.00  0.00    -0.228 A  
HETATM   22  C   UNL     1      -9.361  10.126  65.171  1.00  0.00    -0.290 A  
ENDBRANCH  14  17
ENDBRANCH  12  13
ENDBRANCH  11  12
ENDBRANCH  10  11
ENDBRANCH   9  10
ENDBRANCH   8   9
ENDBRANCH   7   8
ENDBRANCH   4   7
TORSDOF 8
ENDMDL
MODEL      175
REMARK 921   NORMALIZED FREE ENERGY PREDICTED BY IDOCK:   -3.87 KCAL/MOL
REMARK 922        TOTAL FREE ENERGY PREDICTED BY IDOCK:   -6.47 KCAL/MOL
REMARK 923 INTER-LIGAND FREE ENERGY PREDICTED BY IDOCK:   -5.79 KCAL/MOL
REMARK 924 INTRA-LIGAND FREE ENERGY PREDICTED BY IDOCK:   -0.68 KCAL/MOL
REMARK 927      BINDING AFFINITY PREDICTED BY RF-SCORE:    0.00 PKD
ROOT
HETATM    1  O   UNL     1      -9.615  11.966  63.170  1.00  0.00    -0.518 OA 
HETATM    2  N   UNL     1     -10.952  11.638  62.896  1.00  0.00    -0.644 N  
HETATM    3  H   UNL     1      -8.911  11.463  62.776  1.00  0.00     0.000 HD 
HETATM    4  C   UNL     1     -11.963  12.360  63.463  1.00  0.00    -0.538 C  
HETATM    5  H   UNL     1     -11.168  10.860  62.273  1.00  0.00     0.000 HD 
HETATM    6  O   UNL     1     -13.135  12.088  63.211  1.00  0.00    -0.701 OA 
ENDROOT
BRANCH   4   7
HETATM    7  C   UNL     1     -11.540  13.478  64.396  1.00  0.00    -0.429 C  
BRANCH   7   8
HETATM    8  C   UNL     1     -12.111  13.298  65.800  1.00  0.00    -0.491 C  
BRANCH   8   9
HETATM    9  C   UNL     1     -11.314  12.265  66.588  1.00  0.00    -0.398 C  
BRANCH   9  10
HETATM   10  C   UNL     1     -11.839  12.128  68.021  1.00  0.00    -0.351 C  
BRANCH  10  11
HETATM   11  C   UNL     1     -11.546  10.728  68.535  1.00  0.00    -0.325 C  
BRANCH  11  12
HETATM   12  C   UNL     1     -10.117  10.535  69.049  1.00  0.00    -0.230 C  
BRANCH  12  13
HETATM   13  C   UNL     1      -9.444   9.463  68.204  1.00  0.00    -0.133 C  
HETATM   14  N   UNL     1      -9.587   8.179  68.701  1.00  0.00    -0.148 N  
HETATM   15  O   UNL     1      -8.856   9.764  67.167  1.00  0.00    -0.131 OA 
HETATM   16  H   UNL     1     -10.094   8.060  69.577  1.00  0.00     0.000 HD 
BRANCH  14  17
HETATM   17  C   UNL     1      -9.073   7.020  68.068  1.00  0.00    -0.127 A  
HETATM   18  C   UNL     1      -7.803   6.503  68.349  1.00  0.00    -0.106 A  
HETATM   19  C   UNL     1      -7.288   5.427  67.627  1.00  0.00    -0.076 A  
HETATM   20  C   UNL     1      -8.051   4.835  66.628  1.00  0.00    -0.107 A  
HETATM   21  C   UNL     1      -9.341   5.300  66.378  1.00  0.00    -0.153 A  
HETATM   22  C   UNL     1      -9.857   6.382  67.103  1.00  0.00    -0.182 A  
ENDBRANCH  14  17
ENDBRANCH  12  13
ENDBRANCH  11  12
ENDBRANCH  10  11
ENDBRANCH   9  10
ENDBRANCH   8   9
ENDBRANCH   7   8
ENDBRANCH   4   7
TORSDOF 8
ENDMDL
MODEL      176
REMARK 921   NORMALIZED FREE ENERGY PREDICTED BY IDOCK:   -3.87 KCAL/MOL
REMARK 922        TOTAL FREE ENERGY PREDICTED BY IDOCK:   -6.46 KCAL/MOL
REMARK 923 INTER-LIGAND FREE ENERGY PREDICTED BY IDOCK:   -5.64 KCAL/MOL
REMARK 924 INTRA-LIGAND FREE ENERGY PREDICTED BY IDOCK:   -0.82 KCAL/MOL
REMARK 927      BINDING AFFINITY PREDICTED BY RF-SCORE:    0.00 PKD
ROOT
HETATM    1  O   UNL     1      -9.165  10.964  69.155  1.00  0.00    -0.327 OA 
HETATM    2  N   UNL     1      -8.383  12.128  69.088  1.00  0.00    -0.232 N  
HETATM    3  H   UNL     1      -9.629  10.748  69.956  1.00  0.00     0.000 HD 
HETATM    4  C   UNL     1      -7.716  12.438  67.937  1.00  0.00    -0.135 C  
HETATM    5  H   UNL     1      -8.313  12.742  69.899  1.00  0.00     0.000 HD 
HETATM    6  O   UNL     1      -7.046  13.467  67.869  1.00  0.00    -0.103 OA 
ENDROOT
BRANCH   4   7
HETATM    7  C   UNL     1      -7.860  11.449  66.797  1.00  0.00    -0.157 C  
BRANCH   7   8
HETATM    8  C   UNL     1      -8.968  11.850  65.827  1.00  0.00     0.044 C  
BRANCH   8   9
HETATM    9  C   UNL     1      -9.720  10.626  65.318  1.00  0.00    -0.315 C  
BRANCH   9  10
HETATM   10  C   UNL     1     -10.923  11.026  64.458  1.00  0.00    -0.158 C  
BRANCH  10  11
HETATM   11  C   UNL     1     -10.762  12.468  64.004  1.00  0.00    -0.449 C  
BRANCH  11  12
HETATM   12  C   UNL     1     -12.075  13.252  63.927  1.00  0.00    -0.531 C  
BRANCH  12  13
HETATM   13  C   UNL     1     -12.330  13.895  65.282  1.00  0.00    -0.464 C  
HETATM   14  N   UNL     1     -11.184  14.125  66.024  1.00  0.00    -0.314 N  
HETATM   15  O   UNL     1     -13.473  14.186  65.630  1.00  0.00    -0.576 OA 
HETATM   16  H   UNL     1     -10.292  13.832  65.627  1.00  0.00     0.000 HD 
BRANCH  14  17
HETATM   17  C   UNL     1     -11.173  14.741  67.300  1.00  0.00    -0.346 A  
HETATM   18  C   UNL     1     -11.472  14.049  68.478  1.00  0.00    -0.336 A  
HETATM   19  C   UNL     1     -11.560  14.713  69.702  1.00  0.00    -0.349 A  
HETATM   20  C   UNL     1     -11.322  16.080  69.764  1.00  0.00    -0.331 A  
HETATM   21  C   UNL     1     -10.964  16.773  68.609  1.00  0.00    -0.298 A  
HETATM   22  C   UNL     1     -10.878  16.105  67.381  1.00  0.00    -0.265 A  
ENDBRANCH  14  17
ENDBRANCH  12  13
ENDBRANCH  11  12
ENDBRANCH  10  11
ENDBRANCH   9  10
ENDBRANCH   8   9
ENDBRANCH   7   8
ENDBRANCH   4   7
TORSDOF 8
ENDMDL
MODEL      177
REMARK 921   NORMALIZED FREE ENERGY PREDICTED BY IDOCK:   -3.87 KCAL/MOL
REMARK 922        TOTAL FREE ENERGY PREDICTED BY IDOCK:   -6.46 KCAL/MOL
REMARK 923 INTER-LIGAND FREE ENERGY PREDICTED BY IDOCK:   -5.55 KCAL/MOL
REMARK 924 INTRA-LIGAND FREE ENERGY PREDICTED BY IDOCK:   -0.91 KCAL/MOL
REMARK 927      BINDING AFFINITY PREDICTED BY RF-SCORE:    0.00 PKD
ROOT
HETATM    1  O   UNL     1      -9.732  10.545  69.859  1.00  0.00    -0.425 OA 
HETATM    2  N   UNL     1      -8.629  11.185  69.272  1.00  0.00    -0.381 N  
HETATM    3  H   UNL     1      -9.712  10.310  70.779  1.00  0.00     0.000 HD 
HETATM    4  C   UNL     1      -8.658  11.523  67.950  1.00  0.00    -0.143 C  
HETATM    5  H   UNL     1      -7.805  11.396  69.835  1.00  0.00     0.000 HD 
HETATM    6  O   UNL     1      -7.700  12.100  67.437  1.00  0.00    -0.146 OA 
ENDROOT
BRANCH   4   7
HETATM    7  C   UNL     1      -9.914  11.141  67.192  1.00  0.00    -0.215 C  
BRANCH   7   8
HETATM    8  C   UNL     1     -10.393  12.262  66.275  1.00  0.00    -0.257 C  
BRANCH   8   9
HETATM    9  C   UNL     1     -11.895  12.480  66.412  1.00  0.00    -0.445 C  
BRANCH   9  10
HETATM   10  C   UNL     1     -12.376  13.638  65.532  1.00  0.00    -0.519 C  
BRANCH  10  11
HETATM   11  C   UNL     1     -11.190  14.237  64.793  1.00  0.00    -0.387 C  
BRANCH  11  12
HETATM   12  C   UNL     1     -11.269  15.754  64.605  1.00  0.00    -0.373 C  
BRANCH  12  13
HETATM   13  C   UNL     1     -10.374  16.414  65.642  1.00  0.00    -0.350 C  
HETATM   14  N   UNL     1      -9.258  15.669  65.982  1.00  0.00    -0.346 N  
HETATM   15  O   UNL     1     -10.652  17.525  66.091  1.00  0.00    -0.313 OA 
HETATM   16  H   UNL     1      -9.142  14.756  65.543  1.00  0.00     0.000 HD 
BRANCH  14  17
HETATM   17  C   UNL     1      -8.268  16.095  66.902  1.00  0.00    -0.238 A  
HETATM   18  C   UNL     1      -8.258  15.697  68.244  1.00  0.00    -0.142 A  
HETATM   19  C   UNL     1      -7.333  16.224  69.145  1.00  0.00    -0.218 A  
HETATM   20  C   UNL     1      -6.385  17.140  68.706  1.00  0.00    -0.175 A  
HETATM   21  C   UNL     1      -6.344  17.500  67.360  1.00  0.00    -0.166 A  
HETATM   22  C   UNL     1      -7.274  16.971  66.456  1.00  0.00    -0.311 A  
ENDBRANCH  14  17
ENDBRANCH  12  13
ENDBRANCH  11  12
ENDBRANCH  10  11
ENDBRANCH   9  10
ENDBRANCH   8   9
ENDBRANCH   7   8
ENDBRANCH   4   7
TORSDOF 8
ENDMDL
MODEL      178
REMARK 921   NORMALIZED FREE ENERGY PREDICTED BY IDOCK:   -3.86 KCAL/MOL
REMARK 922        TOTAL FREE ENERGY PREDICTED BY IDOCK:   -6.46 KCAL/MOL
REMARK 923 INTER-LIGAND FREE ENERGY PREDICTED BY IDOCK:   -5.93 KCAL/MOL
REMARK 924 INTRA-LIGAND FREE ENERGY PREDICTED BY IDOCK:   -0.52 KCAL/MOL
REMARK 927      BINDING AFFINITY PREDICTED BY RF-SCORE:    0.00 PKD
ROOT
HETATM    1  O   UNL     1      -7.722  19.125  68.820  1.00  0.00    -0.339 OA 
HETATM    2  N   UNL     1      -8.053  18.997  67.462  1.00  0.00    -0.265 N  
HETATM    3  H   UNL     1      -8.230  19.700  69.381  1.00  0.00     0.000 HD 
HETATM    4  C   UNL     1      -7.322  18.172  66.656  1.00  0.00    -0.222 C  
HETATM    5  H   UNL     1      -8.839  19.520  67.078  1.00  0.00     0.000 HD 
HETATM    6  O   UNL     1      -7.621  18.042  65.470  1.00  0.00    -0.530 OA 
ENDROOT
BRANCH   4   7
HETATM    7  C   UNL     1      -6.156  17.460  67.313  1.00  0.00    -0.166 C  
BRANCH   7   8
HETATM    8  C   UNL     1      -6.379  15.952  67.396  1.00  0.00    -0.196 C  
BRANCH   8   9
HETATM    9  C   UNL     1      -7.256  15.592  68.589  1.00  0.00    -0.129 C  
BRANCH   9  10
HETATM   10  C   UNL     1      -7.854  14.190  68.440  1.00  0.00    -0.143 C  
BRANCH  10  11
HETATM   11  C   UNL     1      -9.206  14.286  67.752  1.00  0.00    -0.194 C  
BRANCH  11  12
HETATM   12  C   UNL     1      -9.847  15.675  67.818  1.00  0.00    -0.220 C  
BRANCH  12  13
HETATM   13  C   UNL     1     -10.807  15.705  68.998  1.00  0.00    -0.254 C  
HETATM   14  N   UNL     1     -11.533  14.539  69.167  1.00  0.00    -0.276 N  
HETATM   15  O   UNL     1     -10.877  16.698  69.720  1.00  0.00    -0.333 OA 
HETATM   16  H   UNL     1     -11.388  13.786  68.494  1.00  0.00     0.000 HD 
BRANCH  14  17
HETATM   17  C   UNL     1     -12.463  14.326  70.214  1.00  0.00    -0.361 A  
HETATM   18  C   UNL     1     -13.440  15.264  70.562  1.00  0.00    -0.128 A  
HETATM   19  C   UNL     1     -14.266  15.068  71.669  1.00  0.00    -0.649 A  
HETATM   20  C   UNL     1     -14.141  13.911  72.428  1.00  0.00    -0.586 A  
HETATM   21  C   UNL     1     -13.213  12.939  72.058  1.00  0.00    -0.549 A  
HETATM   22  C   UNL     1     -12.383  13.138  70.947  1.00  0.00    -0.393 A  
ENDBRANCH  14  17
ENDBRANCH  12  13
ENDBRANCH  11  12
ENDBRANCH  10  11
ENDBRANCH   9  10
ENDBRANCH   8   9
ENDBRANCH   7   8
ENDBRANCH   4   7
TORSDOF 8
ENDMDL
MODEL      179
REMARK 921   NORMALIZED FREE ENERGY PREDICTED BY IDOCK:   -3.86 KCAL/MOL
REMARK 922        TOTAL FREE ENERGY PREDICTED BY IDOCK:   -6.45 KCAL/MOL
REMARK 923 INTER-LIGAND FREE ENERGY PREDICTED BY IDOCK:   -5.49 KCAL/MOL
REMARK 924 INTRA-LIGAND FREE ENERGY PREDICTED BY IDOCK:   -0.97 KCAL/MOL
REMARK 927      BINDING AFFINITY PREDICTED BY RF-SCORE:    0.00 PKD
ROOT
HETATM    1  O   UNL     1     -12.759   9.822  70.518  1.00  0.00    -0.515 OA 
HETATM    2  N   UNL     1     -11.681   9.877  71.416  1.00  0.00    -0.381 N  
HETATM    3  H   UNL     1     -13.505  10.399  70.635  1.00  0.00     0.000 HD 
HETATM    4  C   UNL     1     -10.609   9.048  71.248  1.00  0.00    -0.308 C  
HETATM    5  H   UNL     1     -11.699  10.536  72.194  1.00  0.00     0.000 HD 
HETATM    6  O   UNL     1      -9.654   9.106  72.021  1.00  0.00    -0.300 OA 
ENDROOT
BRANCH   4   7
HETATM    7  C   UNL     1     -10.688   8.085  70.079  1.00  0.00    -0.244 C  
BRANCH   7   8
HETATM    8  C   UNL     1      -9.927   8.599  68.861  1.00  0.00    -0.197 C  
BRANCH   8   9
HETATM    9  C   UNL     1     -10.881   8.949  67.725  1.00  0.00    -0.106 C  
BRANCH   9  10
HETATM   10  C   UNL     1     -10.120   9.370  66.464  1.00  0.00    -0.332 C  
BRANCH  10  11
HETATM   11  C   UNL     1      -8.872  10.142  66.861  1.00  0.00    -0.142 C  
BRANCH  11  12
HETATM   12  C   UNL     1      -8.838  11.585  66.349  1.00  0.00    -0.193 C  
BRANCH  12  13
HETATM   13  C   UNL     1      -9.283  12.504  67.476  1.00  0.00    -0.188 C  
HETATM   14  N   UNL     1     -10.628  12.830  67.444  1.00  0.00    -0.228 N  
HETATM   15  O   UNL     1      -8.480  12.879  68.330  1.00  0.00    -0.168 OA 
HETATM   16  H   UNL     1     -11.190  12.459  66.679  1.00  0.00     0.000 HD 
BRANCH  14  17
HETATM   17  C   UNL     1     -11.271  13.646  68.408  1.00  0.00    -0.276 A  
HETATM   18  C   UNL     1     -11.326  15.040  68.306  1.00  0.00    -0.331 A  
HETATM   19  C   UNL     1     -11.871  15.816  69.328  1.00  0.00    -0.358 A  
HETATM   20  C   UNL     1     -12.395  15.201  70.459  1.00  0.00    -0.408 A  
HETATM   21  C   UNL     1     -12.403  13.810  70.548  1.00  0.00    -0.429 A  
HETATM   22  C   UNL     1     -11.854  13.032  69.521  1.00  0.00    -0.385 A  
ENDBRANCH  14  17
ENDBRANCH  12  13
ENDBRANCH  11  12
ENDBRANCH  10  11
ENDBRANCH   9  10
ENDBRANCH   8   9
ENDBRANCH   7   8
ENDBRANCH   4   7
TORSDOF 8
ENDMDL
MODEL      180
REMARK 921   NORMALIZED FREE ENERGY PREDICTED BY IDOCK:   -3.86 KCAL/MOL
REMARK 922        TOTAL FREE ENERGY PREDICTED BY IDOCK:   -6.45 KCAL/MOL
REMARK 923 INTER-LIGAND FREE ENERGY PREDICTED BY IDOCK:   -5.44 KCAL/MOL
REMARK 924 INTRA-LIGAND FREE ENERGY PREDICTED BY IDOCK:   -1.01 KCAL/MOL
REMARK 927      BINDING AFFINITY PREDICTED BY RF-SCORE:    0.00 PKD
ROOT
HETATM    1  O   UNL     1      -8.465  11.574  69.108  1.00  0.00    -0.372 OA 
HETATM    2  N   UNL     1      -7.145  11.741  69.555  1.00  0.00    -0.337 N  
HETATM    3  H   UNL     1      -8.894  10.731  69.197  1.00  0.00     0.000 HD 
HETATM    4  C   UNL     1      -6.528  12.953  69.428  1.00  0.00    -0.091 C  
HETATM    5  H   UNL     1      -6.647  10.957  69.976  1.00  0.00     0.000 HD 
HETATM    6  O   UNL     1      -5.378  13.108  69.836  1.00  0.00    -0.085 OA 
ENDROOT
BRANCH   4   7
HETATM    7  C   UNL     1      -7.341  14.047  68.765  1.00  0.00    -0.127 C  
BRANCH   7   8
HETATM    8  C   UNL     1      -7.161  15.395  69.459  1.00  0.00    -0.202 C  
BRANCH   8   9
HETATM    9  C   UNL     1      -6.435  16.384  68.555  1.00  0.00    -0.134 C  
BRANCH   9  10
HETATM   10  C   UNL     1      -6.791  17.831  68.910  1.00  0.00    -0.240 C  
BRANCH  10  11
HETATM   11  C   UNL     1      -8.180  18.154  68.383  1.00  0.00    -0.314 C  
BRANCH  11  12
HETATM   12  C   UNL     1      -8.369  17.861  66.892  1.00  0.00    -0.260 C  
BRANCH  12  13
HETATM   13  C   UNL     1      -9.565  16.934  66.733  1.00  0.00    -0.262 C  
HETATM   14  N   UNL     1      -9.326  15.837  65.924  1.00  0.00    -0.338 N  
HETATM   15  O   UNL     1     -10.623  17.175  67.312  1.00  0.00    -0.325 OA 
HETATM   16  H   UNL     1      -8.406  15.753  65.494  1.00  0.00     0.000 HD 
BRANCH  14  17
HETATM   17  C   UNL     1     -10.280  14.824  65.656  1.00  0.00    -0.358 A  
HETATM   18  C   UNL     1     -11.290  14.968  64.699  1.00  0.00    -0.357 A  
HETATM   19  C   UNL     1     -12.277  13.995  64.541  1.00  0.00    -0.463 A  
HETATM   20  C   UNL     1     -12.249  12.848  65.325  1.00  0.00    -0.524 A  
HETATM   21  C   UNL     1     -11.215  12.663  66.241  1.00  0.00    -0.354 A  
HETATM   22  C   UNL     1     -10.225  13.641  66.400  1.00  0.00    -0.292 A  
ENDBRANCH  14  17
ENDBRANCH  12  13
ENDBRANCH  11  12
ENDBRANCH  10  11
ENDBRANCH   9  10
ENDBRANCH   8   9
ENDBRANCH   7   8
ENDBRANCH   4   7
TORSDOF 8
ENDMDL
MODEL      181
REMARK 921   NORMALIZED FREE ENERGY PREDICTED BY IDOCK:   -3.84 KCAL/MOL
REMARK 922        TOTAL FREE ENERGY PREDICTED BY IDOCK:   -6.43 KCAL/MOL
REMARK 923 INTER-LIGAND FREE ENERGY PREDICTED BY IDOCK:   -6.14 KCAL/MOL
REMARK 924 INTRA-LIGAND FREE ENERGY PREDICTED BY IDOCK:   -0.29 KCAL/MOL
REMARK 927      BINDING AFFINITY PREDICTED BY RF-SCORE:    0.00 PKD
ROOT
HETATM    1  O   UNL     1      -9.083  15.002  66.446  1.00  0.00    -0.276 OA 
HETATM    2  N   UNL     1      -9.570  15.772  65.377  1.00  0.00    -0.158 N  
HETATM    3  H   UNL     1      -8.159  15.023  66.664  1.00  0.00     0.000 HD 
HETATM    4  C   UNL     1     -10.899  15.742  65.063  1.00  0.00    -0.443 C  
HETATM    5  H   UNL     1      -8.931  16.353  64.836  1.00  0.00     0.000 HD 
HETATM    6  O   UNL     1     -11.332  16.429  64.140  1.00  0.00    -0.941 OA 
ENDROOT
BRANCH   4   7
HETATM    7  C   UNL     1     -11.762  14.826  65.908  1.00  0.00    -0.248 C  
BRANCH   7   8
HETATM    8  C   UNL     1     -11.503  13.353  65.604  1.00  0.00    -0.335 C  
BRANCH   8   9
HETATM    9  C   UNL     1     -12.302  12.895  64.390  1.00  0.00    -0.468 C  
BRANCH   9  10
HETATM   10  C   UNL     1     -11.529  11.856  63.572  1.00  0.00    -0.523 C  
BRANCH  10  11
HETATM   11  C   UNL     1     -10.103  11.764  64.089  1.00  0.00    -0.344 C  
BRANCH  11  12
HETATM   12  C   UNL     1      -9.566  10.335  64.200  1.00  0.00    -0.376 C  
BRANCH  12  13
HETATM   13  C   UNL     1      -9.458   9.976  65.674  1.00  0.00    -0.220 C  
HETATM   14  N   UNL     1     -10.247   8.905  66.056  1.00  0.00    -0.349 N  
HETATM   15  O   UNL     1      -8.701  10.602  66.415  1.00  0.00    -0.141 OA 
HETATM   16  H   UNL     1     -10.837   8.471  65.347  1.00  0.00     0.000 HD 
BRANCH  14  17
HETATM   17  C   UNL     1     -10.286   8.374  67.369  1.00  0.00    -0.260 A  
HETATM   18  C   UNL     1     -10.508   9.165  68.500  1.00  0.00    -0.238 A  
HETATM   19  C   UNL     1     -10.429   8.626  69.784  1.00  0.00    -0.220 A  
HETATM   20  C   UNL     1     -10.151   7.274  69.950  1.00  0.00    -0.196 A  
HETATM   21  C   UNL     1      -9.988   6.460  68.830  1.00  0.00    -0.168 A  
HETATM   22  C   UNL     1     -10.066   7.004  67.542  1.00  0.00    -0.236 A  
ENDBRANCH  14  17
ENDBRANCH  12  13
ENDBRANCH  11  12
ENDBRANCH  10  11
ENDBRANCH   9  10
ENDBRANCH   8   9
ENDBRANCH   7   8
ENDBRANCH   4   7
TORSDOF 8
ENDMDL
MODEL      182
REMARK 921   NORMALIZED FREE ENERGY PREDICTED BY IDOCK:   -3.84 KCAL/MOL
REMARK 922        TOTAL FREE ENERGY PREDICTED BY IDOCK:   -6.43 KCAL/MOL
REMARK 923 INTER-LIGAND FREE ENERGY PREDICTED BY IDOCK:   -6.14 KCAL/MOL
REMARK 924 INTRA-LIGAND FREE ENERGY PREDICTED BY IDOCK:   -0.29 KCAL/MOL
REMARK 927      BINDING AFFINITY PREDICTED BY RF-SCORE:    0.00 PKD
ROOT
HETATM    1  O   UNL     1     -13.882  15.806  70.712  1.00  0.00    -0.746 OA 
HETATM    2  N   UNL     1     -12.512  16.039  70.518  1.00  0.00    -0.470 N  
HETATM    3  H   UNL     1     -14.470  16.535  70.876  1.00  0.00     0.000 HD 
HETATM    4  C   UNL     1     -11.667  14.993  70.281  1.00  0.00    -0.294 C  
HETATM    5  H   UNL     1     -12.147  16.991  70.553  1.00  0.00     0.000 HD 
HETATM    6  O   UNL     1     -10.469  15.195  70.093  1.00  0.00    -0.248 OA 
ENDROOT
BRANCH   4   7
HETATM    7  C   UNL     1     -12.299  13.615  70.276  1.00  0.00    -0.392 C  
BRANCH   7   8
HETATM    8  C   UNL     1     -13.054  13.326  71.571  1.00  0.00    -0.414 C  
BRANCH   8   9
HETATM    9  C   UNL     1     -12.597  12.011  72.190  1.00  0.00     0.300 C  
BRANCH   9  10
HETATM   10  C   UNL     1     -13.583  10.878  71.888  1.00  0.00    -0.153 C  
BRANCH  10  11
HETATM   11  C   UNL     1     -12.988   9.956  70.837  1.00  0.00    -0.351 C  
BRANCH  11  12
HETATM   12  C   UNL     1     -11.516   9.607  71.069  1.00  0.00    -0.444 C  
BRANCH  12  13
HETATM   13  C   UNL     1     -10.727  10.000  69.829  1.00  0.00    -0.271 C  
HETATM   14  N   UNL     1     -11.464   9.976  68.658  1.00  0.00    -0.510 N  
HETATM   15  O   UNL     1      -9.544  10.324  69.919  1.00  0.00    -0.176 OA 
HETATM   16  H   UNL     1     -12.439   9.683  68.715  1.00  0.00     0.000 HD 
BRANCH  14  17
HETATM   17  C   UNL     1     -10.950  10.333  67.387  1.00  0.00    -0.252 A  
HETATM   18  C   UNL     1     -11.151  11.594  66.815  1.00  0.00    -0.366 A  
HETATM   19  C   UNL     1     -10.725  11.872  65.516  1.00  0.00    -0.329 A  
HETATM   20  C   UNL     1     -10.065  10.894  64.781  1.00  0.00    -0.383 A  
HETATM   21  C   UNL     1      -9.804   9.653  65.359  1.00  0.00    -0.322 A  
HETATM   22  C   UNL     1     -10.234   9.375  66.663  1.00  0.00    -0.319 A  
ENDBRANCH  14  17
ENDBRANCH  12  13
ENDBRANCH  11  12
ENDBRANCH  10  11
ENDBRANCH   9  10
ENDBRANCH   8   9
ENDBRANCH   7   8
ENDBRANCH   4   7
TORSDOF 8
ENDMDL
MODEL      183
REMARK 921   NORMALIZED FREE ENERGY PREDICTED BY IDOCK:   -3.82 KCAL/MOL
REMARK 922        TOTAL FREE ENERGY PREDICTED BY IDOCK:   -6.40 KCAL/MOL
REMARK 923 INTER-LIGAND FREE ENERGY PREDICTED BY IDOCK:   -6.32 KCAL/MOL
REMARK 924 INTRA-LIGAND FREE ENERGY PREDICTED BY IDOCK:   -0.08 KCAL/MOL
REMARK 927      BINDING AFFINITY PREDICTED BY RF-SCORE:    0.00 PKD
ROOT
HETATM    1  O   UNL     1     -13.333  15.834  70.248  1.00  0.00    -0.726 OA 
HETATM    2  N   UNL     1     -13.239  14.436  70.334  1.00  0.00    -0.436 N  
HETATM    3  H   UNL     1     -14.092  16.283  70.602  1.00  0.00     0.000 HD 
HETATM    4  C   UNL     1     -12.148  13.792  69.825  1.00  0.00    -0.340 C  
HETATM    5  H   UNL     1     -13.986  13.902  70.778  1.00  0.00     0.000 HD 
HETATM    6  O   UNL     1     -12.054  12.569  69.916  1.00  0.00    -0.304 OA 
ENDROOT
BRANCH   4   7
HETATM    7  C   UNL     1     -11.106  14.670  69.161  1.00  0.00    -0.285 C  
BRANCH   7   8
HETATM    8  C   UNL     1     -11.465  14.990  67.713  1.00  0.00    -0.347 C  
BRANCH   8   9
HETATM    9  C   UNL     1     -10.212  15.179  66.866  1.00  0.00    -0.259 C  
BRANCH   9  10
HETATM   10  C   UNL     1     -10.550  15.235  65.373  1.00  0.00    -0.413 C  
BRANCH  10  11
HETATM   11  C   UNL     1     -11.898  14.575  65.134  1.00  0.00    -0.374 C  
BRANCH  11  12
HETATM   12  C   UNL     1     -11.934  13.641  63.921  1.00  0.00    -0.455 C  
BRANCH  12  13
HETATM   13  C   UNL     1     -11.414  12.277  64.350  1.00  0.00    -0.354 C  
HETATM   14  N   UNL     1     -10.346  11.817  63.600  1.00  0.00    -0.389 N  
HETATM   15  O   UNL     1     -11.923  11.686  65.302  1.00  0.00    -0.174 OA 
HETATM   16  H   UNL     1     -10.018  12.399  62.830  1.00  0.00     0.000 HD 
BRANCH  14  17
HETATM   17  C   UNL     1      -9.680  10.589  63.835  1.00  0.00    -0.325 A  
HETATM   18  C   UNL     1      -9.683   9.951  65.080  1.00  0.00    -0.376 A  
HETATM   19  C   UNL     1      -8.925   8.802  65.303  1.00  0.00    -0.184 A  
HETATM   20  C   UNL     1      -8.171   8.259  64.270  1.00  0.00    -0.116 A  
HETATM   21  C   UNL     1      -8.205   8.849  63.007  1.00  0.00    -0.187 A  
HETATM   22  C   UNL     1      -8.966  10.004  62.785  1.00  0.00    -0.272 A  
ENDBRANCH  14  17
ENDBRANCH  12  13
ENDBRANCH  11  12
ENDBRANCH  10  11
ENDBRANCH   9  10
ENDBRANCH   8   9
ENDBRANCH   7   8
ENDBRANCH   4   7
TORSDOF 8
ENDMDL
MODEL      184
REMARK 921   NORMALIZED FREE ENERGY PREDICTED BY IDOCK:   -3.82 KCAL/MOL
REMARK 922        TOTAL FREE ENERGY PREDICTED BY IDOCK:   -6.39 KCAL/MOL
REMARK 923 INTER-LIGAND FREE ENERGY PREDICTED BY IDOCK:   -5.80 KCAL/MOL
REMARK 924 INTRA-LIGAND FREE ENERGY PREDICTED BY IDOCK:   -0.59 KCAL/MOL
REMARK 927      BINDING AFFINITY PREDICTED BY RF-SCORE:    0.00 PKD
ROOT
HETATM    1  O   UNL     1     -10.515  18.261  69.308  1.00  0.00    -0.426 OA 
HETATM    2  N   UNL     1     -10.359  19.045  68.154  1.00  0.00    -0.381 N  
HETATM    3  H   UNL     1     -11.342  18.264  69.776  1.00  0.00     0.000 HD 
HETATM    4  C   UNL     1      -9.171  19.042  67.481  1.00  0.00    -0.287 C  
HETATM    5  H   UNL     1     -11.134  19.618  67.819  1.00  0.00     0.000 HD 
HETATM    6  O   UNL     1      -9.037  19.713  66.459  1.00  0.00    -0.337 OA 
ENDROOT
BRANCH   4   7
HETATM    7  C   UNL     1      -8.073  18.181  68.073  1.00  0.00    -0.264 C  
BRANCH   7   8
HETATM    8  C   UNL     1      -7.889  16.877  67.303  1.00  0.00    -0.204 C  
BRANCH   8   9
HETATM    9  C   UNL     1      -6.517  16.269  67.574  1.00  0.00    -0.195 C  
BRANCH   9  10
HETATM   10  C   UNL     1      -6.557  14.740  67.493  1.00  0.00    -0.123 C  
BRANCH  10  11
HETATM   11  C   UNL     1      -7.430  14.197  68.613  1.00  0.00    -0.125 C  
BRANCH  11  12
HETATM   12  C   UNL     1      -8.068  12.839  68.308  1.00  0.00    -0.154 C  
BRANCH  12  13
HETATM   13  C   UNL     1      -9.320  13.072  67.477  1.00  0.00    -0.200 C  
HETATM   14  N   UNL     1      -9.179  12.749  66.139  1.00  0.00    -0.441 N  
HETATM   15  O   UNL     1     -10.350  13.494  68.003  1.00  0.00    -0.229 OA 
HETATM   16  H   UNL     1      -8.270  12.414  65.822  1.00  0.00     0.000 HD 
BRANCH  14  17
HETATM   17  C   UNL     1     -10.219  12.855  65.181  1.00  0.00    -0.271 A  
HETATM   18  C   UNL     1     -10.872  14.059  64.901  1.00  0.00    -0.421 A  
HETATM   19  C   UNL     1     -11.964  14.103  64.034  1.00  0.00    -0.359 A  
HETATM   20  C   UNL     1     -12.400  12.939  63.414  1.00  0.00    -0.498 A  
HETATM   21  C   UNL     1     -11.722  11.742  63.636  1.00  0.00    -0.517 A  
HETATM   22  C   UNL     1     -10.626  11.699  64.508  1.00  0.00    -0.373 A  
ENDBRANCH  14  17
ENDBRANCH  12  13
ENDBRANCH  11  12
ENDBRANCH  10  11
ENDBRANCH   9  10
ENDBRANCH   8   9
ENDBRANCH   7   8
ENDBRANCH   4   7
TORSDOF 8
ENDMDL
MODEL      185
REMARK 921   NORMALIZED FREE ENERGY PREDICTED BY IDOCK:   -3.81 KCAL/MOL
REMARK 922        TOTAL FREE ENERGY PREDICTED BY IDOCK:   -6.39 KCAL/MOL
REMARK 923 INTER-LIGAND FREE ENERGY PREDICTED BY IDOCK:   -6.64 KCAL/MOL
REMARK 924 INTRA-LIGAND FREE ENERGY PREDICTED BY IDOCK:    0.25 KCAL/MOL
REMARK 927      BINDING AFFINITY PREDICTED BY RF-SCORE:    0.00 PKD
ROOT
HETATM    1  O   UNL     1     -10.189  18.986  69.522  1.00  0.00    -0.441 OA 
HETATM    2  N   UNL     1     -10.604  19.704  68.390  1.00  0.00    -0.458 N  
HETATM    3  H   UNL     1     -10.594  19.151  70.366  1.00  0.00     0.000 HD 
HETATM    4  C   UNL     1     -10.022  19.467  67.178  1.00  0.00    -0.360 C  
HETATM    5  H   UNL     1     -11.342  20.404  68.473  1.00  0.00     0.000 HD 
HETATM    6  O   UNL     1     -10.397  20.081  66.180  1.00  0.00    -0.466 OA 
ENDROOT
BRANCH   4   7
HETATM    7  C   UNL     1      -8.917  18.429  67.162  1.00  0.00    -0.268 C  
BRANCH   7   8
HETATM    8  C   UNL     1      -9.467  17.007  67.114  1.00  0.00    -0.245 C  
BRANCH   8   9
HETATM    9  C   UNL     1     -10.199  16.746  65.803  1.00  0.00    -0.311 C  
BRANCH   9  10
HETATM   10  C   UNL     1     -10.221  15.253  65.462  1.00  0.00    -0.417 C  
BRANCH  10  11
HETATM   11  C   UNL     1     -10.947  14.494  66.561  1.00  0.00    -0.321 C  
BRANCH  11  12
HETATM   12  C   UNL     1     -11.622  13.203  66.091  1.00  0.00    -0.396 C  
BRANCH  12  13
HETATM   13  C   UNL     1     -11.439  12.145  67.169  1.00  0.00    -0.346 C  
HETATM   14  N   UNL     1     -11.979  12.488  68.396  1.00  0.00    -0.290 N  
HETATM   15  O   UNL     1     -10.871  11.085  66.912  1.00  0.00    -0.266 OA 
HETATM   16  H   UNL     1     -12.421  13.403  68.484  1.00  0.00     0.000 HD 
BRANCH  14  17
HETATM   17  C   UNL     1     -11.956  11.649  69.537  1.00  0.00    -0.317 A  
HETATM   18  C   UNL     1     -11.242  10.447  69.580  1.00  0.00    -0.333 A  
HETATM   19  C   UNL     1     -11.333   9.594  70.680  1.00  0.00    -0.379 A  
HETATM   20  C   UNL     1     -12.122   9.949  71.767  1.00  0.00    -0.382 A  
HETATM   21  C   UNL     1     -12.791  11.171  71.765  1.00  0.00    -0.479 A  
HETATM   22  C   UNL     1     -12.700  12.027  70.659  1.00  0.00    -0.163 A  
ENDBRANCH  14  17
ENDBRANCH  12  13
ENDBRANCH  11  12
ENDBRANCH  10  11
ENDBRANCH   9  10
ENDBRANCH   8   9
ENDBRANCH   7   8
ENDBRANCH   4   7
TORSDOF 8
ENDMDL
MODEL      186
REMARK 921   NORMALIZED FREE ENERGY PREDICTED BY IDOCK:   -3.81 KCAL/MOL
REMARK 922        TOTAL FREE ENERGY PREDICTED BY IDOCK:   -6.38 KCAL/MOL
REMARK 923 INTER-LIGAND FREE ENERGY PREDICTED BY IDOCK:   -6.05 KCAL/MOL
REMARK 924 INTRA-LIGAND FREE ENERGY PREDICTED BY IDOCK:   -0.34 KCAL/MOL
REMARK 927      BINDING AFFINITY PREDICTED BY RF-SCORE:    0.00 PKD
ROOT
HETATM    1  O   UNL     1     -13.865   9.340  70.889  1.00  0.00    -0.579 OA 
HETATM    2  N   UNL     1     -12.740   9.112  71.696  1.00  0.00    -0.338 N  
HETATM    3  H   UNL     1     -14.738   9.221  71.244  1.00  0.00     0.000 HD 
HETATM    4  C   UNL     1     -11.485   9.283  71.185  1.00  0.00    -0.333 C  
HETATM    5  H   UNL     1     -12.860   8.818  72.665  1.00  0.00     0.000 HD 
HETATM    6  O   UNL     1     -10.498   9.103  71.896  1.00  0.00    -0.348 OA 
ENDROOT
BRANCH   4   7
HETATM    7  C   UNL     1     -11.411   9.693  69.728  1.00  0.00    -0.159 C  
BRANCH   7   8
HETATM    8  C   UNL     1     -11.661  11.187  69.539  1.00  0.00    -0.392 C  
BRANCH   8   9
HETATM    9  C   UNL     1     -11.633  11.566  68.063  1.00  0.00    -0.370 C  
BRANCH   9  10
HETATM   10  C   UNL     1     -11.982  13.043  67.858  1.00  0.00    -0.338 C  
BRANCH  10  11
HETATM   11  C   UNL     1     -11.233  13.578  66.649  1.00  0.00    -0.328 C  
BRANCH  11  12
HETATM   12  C   UNL     1      -9.714  13.647  66.832  1.00  0.00    -0.262 C  
BRANCH  12  13
HETATM   13  C   UNL     1      -9.298  15.110  66.844  1.00  0.00    -0.234 C  
HETATM   14  N   UNL     1      -9.048  15.617  68.107  1.00  0.00    -0.180 N  
HETATM   15  O   UNL     1      -9.189  15.737  65.791  1.00  0.00    -0.321 OA 
HETATM   16  H   UNL     1      -9.181  14.997  68.905  1.00  0.00     0.000 HD 
BRANCH  14  17
HETATM   17  C   UNL     1      -8.618  16.943  68.361  1.00  0.00    -0.240 A  
HETATM   18  C   UNL     1      -9.492  18.036  68.365  1.00  0.00    -0.314 A  
HETATM   19  C   UNL     1      -9.016  19.339  68.509  1.00  0.00    -0.414 A  
HETATM   20  C   UNL     1      -7.655  19.563  68.677  1.00  0.00    -0.389 A  
HETATM   21  C   UNL     1      -6.779  18.481  68.736  1.00  0.00    -0.281 A  
HETATM   22  C   UNL     1      -7.258  17.173  68.590  1.00  0.00    -0.229 A  
ENDBRANCH  14  17
ENDBRANCH  12  13
ENDBRANCH  11  12
ENDBRANCH  10  11
ENDBRANCH   9  10
ENDBRANCH   8   9
ENDBRANCH   7   8
ENDBRANCH   4   7
TORSDOF 8
ENDMDL
MODEL      187
REMARK 921   NORMALIZED FREE ENERGY PREDICTED BY IDOCK:   -3.81 KCAL/MOL
REMARK 922        TOTAL FREE ENERGY PREDICTED BY IDOCK:   -6.38 KCAL/MOL
REMARK 923 INTER-LIGAND FREE ENERGY PREDICTED BY IDOCK:   -6.09 KCAL/MOL
REMARK 924 INTRA-LIGAND FREE ENERGY PREDICTED BY IDOCK:   -0.29 KCAL/MOL
REMARK 927      BINDING AFFINITY PREDICTED BY RF-SCORE:    0.00 PKD
ROOT
HETATM    1  O   UNL     1      -9.323  12.099  63.336  1.00  0.00    -0.651 OA 
HETATM    2  N   UNL     1     -10.643  12.410  62.974  1.00  0.00    -0.520 N  
HETATM    3  H   UNL     1      -8.833  11.453  62.840  1.00  0.00     0.000 HD 
HETATM    4  C   UNL     1     -11.347  13.338  63.686  1.00  0.00    -0.166 C  
HETATM    5  H   UNL     1     -11.076  11.942  62.177  1.00  0.00     0.000 HD 
HETATM    6  O   UNL     1     -12.497  13.627  63.359  1.00  0.00    -0.784 OA 
ENDROOT
BRANCH   4   7
HETATM    7  C   UNL     1     -10.627  13.956  64.868  1.00  0.00    -0.436 C  
BRANCH   7   8
HETATM    8  C   UNL     1     -11.412  13.791  66.167  1.00  0.00    -0.350 C  
BRANCH   8   9
HETATM    9  C   UNL     1     -11.811  12.337  66.385  1.00  0.00    -0.382 C  
BRANCH   9  10
HETATM   10  C   UNL     1     -11.580  11.906  67.837  1.00  0.00    -0.393 C  
BRANCH  10  11
HETATM   11  C   UNL     1     -10.569  10.771  67.874  1.00  0.00    -0.258 C  
BRANCH  11  12
HETATM   12  C   UNL     1      -9.299  11.088  68.668  1.00  0.00    -0.196 C  
BRANCH  12  13
HETATM   13  C   UNL     1      -8.651  12.324  68.063  1.00  0.00    -0.176 C  
HETATM   14  N   UNL     1      -9.015  13.511  68.675  1.00  0.00    -0.367 N  
HETATM   15  O   UNL     1      -7.861  12.220  67.125  1.00  0.00    -0.166 OA 
HETATM   16  H   UNL     1      -9.685  13.466  69.442  1.00  0.00     0.000 HD 
BRANCH  14  17
HETATM   17  C   UNL     1      -8.515  14.783  68.304  1.00  0.00    -0.151 A  
HETATM   18  C   UNL     1      -7.924  15.032  67.060  1.00  0.00    -0.197 A  
HETATM   19  C   UNL     1      -7.344  16.268  66.772  1.00  0.00    -0.244 A  
HETATM   20  C   UNL     1      -7.372  17.282  67.721  1.00  0.00    -0.180 A  
HETATM   21  C   UNL     1      -8.010  17.069  68.942  1.00  0.00    -0.217 A  
HETATM   22  C   UNL     1      -8.591  15.828  69.230  1.00  0.00    -0.259 A  
ENDBRANCH  14  17
ENDBRANCH  12  13
ENDBRANCH  11  12
ENDBRANCH  10  11
ENDBRANCH   9  10
ENDBRANCH   8   9
ENDBRANCH   7   8
ENDBRANCH   4   7
TORSDOF 8
ENDMDL
MODEL      188
REMARK 921   NORMALIZED FREE ENERGY PREDICTED BY IDOCK:   -3.80 KCAL/MOL
REMARK 922        TOTAL FREE ENERGY PREDICTED BY IDOCK:   -6.36 KCAL/MOL
REMARK 923 INTER-LIGAND FREE ENERGY PREDICTED BY IDOCK:   -5.75 KCAL/MOL
REMARK 924 INTRA-LIGAND FREE ENERGY PREDICTED BY IDOCK:   -0.61 KCAL/MOL
REMARK 927      BINDING AFFINITY PREDICTED BY RF-SCORE:    0.00 PKD
ROOT
HETATM    1  O   UNL     1      -9.563   9.553  64.716  1.00  0.00    -0.433 OA 
HETATM    2  N   UNL     1      -9.636   8.773  65.881  1.00  0.00    -0.411 N  
HETATM    3  H   UNL     1      -9.061   9.247  63.970  1.00  0.00     0.000 HD 
HETATM    4  C   UNL     1     -10.358   9.213  66.954  1.00  0.00    -0.251 C  
HETATM    5  H   UNL     1      -9.150   7.878  65.926  1.00  0.00     0.000 HD 
HETATM    6  O   UNL     1     -10.440   8.524  67.969  1.00  0.00    -0.221 OA 
ENDROOT
BRANCH   4   7
HETATM    7  C   UNL     1     -11.021  10.567  66.800  1.00  0.00    -0.150 C  
BRANCH   7   8
HETATM    8  C   UNL     1     -10.099  11.707  67.222  1.00  0.00    -0.221 C  
BRANCH   8   9
HETATM    9  C   UNL     1     -10.653  13.055  66.775  1.00  0.00    -0.269 C  
BRANCH   9  10
HETATM   10  C   UNL     1     -10.999  13.050  65.283  1.00  0.00    -0.307 C  
BRANCH  10  11
HETATM   11  C   UNL     1     -10.470  14.319  64.636  1.00  0.00    -0.325 C  
BRANCH  11  12
HETATM   12  C   UNL     1     -11.378  15.539  64.813  1.00  0.00    -0.362 C  
BRANCH  12  13
HETATM   13  C   UNL     1     -10.539  16.686  65.356  1.00  0.00    -0.237 C  
HETATM   14  N   UNL     1      -9.423  16.284  66.068  1.00  0.00    -0.332 N  
HETATM   15  O   UNL     1     -10.859  17.853  65.134  1.00  0.00    -0.672 OA 
HETATM   16  H   UNL     1      -9.270  15.283  66.189  1.00  0.00     0.000 HD 
BRANCH  14  17
HETATM   17  C   UNL     1      -8.481  17.174  66.640  1.00  0.00    -0.250 A  
HETATM   18  C   UNL     1      -7.287  17.528  66.001  1.00  0.00    -0.288 A  
HETATM   19  C   UNL     1      -6.334  18.319  66.642  1.00  0.00    -0.215 A  
HETATM   20  C   UNL     1      -6.577  18.790  67.926  1.00  0.00    -0.223 A  
HETATM   21  C   UNL     1      -7.788  18.497  68.552  1.00  0.00    -0.341 A  
HETATM   22  C   UNL     1      -8.744  17.702  67.908  1.00  0.00    -0.245 A  
ENDBRANCH  14  17
ENDBRANCH  12  13
ENDBRANCH  11  12
ENDBRANCH  10  11
ENDBRANCH   9  10
ENDBRANCH   8   9
ENDBRANCH   7   8
ENDBRANCH   4   7
TORSDOF 8
ENDMDL
MODEL      189
REMARK 921   NORMALIZED FREE ENERGY PREDICTED BY IDOCK:   -3.79 KCAL/MOL
REMARK 922        TOTAL FREE ENERGY PREDICTED BY IDOCK:   -6.36 KCAL/MOL
REMARK 923 INTER-LIGAND FREE ENERGY PREDICTED BY IDOCK:   -5.92 KCAL/MOL
REMARK 924 INTRA-LIGAND FREE ENERGY PREDICTED BY IDOCK:   -0.44 KCAL/MOL
REMARK 927      BINDING AFFINITY PREDICTED BY RF-SCORE:    0.00 PKD
ROOT
HETATM    1  O   UNL     1      -9.974  17.917  66.679  1.00  0.00    -0.319 OA 
HETATM    2  N   UNL     1     -10.699  17.808  65.482  1.00  0.00    -0.192 N  
HETATM    3  H   UNL     1      -9.829  18.770  67.072  1.00  0.00     0.000 HD 
HETATM    4  C   UNL     1     -10.908  16.582  64.918  1.00  0.00    -0.204 C  
HETATM    5  H   UNL     1     -11.070  18.646  65.034  1.00  0.00     0.000 HD 
HETATM    6  O   UNL     1     -11.559  16.482  63.879  1.00  0.00    -1.175 OA 
ENDROOT
BRANCH   4   7
HETATM    7  C   UNL     1     -10.293  15.402  65.644  1.00  0.00    -0.395 C  
BRANCH   7   8
HETATM    8  C   UNL     1     -10.614  14.077  64.957  1.00  0.00    -0.426 C  
BRANCH   8   9
HETATM    9  C   UNL     1     -11.857  13.434  65.560  1.00  0.00    -0.394 C  
BRANCH   9  10
HETATM   10  C   UNL     1     -11.507  12.578  66.781  1.00  0.00    -0.422 C  
BRANCH  10  11
HETATM   11  C   UNL     1     -10.250  11.773  66.492  1.00  0.00    -0.240 C  
BRANCH  11  12
HETATM   12  C   UNL     1     -10.457  10.617  65.510  1.00  0.00    -0.246 C  
BRANCH  12  13
HETATM   13  C   UNL     1      -9.783   9.378  66.079  1.00  0.00    -0.275 C  
HETATM   14  N   UNL     1     -10.635   8.537  66.773  1.00  0.00    -0.242 N  
HETATM   15  O   UNL     1      -8.584   9.178  65.890  1.00  0.00    -0.136 OA 
HETATM   16  H   UNL     1     -11.611   8.819  66.865  1.00  0.00     0.000 HD 
BRANCH  14  17
HETATM   17  C   UNL     1     -10.238   7.312  67.362  1.00  0.00    -0.236 A  
HETATM   18  C   UNL     1      -9.507   7.245  68.553  1.00  0.00    -0.140 A  
HETATM   19  C   UNL     1      -9.039   6.026  69.044  1.00  0.00    -0.122 A  
HETATM   20  C   UNL     1      -9.321   4.851  68.359  1.00  0.00    -0.172 A  
HETATM   21  C   UNL     1     -10.100   4.895  67.204  1.00  0.00    -0.228 A  
HETATM   22  C   UNL     1     -10.568   6.119  66.711  1.00  0.00    -0.351 A  
ENDBRANCH  14  17
ENDBRANCH  12  13
ENDBRANCH  11  12
ENDBRANCH  10  11
ENDBRANCH   9  10
ENDBRANCH   8   9
ENDBRANCH   7   8
ENDBRANCH   4   7
TORSDOF 8
ENDMDL
MODEL      190
REMARK 921   NORMALIZED FREE ENERGY PREDICTED BY IDOCK:   -3.79 KCAL/MOL
REMARK 922        TOTAL FREE ENERGY PREDICTED BY IDOCK:   -6.35 KCAL/MOL
REMARK 923 INTER-LIGAND FREE ENERGY PREDICTED BY IDOCK:   -5.83 KCAL/MOL
REMARK 924 INTRA-LIGAND FREE ENERGY PREDICTED BY IDOCK:   -0.52 KCAL/MOL
REMARK 927      BINDING AFFINITY PREDICTED BY RF-SCORE:    0.00 PKD
ROOT
HETATM    1  O   UNL     1     -12.388   9.274  71.995  1.00  0.00    -0.365 OA 
HETATM    2  N   UNL     1     -12.547   7.969  72.487  1.00  0.00    -0.575 N  
HETATM    3  H   UNL     1     -12.939   9.976  72.321  1.00  0.00     0.000 HD 
HETATM    4  C   UNL     1     -11.754   6.960  72.018  1.00  0.00    -0.300 C  
HETATM    5  H   UNL     1     -13.255   7.774  73.194  1.00  0.00     0.000 HD 
HETATM    6  O   UNL     1     -11.878   5.819  72.460  1.00  0.00    -0.297 OA 
ENDROOT
BRANCH   4   7
HETATM    7  C   UNL     1     -10.751   7.344  70.948  1.00  0.00    -0.248 C  
BRANCH   7   8
HETATM    8  C   UNL     1     -11.024   6.632  69.626  1.00  0.00    -0.367 C  
BRANCH   8   9
HETATM    9  C   UNL     1      -9.923   6.918  68.612  1.00  0.00    -0.149 C  
BRANCH   9  10
HETATM   10  C   UNL     1     -10.492   7.511  67.320  1.00  0.00    -0.391 C  
BRANCH  10  11
HETATM   11  C   UNL     1     -10.792   8.986  67.529  1.00  0.00    -0.130 C  
BRANCH  11  12
HETATM   12  C   UNL     1      -9.944   9.927  66.670  1.00  0.00    -0.277 C  
BRANCH  12  13
HETATM   13  C   UNL     1     -10.542  11.324  66.753  1.00  0.00    -0.260 C  
HETATM   14  N   UNL     1      -9.603  12.339  66.802  1.00  0.00    -0.212 N  
HETATM   15  O   UNL     1     -11.762  11.482  66.753  1.00  0.00    -0.510 OA 
HETATM   16  H   UNL     1      -8.617  12.078  66.802  1.00  0.00     0.000 HD 
BRANCH  14  17
HETATM   17  C   UNL     1      -9.925  13.718  66.851  1.00  0.00    -0.264 A  
HETATM   18  C   UNL     1     -10.106  14.412  68.053  1.00  0.00    -0.232 A  
HETATM   19  C   UNL     1     -10.531  15.740  68.061  1.00  0.00    -0.270 A  
HETATM   20  C   UNL     1     -10.754  16.402  66.860  1.00  0.00    -0.202 A  
HETATM   21  C   UNL     1     -10.519  15.743  65.654  1.00  0.00    -0.402 A  
HETATM   22  C   UNL     1     -10.094  14.408  65.647  1.00  0.00    -0.377 A  
ENDBRANCH  14  17
ENDBRANCH  12  13
ENDBRANCH  11  12
ENDBRANCH  10  11
ENDBRANCH   9  10
ENDBRANCH   8   9
ENDBRANCH   7   8
ENDBRANCH   4   7
TORSDOF 8
ENDMDL
MODEL      191
REMARK 921   NORMALIZED FREE ENERGY PREDICTED BY IDOCK:   -3.79 KCAL/MOL
REMARK 922        TOTAL FREE ENERGY PREDICTED BY IDOCK:   -6.35 KCAL/MOL
REMARK 923 INTER-LIGAND FREE ENERGY PREDICTED BY IDOCK:   -5.60 KCAL/MOL
REMARK 924 INTRA-LIGAND FREE ENERGY PREDICTED BY IDOCK:   -0.74 KCAL/MOL
REMARK 927      BINDING AFFINITY PREDICTED BY RF-SCORE:    0.00 PKD
ROOT
HETATM    1  O   UNL     1      -6.587   3.850  73.323  1.00  0.00    -0.037 OA 
HETATM    2  N   UNL     1      -7.069   5.072  73.817  1.00  0.00    -0.080 N  
HETATM    3  H   UNL     1      -5.744   3.520  73.611  1.00  0.00     0.000 HD 
HETATM    4  C   UNL     1      -8.281   5.547  73.404  1.00  0.00    -0.114 C  
HETATM    5  H   UNL     1      -6.514   5.606  74.485  1.00  0.00     0.000 HD 
HETATM    6  O   UNL     1      -8.715   6.608  73.849  1.00  0.00    -0.131 OA 
ENDROOT
BRANCH   4   7
HETATM    7  C   UNL     1      -9.018   4.696  72.388  1.00  0.00    -0.138 C  
BRANCH   7   8
HETATM    8  C   UNL     1      -8.745   5.148  70.957  1.00  0.00    -0.139 C  
BRANCH   8   9
HETATM    9  C   UNL     1      -9.995   5.018  70.093  1.00  0.00    -0.328 C  
BRANCH   9  10
HETATM   10  C   UNL     1     -10.571   6.391  69.734  1.00  0.00    -0.309 C  
BRANCH  10  11
HETATM   11  C   UNL     1     -11.979   6.511  70.294  1.00  0.00    -0.252 C  
BRANCH  11  12
HETATM   12  C   UNL     1     -12.044   7.077  71.715  1.00  0.00    -0.371 C  
BRANCH  12  13
HETATM   13  C   UNL     1     -11.677   8.552  71.661  1.00  0.00    -0.306 C  
HETATM   14  N   UNL     1     -12.683   9.369  71.174  1.00  0.00    -0.445 N  
HETATM   15  O   UNL     1     -10.574   8.936  72.049  1.00  0.00    -0.341 OA 
HETATM   16  H   UNL     1     -13.553   8.928  70.877  1.00  0.00     0.000 HD 
BRANCH  14  17
HETATM   17  C   UNL     1     -12.580  10.777  71.062  1.00  0.00    -0.420 A  
HETATM   18  C   UNL     1     -13.211  11.657  71.948  1.00  0.00    -0.475 A  
HETATM   19  C   UNL     1     -13.178  13.035  71.741  1.00  0.00    -0.486 A  
HETATM   20  C   UNL     1     -12.486  13.555  70.654  1.00  0.00    -0.405 A  
HETATM   21  C   UNL     1     -11.801  12.695  69.796  1.00  0.00    -0.379 A  
HETATM   22  C   UNL     1     -11.836  11.311  70.004  1.00  0.00    -0.448 A  
ENDBRANCH  14  17
ENDBRANCH  12  13
ENDBRANCH  11  12
ENDBRANCH  10  11
ENDBRANCH   9  10
ENDBRANCH   8   9
ENDBRANCH   7   8
ENDBRANCH   4   7
TORSDOF 8
ENDMDL
MODEL      192
REMARK 921   NORMALIZED FREE ENERGY PREDICTED BY IDOCK:   -3.78 KCAL/MOL
REMARK 922        TOTAL FREE ENERGY PREDICTED BY IDOCK:   -6.34 KCAL/MOL
REMARK 923 INTER-LIGAND FREE ENERGY PREDICTED BY IDOCK:   -6.03 KCAL/MOL
REMARK 924 INTRA-LIGAND FREE ENERGY PREDICTED BY IDOCK:   -0.31 KCAL/MOL
REMARK 927      BINDING AFFINITY PREDICTED BY RF-SCORE:    0.00 PKD
ROOT
HETATM    1  O   UNL     1      -8.427  14.830  67.375  1.00  0.00    -0.175 OA 
HETATM    2  N   UNL     1      -9.174  15.781  68.088  1.00  0.00    -0.188 N  
HETATM    3  H   UNL     1      -7.538  14.628  67.640  1.00  0.00     0.000 HD 
HETATM    4  C   UNL     1     -10.453  16.072  67.708  1.00  0.00    -0.298 C  
HETATM    5  H   UNL     1      -8.760  16.256  68.890  1.00  0.00     0.000 HD 
HETATM    6  O   UNL     1     -11.115  16.892  68.341  1.00  0.00    -0.341 OA 
ENDROOT
BRANCH   4   7
HETATM    7  C   UNL     1     -10.967  15.336  66.487  1.00  0.00    -0.295 C  
BRANCH   7   8
HETATM    8  C   UNL     1     -11.579  13.985  66.848  1.00  0.00    -0.407 C  
BRANCH   8   9
HETATM    9  C   UNL     1     -12.030  13.960  68.304  1.00  0.00    -0.392 C  
BRANCH   9  10
HETATM   10  C   UNL     1     -11.305  12.866  69.094  1.00  0.00    -0.329 C  
BRANCH  10  11
HETATM   11  C   UNL     1     -12.008  11.535  68.878  1.00  0.00    -0.364 C  
BRANCH  11  12
HETATM   12  C   UNL     1     -11.171  10.500  68.122  1.00  0.00    -0.357 C  
BRANCH  12  13
HETATM   13  C   UNL     1     -10.658   9.475  69.122  1.00  0.00    -0.222 C  
HETATM   14  N   UNL     1     -11.568   9.145  70.112  1.00  0.00    -0.458 N  
HETATM   15  O   UNL     1      -9.531   8.995  69.003  1.00  0.00    -0.153 OA 
HETATM   16  H   UNL     1     -12.471   9.618  70.106  1.00  0.00     0.000 HD 
BRANCH  14  17
HETATM   17  C   UNL     1     -11.323   8.192  71.131  1.00  0.00    -0.269 A  
HETATM   18  C   UNL     1     -10.721   8.524  72.350  1.00  0.00    -0.376 A  
HETATM   19  C   UNL     1     -10.396   7.540  73.284  1.00  0.00    -0.412 A  
HETATM   20  C   UNL     1     -10.695   6.210  73.019  1.00  0.00    -0.276 A  
HETATM   21  C   UNL     1     -11.350   5.871  71.837  1.00  0.00    -0.307 A  
HETATM   22  C   UNL     1     -11.675   6.859  70.899  1.00  0.00    -0.408 A  
ENDBRANCH  14  17
ENDBRANCH  12  13
ENDBRANCH  11  12
ENDBRANCH  10  11
ENDBRANCH   9  10
ENDBRANCH   8   9
ENDBRANCH   7   8
ENDBRANCH   4   7
TORSDOF 8
ENDMDL
MODEL      193
REMARK 921   NORMALIZED FREE ENERGY PREDICTED BY IDOCK:   -3.78 KCAL/MOL
REMARK 922        TOTAL FREE ENERGY PREDICTED BY IDOCK:   -6.33 KCAL/MOL
REMARK 923 INTER-LIGAND FREE ENERGY PREDICTED BY IDOCK:   -6.07 KCAL/MOL
REMARK 924 INTRA-LIGAND FREE ENERGY PREDICTED BY IDOCK:   -0.26 KCAL/MOL
REMARK 927      BINDING AFFINITY PREDICTED BY RF-SCORE:    0.00 PKD
ROOT
HETATM    1  O   UNL     1      -5.764  19.739  71.366  1.00  0.00    -0.291 OA 
HETATM    2  N   UNL     1      -5.665  20.138  70.024  1.00  0.00    -0.281 N  
HETATM    3  H   UNL     1      -5.480  20.324  72.059  1.00  0.00     0.000 HD 
HETATM    4  C   UNL     1      -6.073  19.297  69.028  1.00  0.00    -0.249 C  
HETATM    5  H   UNL     1      -5.287  21.057  69.793  1.00  0.00     0.000 HD 
HETATM    6  O   UNL     1      -6.004  19.651  67.853  1.00  0.00    -0.204 OA 
ENDROOT
BRANCH   4   7
HETATM    7  C   UNL     1      -6.592  17.944  69.472  1.00  0.00    -0.143 C  
BRANCH   7   8
HETATM    8  C   UNL     1      -5.882  16.796  68.759  1.00  0.00    -0.141 C  
BRANCH   8   9
HETATM    9  C   UNL     1      -6.885  15.831  68.139  1.00  0.00    -0.128 C  
BRANCH   9  10
HETATM   10  C   UNL     1      -7.583  16.452  66.926  1.00  0.00    -0.275 C  
BRANCH  10  11
HETATM   11  C   UNL     1      -9.035  16.006  66.893  1.00  0.00    -0.253 C  
BRANCH  11  12
HETATM   12  C   UNL     1      -9.375  14.900  67.896  1.00  0.00    -0.191 C  
BRANCH  12  13
HETATM   13  C   UNL     1     -10.638  15.300  68.642  1.00  0.00    -0.236 C  
HETATM   14  N   UNL     1     -10.659  14.909  69.970  1.00  0.00    -0.455 N  
HETATM   15  O   UNL     1     -11.526  15.934  68.073  1.00  0.00    -0.328 OA 
HETATM   16  H   UNL     1      -9.863  14.381  70.324  1.00  0.00     0.000 HD 
BRANCH  14  17
HETATM   17  C   UNL     1     -11.717  15.197  70.867  1.00  0.00    -0.332 A  
HETATM   18  C   UNL     1     -11.507  15.484  72.220  1.00  0.00    -0.496 A  
HETATM   19  C   UNL     1     -12.580  15.653  73.095  1.00  0.00    -0.588 A  
HETATM   20  C   UNL     1     -13.882  15.563  72.620  1.00  0.00    -0.654 A  
HETATM   21  C   UNL     1     -14.107  15.337  71.263  1.00  0.00    -0.527 A  
HETATM   22  C   UNL     1     -13.029  15.166  70.384  1.00  0.00    -0.296 A  
ENDBRANCH  14  17
ENDBRANCH  12  13
ENDBRANCH  11  12
ENDBRANCH  10  11
ENDBRANCH   9  10
ENDBRANCH   8   9
ENDBRANCH   7   8
ENDBRANCH   4   7
TORSDOF 8
ENDMDL
MODEL      194
REMARK 921   NORMALIZED FREE ENERGY PREDICTED BY IDOCK:   -3.77 KCAL/MOL
REMARK 922        TOTAL FREE ENERGY PREDICTED BY IDOCK:   -6.33 KCAL/MOL
REMARK 923 INTER-LIGAND FREE ENERGY PREDICTED BY IDOCK:   -5.51 KCAL/MOL
REMARK 924 INTRA-LIGAND FREE ENERGY PREDICTED BY IDOCK:   -0.81 KCAL/MOL
REMARK 927      BINDING AFFINITY PREDICTED BY RF-SCORE:    0.00 PKD
ROOT
HETATM    1  O   UNL     1      -7.737  12.247  69.384  1.00  0.00    -0.304 OA 
HETATM    2  N   UNL     1      -7.009  11.652  68.342  1.00  0.00    -0.073 N  
HETATM    3  H   UNL     1      -7.395  12.236  70.271  1.00  0.00     0.000 HD 
HETATM    4  C   UNL     1      -7.500  11.669  67.068  1.00  0.00    -0.150 C  
HETATM    5  H   UNL     1      -6.112  11.208  68.537  1.00  0.00     0.000 HD 
HETATM    6  O   UNL     1      -6.855  11.165  66.150  1.00  0.00    -0.100 OA 
ENDROOT
BRANCH   4   7
HETATM    7  C   UNL     1      -8.853  12.328  66.885  1.00  0.00    -0.207 C  
BRANCH   7   8
HETATM    8  C   UNL     1      -9.976  11.303  66.753  1.00  0.00    -0.238 C  
BRANCH   8   9
HETATM    9  C   UNL     1     -11.321  11.912  67.132  1.00  0.00    -0.393 C  
BRANCH   9  10
HETATM   10  C   UNL     1     -11.628  11.707  68.619  1.00  0.00    -0.373 C  
BRANCH  10  11
HETATM   11  C   UNL     1     -11.682  13.057  69.315  1.00  0.00    -0.375 C  
BRANCH  11  12
HETATM   12  C   UNL     1     -12.156  14.206  68.422  1.00  0.00    -0.308 C  
BRANCH  12  13
HETATM   13  C   UNL     1     -11.418  15.471  68.833  1.00  0.00    -0.354 C  
HETATM   14  N   UNL     1     -10.581  15.981  67.856  1.00  0.00    -0.292 N  
HETATM   15  O   UNL     1     -11.603  15.968  69.943  1.00  0.00    -0.324 OA 
HETATM   16  H   UNL     1     -10.509  15.471  66.976  1.00  0.00     0.000 HD 
BRANCH  14  17
HETATM   17  C   UNL     1      -9.818  17.165  68.002  1.00  0.00    -0.283 A  
HETATM   18  C   UNL     1     -10.366  18.444  67.853  1.00  0.00    -0.425 A  
HETATM   19  C   UNL     1      -9.561  19.582  67.894  1.00  0.00    -0.445 A  
HETATM   20  C   UNL     1      -8.195  19.456  68.114  1.00  0.00    -0.359 A  
HETATM   21  C   UNL     1      -7.644  18.193  68.325  1.00  0.00    -0.280 A  
HETATM   22  C   UNL     1      -8.452  17.050  68.282  1.00  0.00    -0.233 A  
ENDBRANCH  14  17
ENDBRANCH  12  13
ENDBRANCH  11  12
ENDBRANCH  10  11
ENDBRANCH   9  10
ENDBRANCH   8   9
ENDBRANCH   7   8
ENDBRANCH   4   7
TORSDOF 8
ENDMDL
MODEL      195
REMARK 921   NORMALIZED FREE ENERGY PREDICTED BY IDOCK:   -3.77 KCAL/MOL
REMARK 922        TOTAL FREE ENERGY PREDICTED BY IDOCK:   -6.32 KCAL/MOL
REMARK 923 INTER-LIGAND FREE ENERGY PREDICTED BY IDOCK:   -5.91 KCAL/MOL
REMARK 924 INTRA-LIGAND FREE ENERGY PREDICTED BY IDOCK:   -0.42 KCAL/MOL
REMARK 927      BINDING AFFINITY PREDICTED BY RF-SCORE:    0.00 PKD
ROOT
HETATM    1  O   UNL     1     -12.059  14.890  70.571  1.00  0.00    -0.279 OA 
HETATM    2  N   UNL     1     -12.214  15.181  69.207  1.00  0.00    -0.559 N  
HETATM    3  H   UNL     1     -12.403  15.486  71.226  1.00  0.00     0.000 HD 
HETATM    4  C   UNL     1     -11.720  14.325  68.264  1.00  0.00    -0.342 C  
HETATM    5  H   UNL     1     -12.696  16.032  68.919  1.00  0.00     0.000 HD 
HETATM    6  O   UNL     1     -11.870  14.567  67.068  1.00  0.00    -0.394 OA 
ENDROOT
BRANCH   4   7
HETATM    7  C   UNL     1     -10.995  13.102  68.791  1.00  0.00    -0.298 C  
BRANCH   7   8
HETATM    8  C   UNL     1     -11.877  11.857  68.764  1.00  0.00    -0.371 C  
BRANCH   8   9
HETATM    9  C   UNL     1     -12.539  11.624  70.117  1.00  0.00    -0.106 C  
BRANCH   9  10
HETATM   10  C   UNL     1     -11.928  10.418  70.838  1.00  0.00    -0.478 C  
BRANCH  10  11
HETATM   11  C   UNL     1     -13.016   9.678  71.597  1.00  0.00    -0.501 C  
BRANCH  11  12
HETATM   12  C   UNL     1     -12.503   8.835  72.768  1.00  0.00    -0.101 C  
BRANCH  12  13
HETATM   13  C   UNL     1     -12.344   7.399  72.293  1.00  0.00    -0.128 C  
HETATM   14  N   UNL     1     -11.230   6.755  72.802  1.00  0.00    -0.376 N  
HETATM   15  O   UNL     1     -13.175   6.895  71.539  1.00  0.00    -0.345 OA 
HETATM   16  H   UNL     1     -10.611   7.284  73.415  1.00  0.00     0.000 HD 
BRANCH  14  17
HETATM   17  C   UNL     1     -10.895   5.406  72.524  1.00  0.00    -0.250 A  
HETATM   18  C   UNL     1     -11.230   4.350  73.378  1.00  0.00    -0.386 A  
HETATM   19  C   UNL     1     -10.788   3.052  73.127  1.00  0.00    -0.240 A  
HETATM   20  C   UNL     1     -10.023   2.789  71.997  1.00  0.00    -0.226 A  
HETATM   21  C   UNL     1      -9.733   3.819  71.104  1.00  0.00    -0.245 A  
HETATM   22  C   UNL     1     -10.176   5.123  71.359  1.00  0.00    -0.282 A  
ENDBRANCH  14  17
ENDBRANCH  12  13
ENDBRANCH  11  12
ENDBRANCH  10  11
ENDBRANCH   9  10
ENDBRANCH   8   9
ENDBRANCH   7   8
ENDBRANCH   4   7
TORSDOF 8
ENDMDL
MODEL      196
REMARK 921   NORMALIZED FREE ENERGY PREDICTED BY IDOCK:   -3.76 KCAL/MOL
REMARK 922        TOTAL FREE ENERGY PREDICTED BY IDOCK:   -6.31 KCAL/MOL
REMARK 923 INTER-LIGAND FREE ENERGY PREDICTED BY IDOCK:   -5.10 KCAL/MOL
REMARK 924 INTRA-LIGAND FREE ENERGY PREDICTED BY IDOCK:   -1.22 KCAL/MOL
REMARK 927      BINDING AFFINITY PREDICTED BY RF-SCORE:    0.00 PKD
ROOT
HETATM    1  O   UNL     1      -8.957   8.465  68.442  1.00  0.00    -0.136 OA 
HETATM    2  N   UNL     1      -9.272   7.097  68.412  1.00  0.00    -0.134 N  
HETATM    3  H   UNL     1      -9.446   9.077  67.905  1.00  0.00     0.000 HD 
HETATM    4  C   UNL     1      -8.570   6.216  69.184  1.00  0.00    -0.119 C  
HETATM    5  H   UNL     1     -10.027   6.762  67.814  1.00  0.00     0.000 HD 
HETATM    6  O   UNL     1      -8.856   5.020  69.174  1.00  0.00    -0.090 OA 
ENDROOT
BRANCH   4   7
HETATM    7  C   UNL     1      -7.449   6.808  70.016  1.00  0.00    -0.094 C  
BRANCH   7   8
HETATM    8  C   UNL     1      -7.846   6.965  71.481  1.00  0.00    -0.100 C  
BRANCH   8   9
HETATM    9  C   UNL     1      -7.483   5.722  72.285  1.00  0.00    -0.099 C  
BRANCH   9  10
HETATM   10  C   UNL     1      -8.535   5.422  73.357  1.00  0.00    -0.116 C  
BRANCH  10  11
HETATM   11  C   UNL     1      -9.656   4.596  72.749  1.00  0.00    -0.164 C  
BRANCH  11  12
HETATM   12  C   UNL     1     -11.062   5.080  73.114  1.00  0.00    -0.395 C  
BRANCH  12  13
HETATM   13  C   UNL     1     -11.431   6.227  72.186  1.00  0.00    -0.307 C  
HETATM   14  N   UNL     1     -11.526   7.456  72.814  1.00  0.00    -0.515 N  
HETATM   15  O   UNL     1     -11.599   6.027  70.983  1.00  0.00    -0.253 OA 
HETATM   16  H   UNL     1     -11.370   7.490  73.821  1.00  0.00     0.000 HD 
BRANCH  14  17
HETATM   17  C   UNL     1     -11.827   8.669  72.146  1.00  0.00    -0.377 A  
HETATM   18  C   UNL     1     -13.055   9.325  72.282  1.00  0.00    -0.517 A  
HETATM   19  C   UNL     1     -13.355  10.456  71.524  1.00  0.00    -0.405 A  
HETATM   20  C   UNL     1     -12.414  10.964  70.636  1.00  0.00    -0.460 A  
HETATM   21  C   UNL     1     -11.163  10.357  70.535  1.00  0.00    -0.395 A  
HETATM   22  C   UNL     1     -10.863   9.220  71.295  1.00  0.00    -0.417 A  
ENDBRANCH  14  17
ENDBRANCH  12  13
ENDBRANCH  11  12
ENDBRANCH  10  11
ENDBRANCH   9  10
ENDBRANCH   8   9
ENDBRANCH   7   8
ENDBRANCH   4   7
TORSDOF 8
ENDMDL
MODEL      197
REMARK 921   NORMALIZED FREE ENERGY PREDICTED BY IDOCK:   -3.76 KCAL/MOL
REMARK 922        TOTAL FREE ENERGY PREDICTED BY IDOCK:   -6.30 KCAL/MOL
REMARK 923 INTER-LIGAND FREE ENERGY PREDICTED BY IDOCK:   -5.67 KCAL/MOL
REMARK 924 INTRA-LIGAND FREE ENERGY PREDICTED BY IDOCK:   -0.62 KCAL/MOL
REMARK 927      BINDING AFFINITY PREDICTED BY RF-SCORE:    0.00 PKD
ROOT
HETATM    1  O   UNL     1     -10.264  17.029  65.417  1.00  0.00    -0.605 OA 
HETATM    2  N   UNL     1      -9.519  17.099  66.606  1.00  0.00    -0.254 N  
HETATM    3  H   UNL     1     -10.007  17.547  64.663  1.00  0.00     0.000 HD 
HETATM    4  C   UNL     1      -9.888  16.355  67.689  1.00  0.00    -0.243 C  
HETATM    5  H   UNL     1      -8.702  17.707  66.659  1.00  0.00     0.000 HD 
HETATM    6  O   UNL     1      -9.228  16.400  68.725  1.00  0.00    -0.220 OA 
ENDROOT
BRANCH   4   7
HETATM    7  C   UNL     1     -11.132  15.505  67.520  1.00  0.00    -0.305 C  
BRANCH   7   8
HETATM    8  C   UNL     1     -11.484  14.744  68.796  1.00  0.00    -0.324 C  
BRANCH   8   9
HETATM    9  C   UNL     1     -10.983  13.306  68.732  1.00  0.00    -0.294 C  
BRANCH   9  10
HETATM   10  C   UNL     1     -10.918  12.800  67.288  1.00  0.00    -0.294 C  
BRANCH  10  11
HETATM   11  C   UNL     1     -11.217  11.310  67.260  1.00  0.00    -0.364 C  
BRANCH  11  12
HETATM   12  C   UNL     1      -9.994  10.429  66.996  1.00  0.00    -0.252 C  
BRANCH  12  13
HETATM   13  C   UNL     1      -9.746   9.569  68.226  1.00  0.00    -0.147 C  
HETATM   14  N   UNL     1     -10.895   9.037  68.785  1.00  0.00    -0.423 N  
HETATM   15  O   UNL     1      -8.602   9.378  68.634  1.00  0.00    -0.121 OA 
HETATM   16  H   UNL     1     -11.789   9.276  68.356  1.00  0.00     0.000 HD 
BRANCH  14  17
HETATM   17  C   UNL     1     -10.907   8.183  69.915  1.00  0.00    -0.215 A  
HETATM   18  C   UNL     1     -10.611   6.818  69.837  1.00  0.00    -0.257 A  
HETATM   19  C   UNL     1     -10.741   5.987  70.950  1.00  0.00    -0.329 A  
HETATM   20  C   UNL     1     -11.146   6.521  72.167  1.00  0.00    -0.296 A  
HETATM   21  C   UNL     1     -11.386   7.890  72.275  1.00  0.00    -0.393 A  
HETATM   22  C   UNL     1     -11.257   8.722  71.157  1.00  0.00    -0.339 A  
ENDBRANCH  14  17
ENDBRANCH  12  13
ENDBRANCH  11  12
ENDBRANCH  10  11
ENDBRANCH   9  10
ENDBRANCH   8   9
ENDBRANCH   7   8
ENDBRANCH   4   7
TORSDOF 8
ENDMDL
MODEL      198
REMARK 921   NORMALIZED FREE ENERGY PREDICTED BY IDOCK:   -3.75 KCAL/MOL
REMARK 922        TOTAL FREE ENERGY PREDICTED BY IDOCK:   -6.29 KCAL/MOL
REMARK 923 INTER-LIGAND FREE ENERGY PREDICTED BY IDOCK:   -5.76 KCAL/MOL
REMARK 924 INTRA-LIGAND FREE ENERGY PREDICTED BY IDOCK:   -0.53 KCAL/MOL
REMARK 927      BINDING AFFINITY PREDICTED BY RF-SCORE:    0.00 PKD
ROOT
HETATM    1  O   UNL     1     -11.162  11.111  63.153  1.00  0.00    -0.807 OA 
HETATM    2  N   UNL     1     -11.436  12.488  63.122  1.00  0.00    -0.753 N  
HETATM    3  H   UNL     1     -11.200  10.601  62.352  1.00  0.00     0.000 HD 
HETATM    4  C   UNL     1     -11.382  13.222  64.272  1.00  0.00    -0.393 C  
HETATM    5  H   UNL     1     -11.676  12.940  62.240  1.00  0.00     0.000 HD 
HETATM    6  O   UNL     1     -11.603  14.431  64.246  1.00  0.00    -0.347 OA 
ENDROOT
BRANCH   4   7
HETATM    7  C   UNL     1     -11.045  12.455  65.536  1.00  0.00    -0.338 C  
BRANCH   7   8
HETATM    8  C   UNL     1     -10.851  13.381  66.734  1.00  0.00    -0.286 C  
BRANCH   8   9
HETATM    9  C   UNL     1      -9.534  14.141  66.631  1.00  0.00    -0.303 C  
BRANCH   9  10
HETATM   10  C   UNL     1      -8.614  13.826  67.815  1.00  0.00    -0.184 C  
BRANCH  10  11
HETATM   11  C   UNL     1      -7.525  12.864  67.368  1.00  0.00    -0.135 C  
BRANCH  11  12
HETATM   12  C   UNL     1      -7.118  11.840  68.431  1.00  0.00    -0.085 C  
BRANCH  12  13
HETATM   13  C   UNL     1      -8.176  10.749  68.477  1.00  0.00    -0.136 C  
HETATM   14  N   UNL     1      -8.366  10.197  69.732  1.00  0.00    -0.294 N  
HETATM   15  O   UNL     1      -8.797  10.438  67.462  1.00  0.00    -0.134 OA 
HETATM   16  H   UNL     1      -7.783  10.538  70.496  1.00  0.00     0.000 HD 
BRANCH  14  17
HETATM   17  C   UNL     1      -9.319   9.190  70.022  1.00  0.00    -0.199 A  
HETATM   18  C   UNL     1      -9.210   7.882  69.538  1.00  0.00    -0.152 A  
HETATM   19  C   UNL     1     -10.223   6.947  69.752  1.00  0.00    -0.210 A  
HETATM   20  C   UNL     1     -11.351   7.305  70.480  1.00  0.00    -0.308 A  
HETATM   21  C   UNL     1     -11.447   8.587  71.020  1.00  0.00    -0.313 A  
HETATM   22  C   UNL     1     -10.429   9.525  70.803  1.00  0.00    -0.384 A  
ENDBRANCH  14  17
ENDBRANCH  12  13
ENDBRANCH  11  12
ENDBRANCH  10  11
ENDBRANCH   9  10
ENDBRANCH   8   9
ENDBRANCH   7   8
ENDBRANCH   4   7
TORSDOF 8
ENDMDL
MODEL      199
REMARK 921   NORMALIZED FREE ENERGY PREDICTED BY IDOCK:   -3.75 KCAL/MOL
REMARK 922        TOTAL FREE ENERGY PREDICTED BY IDOCK:   -6.29 KCAL/MOL
REMARK 923 INTER-LIGAND FREE ENERGY PREDICTED BY IDOCK:   -5.82 KCAL/MOL
REMARK 924 INTRA-LIGAND FREE ENERGY PREDICTED BY IDOCK:   -0.47 KCAL/MOL
REMARK 927      BINDING AFFINITY PREDICTED BY RF-SCORE:    0.00 PKD
ROOT
HETATM    1  O   UNL     1      -8.220   5.383  71.343  1.00  0.00    -0.113 OA 
HETATM    2  N   UNL     1      -8.895   5.394  72.574  1.00  0.00    -0.130 N  
HETATM    3  H   UNL     1      -7.528   4.751  71.185  1.00  0.00     0.000 HD 
HETATM    4  C   UNL     1      -9.889   6.302  72.800  1.00  0.00    -0.166 C  
HETATM    5  H   UNL     1      -8.643   4.722  73.299  1.00  0.00     0.000 HD 
HETATM    6  O   UNL     1     -10.496   6.302  73.870  1.00  0.00    -0.274 OA 
ENDROOT
BRANCH   4   7
HETATM    7  C   UNL     1     -10.171   7.276  71.673  1.00  0.00    -0.207 C  
BRANCH   7   8
HETATM    8  C   UNL     1     -10.790   8.575  72.180  1.00  0.00    -0.427 C  
BRANCH   8   9
HETATM    9  C   UNL     1     -11.865   9.080  71.225  1.00  0.00    -0.379 C  
BRANCH   9  10
HETATM   10  C   UNL     1     -12.695  10.200  71.859  1.00  0.00    -0.493 C  
BRANCH  10  11
HETATM   11  C   UNL     1     -12.425  11.506  71.129  1.00  0.00    -0.442 C  
BRANCH  11  12
HETATM   12  C   UNL     1     -12.813  12.758  71.919  1.00  0.00    -0.306 C  
BRANCH  12  13
HETATM   13  C   UNL     1     -12.442  13.981  71.093  1.00  0.00    -0.371 C  
HETATM   14  N   UNL     1     -11.421  13.762  70.185  1.00  0.00    -0.497 N  
HETATM   15  O   UNL     1     -13.046  15.042  71.243  1.00  0.00    -0.343 OA 
HETATM   16  H   UNL     1     -10.995  12.836  70.160  1.00  0.00     0.000 HD 
BRANCH  14  17
HETATM   17  C   UNL     1     -10.929  14.743  69.289  1.00  0.00    -0.261 A  
HETATM   18  C   UNL     1     -11.464  14.939  68.012  1.00  0.00    -0.355 A  
HETATM   19  C   UNL     1     -10.883  15.838  67.118  1.00  0.00    -0.289 A  
HETATM   20  C   UNL     1      -9.770  16.575  67.503  1.00  0.00    -0.242 A  
HETATM   21  C   UNL     1      -9.263  16.435  68.794  1.00  0.00    -0.239 A  
HETATM   22  C   UNL     1      -9.846  15.531  69.691  1.00  0.00    -0.281 A  
ENDBRANCH  14  17
ENDBRANCH  12  13
ENDBRANCH  11  12
ENDBRANCH  10  11
ENDBRANCH   9  10
ENDBRANCH   8   9
ENDBRANCH   7   8
ENDBRANCH   4   7
TORSDOF 8
ENDMDL
MODEL      200
REMARK 921   NORMALIZED FREE ENERGY PREDICTED BY IDOCK:   -3.74 KCAL/MOL
REMARK 922        TOTAL FREE ENERGY PREDICTED BY IDOCK:   -6.28 KCAL/MOL
REMARK 923 INTER-LIGAND FREE ENERGY PREDICTED BY IDOCK:   -5.75 KCAL/MOL
REMARK 924 INTRA-LIGAND FREE ENERGY PREDICTED BY IDOCK:   -0.53 KCAL/MOL
REMARK 927      BINDING AFFINITY PREDICTED BY RF-SCORE:    0.00 PKD
ROOT
HETATM    1  O   UNL     1     -11.378   4.827  65.181  1.00  0.00    -0.881 OA 
HETATM    2  N   UNL     1     -10.867   4.516  66.451  1.00  0.00    -0.332 N  
HETATM    3  H   UNL     1     -12.081   4.305  64.811  1.00  0.00     0.000 HD 
HETATM    4  C   UNL     1      -9.857   5.266  66.984  1.00  0.00    -0.167 C  
HETATM    5  H   UNL     1     -11.249   3.730  66.976  1.00  0.00     0.000 HD 
HETATM    6  O   UNL     1      -9.420   5.008  68.104  1.00  0.00    -0.121 OA 
ENDROOT
BRANCH   4   7
HETATM    7  C   UNL     1      -9.337   6.395  66.115  1.00  0.00    -0.110 C  
BRANCH   7   8
HETATM    8  C   UNL     1      -9.362   7.735  66.844  1.00  0.00    -0.212 C  
BRANCH   8   9
HETATM    9  C   UNL     1      -9.305   8.896  65.857  1.00  0.00    -0.301 C  
BRANCH   9  10
HETATM   10  C   UNL     1     -10.421   9.911  66.123  1.00  0.00    -0.144 C  
BRANCH  10  11
HETATM   11  C   UNL     1     -10.718   9.959  67.613  1.00  0.00    -0.339 C  
BRANCH  11  12
HETATM   12  C   UNL     1     -11.644  11.104  68.032  1.00  0.00    -0.337 C  
BRANCH  12  13
HETATM   13  C   UNL     1     -10.872  12.410  67.923  1.00  0.00    -0.222 C  
HETATM   14  N   UNL     1     -11.613  13.464  67.418  1.00  0.00    -0.333 N  
HETATM   15  O   UNL     1      -9.698  12.474  68.286  1.00  0.00    -0.219 OA 
HETATM   16  H   UNL     1     -12.578  13.282  67.146  1.00  0.00     0.000 HD 
BRANCH  14  17
HETATM   17  C   UNL     1     -11.114  14.781  67.256  1.00  0.00    -0.332 A  
HETATM   18  C   UNL     1     -11.148  15.735  68.278  1.00  0.00    -0.342 A  
HETATM   19  C   UNL     1     -10.750  17.052  68.047  1.00  0.00    -0.365 A  
HETATM   20  C   UNL     1     -10.286  17.424  66.792  1.00  0.00    -0.318 A  
HETATM   21  C   UNL     1     -10.189  16.470  65.780  1.00  0.00    -0.350 A  
HETATM   22  C   UNL     1     -10.591  15.148  66.013  1.00  0.00    -0.329 A  
ENDBRANCH  14  17
ENDBRANCH  12  13
ENDBRANCH  11  12
ENDBRANCH  10  11
ENDBRANCH   9  10
ENDBRANCH   8   9
ENDBRANCH   7   8
ENDBRANCH   4   7
TORSDOF 8
ENDMDL
MODEL      201
REMARK 921   NORMALIZED FREE ENERGY PREDICTED BY IDOCK:   -3.73 KCAL/MOL
REMARK 922        TOTAL FREE ENERGY PREDICTED BY IDOCK:   -6.26 KCAL/MOL
REMARK 923 INTER-LIGAND FREE ENERGY PREDICTED BY IDOCK:   -5.62 KCAL/MOL
REMARK 924 INTRA-LIGAND FREE ENERGY PREDICTED BY IDOCK:   -0.64 KCAL/MOL
REMARK 927      BINDING AFFINITY PREDICTED BY RF-SCORE:    0.00 PKD
ROOT
HETATM    1  O   UNL     1     -10.149  17.283  65.632  1.00  0.00    -0.566 OA 
HETATM    2  N   UNL     1      -9.549  17.160  66.895  1.00  0.00    -0.253 N  
HETATM    3  H   UNL     1      -9.748  17.831  64.967  1.00  0.00     0.000 HD 
HETATM    4  C   UNL     1     -10.125  16.373  67.852  1.00  0.00    -0.250 C  
HETATM    5  H   UNL     1      -8.683  17.659  67.099  1.00  0.00     0.000 HD 
HETATM    6  O   UNL     1      -9.592  16.249  68.953  1.00  0.00    -0.223 OA 
ENDROOT
BRANCH   4   7
HETATM    7  C   UNL     1     -11.424  15.696  67.463  1.00  0.00    -0.121 C  
BRANCH   7   8
HETATM    8  C   UNL     1     -11.573  14.324  68.115  1.00  0.00    -0.365 C  
BRANCH   8   9
HETATM    9  C   UNL     1     -11.755  13.235  67.065  1.00  0.00    -0.439 C  
BRANCH   9  10
HETATM   10  C   UNL     1     -12.270  13.813  65.743  1.00  0.00    -0.495 C  
BRANCH  10  11
HETATM   11  C   UNL     1     -12.551  12.680  64.770  1.00  0.00    -0.530 C  
BRANCH  11  12
HETATM   12  C   UNL     1     -11.717  12.733  63.487  1.00  0.00    -0.597 C  
BRANCH  12  13
HETATM   13  C   UNL     1     -10.403  12.010  63.737  1.00  0.00    -0.426 C  
HETATM   14  N   UNL     1     -10.433  11.138  64.811  1.00  0.00    -0.320 N  
HETATM   15  O   UNL     1      -9.434  12.204  63.005  1.00  0.00    -0.259 OA 
HETATM   16  H   UNL     1     -11.298  11.070  65.347  1.00  0.00     0.000 HD 
BRANCH  14  17
HETATM   17  C   UNL     1      -9.337  10.334  65.214  1.00  0.00    -0.215 A  
HETATM   18  C   UNL     1      -9.208   8.991  64.847  1.00  0.00    -0.056 A  
HETATM   19  C   UNL     1      -8.174   8.202  65.353  1.00  0.00    -0.147 A  
HETATM   20  C   UNL     1      -7.239   8.759  66.215  1.00  0.00    -0.086 A  
HETATM   21  C   UNL     1      -7.320  10.111  66.542  1.00  0.00    -0.108 A  
HETATM   22  C   UNL     1      -8.358  10.902  66.035  1.00  0.00    -0.165 A  
ENDBRANCH  14  17
ENDBRANCH  12  13
ENDBRANCH  11  12
ENDBRANCH  10  11
ENDBRANCH   9  10
ENDBRANCH   8   9
ENDBRANCH   7   8
ENDBRANCH   4   7
TORSDOF 8
ENDMDL
MODEL      202
REMARK 921   NORMALIZED FREE ENERGY PREDICTED BY IDOCK:   -3.72 KCAL/MOL
REMARK 922        TOTAL FREE ENERGY PREDICTED BY IDOCK:   -6.25 KCAL/MOL
REMARK 923 INTER-LIGAND FREE ENERGY PREDICTED BY IDOCK:   -5.93 KCAL/MOL
REMARK 924 INTRA-LIGAND FREE ENERGY PREDICTED BY IDOCK:   -0.33 KCAL/MOL
REMARK 927      BINDING AFFINITY PREDICTED BY RF-SCORE:    0.00 PKD
ROOT
HETATM    1  O   UNL     1      -6.269  20.264  69.819  1.00  0.00    -0.340 OA 
HETATM    2  N   UNL     1      -5.944  18.954  70.203  1.00  0.00    -0.224 N  
HETATM    3  H   UNL     1      -5.986  20.999  70.350  1.00  0.00     0.000 HD 
HETATM    4  C   UNL     1      -6.350  17.896  69.440  1.00  0.00    -0.239 C  
HETATM    5  H   UNL     1      -5.404  18.791  71.053  1.00  0.00     0.000 HD 
HETATM    6  O   UNL     1      -6.051  16.748  69.765  1.00  0.00    -0.217 OA 
ENDROOT
BRANCH   4   7
HETATM    7  C   UNL     1      -7.171  18.238  68.213  1.00  0.00    -0.266 C  
BRANCH   7   8
HETATM    8  C   UNL     1      -8.346  17.282  68.026  1.00  0.00    -0.228 C  
BRANCH   8   9
HETATM    9  C   UNL     1      -9.633  17.879  68.583  1.00  0.00    -0.331 C  
BRANCH   9  10
HETATM   10  C   UNL     1     -10.863  17.347  67.841  1.00  0.00    -0.270 C  
BRANCH  10  11
HETATM   11  C   UNL     1     -10.898  15.831  67.941  1.00  0.00    -0.314 C  
BRANCH  11  12
HETATM   12  C   UNL     1     -12.029  15.285  68.817  1.00  0.00    -0.279 C  
BRANCH  12  13
HETATM   13  C   UNL     1     -11.961  13.766  68.797  1.00  0.00    -0.365 C  
HETATM   14  N   UNL     1     -11.746  13.193  70.039  1.00  0.00    -0.502 N  
HETATM   15  O   UNL     1     -12.112  13.147  67.745  1.00  0.00    -0.324 OA 
HETATM   16  H   UNL     1     -11.630  13.816  70.838  1.00  0.00     0.000 HD 
BRANCH  14  17
HETATM   17  C   UNL     1     -11.676  11.797  70.269  1.00  0.00    -0.228 A  
HETATM   18  C   UNL     1     -12.554  11.125  71.127  1.00  0.00    -0.513 A  
HETATM   19  C   UNL     1     -12.386   9.771  71.414  1.00  0.00    -0.480 A  
HETATM   20  C   UNL     1     -11.348   9.062  70.822  1.00  0.00    -0.329 A  
HETATM   21  C   UNL     1     -10.502   9.703  69.918  1.00  0.00    -0.285 A  
HETATM   22  C   UNL     1     -10.671  11.063  69.632  1.00  0.00    -0.193 A  
ENDBRANCH  14  17
ENDBRANCH  12  13
ENDBRANCH  11  12
ENDBRANCH  10  11
ENDBRANCH   9  10
ENDBRANCH   8   9
ENDBRANCH   7   8
ENDBRANCH   4   7
TORSDOF 8
ENDMDL
MODEL      203
REMARK 921   NORMALIZED FREE ENERGY PREDICTED BY IDOCK:   -3.71 KCAL/MOL
REMARK 922        TOTAL FREE ENERGY PREDICTED BY IDOCK:   -6.23 KCAL/MOL
REMARK 923 INTER-LIGAND FREE ENERGY PREDICTED BY IDOCK:   -5.35 KCAL/MOL
REMARK 924 INTRA-LIGAND FREE ENERGY PREDICTED BY IDOCK:   -0.88 KCAL/MOL
REMARK 927      BINDING AFFINITY PREDICTED BY RF-SCORE:    0.00 PKD
ROOT
HETATM    1  O   UNL     1      -7.469  12.130  69.241  1.00  0.00    -0.327 OA 
HETATM    2  N   UNL     1      -6.453  11.691  68.377  1.00  0.00    -0.051 N  
HETATM    3  H   UNL     1      -7.274  12.304  70.155  1.00  0.00     0.000 HD 
HETATM    4  C   UNL     1      -6.733  11.441  67.064  1.00  0.00    -0.131 C  
HETATM    5  H   UNL     1      -5.506  11.560  68.730  1.00  0.00     0.000 HD 
HETATM    6  O   UNL     1      -5.842  11.074  66.300  1.00  0.00    -0.122 OA 
ENDROOT
BRANCH   4   7
HETATM    7  C   UNL     1      -8.176  11.638  66.642  1.00  0.00    -0.140 C  
BRANCH   7   8
HETATM    8  C   UNL     1      -8.921  10.313  66.513  1.00  0.00    -0.161 C  
BRANCH   8   9
HETATM    9  C   UNL     1     -10.413  10.542  66.298  1.00  0.00    -0.250 C  
BRANCH   9  10
HETATM   10  C   UNL     1     -11.115  10.922  67.605  1.00  0.00    -0.376 C  
BRANCH  10  11
HETATM   11  C   UNL     1     -11.556  12.376  67.538  1.00  0.00    -0.431 C  
BRANCH  11  12
HETATM   12  C   UNL     1     -11.915  12.858  66.130  1.00  0.00    -0.491 C  
BRANCH  12  13
HETATM   13  C   UNL     1     -11.324  14.246  65.933  1.00  0.00    -0.328 C  
HETATM   14  N   UNL     1     -10.684  14.752  67.050  1.00  0.00    -0.294 N  
HETATM   15  O   UNL     1     -11.417  14.815  64.846  1.00  0.00    -0.378 OA 
HETATM   16  H   UNL     1     -10.681  14.184  67.896  1.00  0.00     0.000 HD 
BRANCH  14  17
HETATM   17  C   UNL     1     -10.034  16.010  67.091  1.00  0.00    -0.249 A  
HETATM   18  C   UNL     1     -10.640  17.161  67.607  1.00  0.00    -0.343 A  
HETATM   19  C   UNL     1     -10.011  18.403  67.530  1.00  0.00    -0.349 A  
HETATM   20  C   UNL     1      -8.750  18.505  66.957  1.00  0.00    -0.278 A  
HETATM   21  C   UNL     1      -8.107  17.358  66.494  1.00  0.00    -0.312 A  
HETATM   22  C   UNL     1      -8.740  16.111  66.571  1.00  0.00    -0.337 A  
ENDBRANCH  14  17
ENDBRANCH  12  13
ENDBRANCH  11  12
ENDBRANCH  10  11
ENDBRANCH   9  10
ENDBRANCH   8   9
ENDBRANCH   7   8
ENDBRANCH   4   7
TORSDOF 8
ENDMDL
MODEL      204
REMARK 921   NORMALIZED FREE ENERGY PREDICTED BY IDOCK:   -3.70 KCAL/MOL
REMARK 922        TOTAL FREE ENERGY PREDICTED BY IDOCK:   -6.21 KCAL/MOL
REMARK 923 INTER-LIGAND FREE ENERGY PREDICTED BY IDOCK:   -5.53 KCAL/MOL
REMARK 924 INTRA-LIGAND FREE ENERGY PREDICTED BY IDOCK:   -0.68 KCAL/MOL
REMARK 927      BINDING AFFINITY PREDICTED BY RF-SCORE:    0.00 PKD
ROOT
HETATM    1  O   UNL     1      -8.891   5.568  74.135  1.00  0.00    -0.119 OA 
HETATM    2  N   UNL     1      -8.711   6.947  73.946  1.00  0.00    -0.147 N  
HETATM    3  H   UNL     1      -8.606   5.157  74.944  1.00  0.00     0.000 HD 
HETATM    4  C   UNL     1      -9.120   7.537  72.784  1.00  0.00    -0.152 C  
HETATM    5  H   UNL     1      -8.274   7.509  74.676  1.00  0.00     0.000 HD 
HETATM    6  O   UNL     1      -8.981   8.748  72.622  1.00  0.00    -0.380 OA 
ENDROOT
BRANCH   4   7
HETATM    7  C   UNL     1      -9.732   6.613  71.748  1.00  0.00    -0.168 C  
BRANCH   7   8
HETATM    8  C   UNL     1     -11.254   6.716  71.718  1.00  0.00    -0.299 C  
BRANCH   8   9
HETATM    9  C   UNL     1     -11.717   7.674  70.627  1.00  0.00    -0.214 C  
BRANCH   9  10
HETATM   10  C   UNL     1     -12.174   9.013  71.216  1.00  0.00    -0.373 C  
BRANCH  10  11
HETATM   11  C   UNL     1     -11.340  10.137  70.623  1.00  0.00    -0.433 C  
BRANCH  11  12
HETATM   12  C   UNL     1     -10.363   9.687  69.534  1.00  0.00    -0.235 C  
BRANCH  12  13
HETATM   13  C   UNL     1     -10.308  10.765  68.463  1.00  0.00    -0.185 C  
HETATM   14  N   UNL     1     -10.859  10.387  67.251  1.00  0.00    -0.279 N  
HETATM   15  O   UNL     1      -9.824  11.868  68.711  1.00  0.00    -0.169 OA 
HETATM   16  H   UNL     1     -11.225   9.439  67.168  1.00  0.00     0.000 HD 
BRANCH  14  17
HETATM   17  C   UNL     1     -10.948  11.234  66.119  1.00  0.00    -0.191 A  
HETATM   18  C   UNL     1     -11.704  12.411  66.110  1.00  0.00    -0.460 A  
HETATM   19  C   UNL     1     -11.856  13.161  64.944  1.00  0.00    -0.399 A  
HETATM   20  C   UNL     1     -11.229  12.754  63.773  1.00  0.00    -0.496 A  
HETATM   21  C   UNL     1     -10.423  11.617  63.781  1.00  0.00    -0.454 A  
HETATM   22  C   UNL     1     -10.272  10.864  64.952  1.00  0.00    -0.381 A  
ENDBRANCH  14  17
ENDBRANCH  12  13
ENDBRANCH  11  12
ENDBRANCH  10  11
ENDBRANCH   9  10
ENDBRANCH   8   9
ENDBRANCH   7   8
ENDBRANCH   4   7
TORSDOF 8
ENDMDL
MODEL      205
REMARK 921   NORMALIZED FREE ENERGY PREDICTED BY IDOCK:   -3.69 KCAL/MOL
REMARK 922        TOTAL FREE ENERGY PREDICTED BY IDOCK:   -6.20 KCAL/MOL
REMARK 923 INTER-LIGAND FREE ENERGY PREDICTED BY IDOCK:   -5.72 KCAL/MOL
REMARK 924 INTRA-LIGAND FREE ENERGY PREDICTED BY IDOCK:   -0.49 KCAL/MOL
REMARK 927      BINDING AFFINITY PREDICTED BY RF-SCORE:    0.00 PKD
ROOT
HETATM    1  O   UNL     1     -10.435   9.087  71.822  1.00  0.00    -0.332 OA 
HETATM    2  N   UNL     1      -9.304   8.598  71.151  1.00  0.00    -0.195 N  
HETATM    3  H   UNL     1     -10.671   8.738  72.674  1.00  0.00     0.000 HD 
HETATM    4  C   UNL     1      -8.965   9.099  69.927  1.00  0.00    -0.174 C  
HETATM    5  H   UNL     1      -8.734   7.868  71.578  1.00  0.00     0.000 HD 
HETATM    6  O   UNL     1      -7.964   8.686  69.344  1.00  0.00    -0.098 OA 
ENDROOT
BRANCH   4   7
HETATM    7  C   UNL     1      -9.890  10.160  69.363  1.00  0.00    -0.247 C  
BRANCH   7   8
HETATM    8  C   UNL     1      -9.440  10.638  67.985  1.00  0.00    -0.164 C  
BRANCH   8   9
HETATM    9  C   UNL     1     -10.383  10.139  66.897  1.00  0.00    -0.298 C  
BRANCH   9  10
HETATM   10  C   UNL     1     -10.767  11.264  65.931  1.00  0.00    -0.291 C  
BRANCH  10  11
HETATM   11  C   UNL     1     -11.677  12.252  66.642  1.00  0.00    -0.417 C  
BRANCH  11  12
HETATM   12  C   UNL     1     -12.450  13.182  65.703  1.00  0.00    -0.485 C  
BRANCH  12  13
HETATM   13  C   UNL     1     -11.722  14.516  65.641  1.00  0.00    -0.335 C  
HETATM   14  N   UNL     1     -11.040  14.843  66.800  1.00  0.00    -0.331 N  
HETATM   15  O   UNL     1     -11.752  15.197  64.617  1.00  0.00    -0.408 OA 
HETATM   16  H   UNL     1     -11.098  14.195  67.586  1.00  0.00     0.000 HD 
BRANCH  14  17
HETATM   17  C   UNL     1     -10.267  16.019  66.963  1.00  0.00    -0.282 A  
HETATM   18  C   UNL     1      -9.158  16.314  66.164  1.00  0.00    -0.377 A  
HETATM   19  C   UNL     1      -8.356  17.425  66.425  1.00  0.00    -0.302 A  
HETATM   20  C   UNL     1      -8.673  18.273  67.480  1.00  0.00    -0.256 A  
HETATM   21  C   UNL     1      -9.810  18.026  68.247  1.00  0.00    -0.357 A  
HETATM   22  C   UNL     1     -10.613  16.909  67.984  1.00  0.00    -0.367 A  
ENDBRANCH  14  17
ENDBRANCH  12  13
ENDBRANCH  11  12
ENDBRANCH  10  11
ENDBRANCH   9  10
ENDBRANCH   8   9
ENDBRANCH   7   8
ENDBRANCH   4   7
TORSDOF 8
ENDMDL
MODEL      206
REMARK 921   NORMALIZED FREE ENERGY PREDICTED BY IDOCK:   -3.68 KCAL/MOL
REMARK 922        TOTAL FREE ENERGY PREDICTED BY IDOCK:   -6.19 KCAL/MOL
REMARK 923 INTER-LIGAND FREE ENERGY PREDICTED BY IDOCK:   -5.24 KCAL/MOL
REMARK 924 INTRA-LIGAND FREE ENERGY PREDICTED BY IDOCK:   -0.96 KCAL/MOL
REMARK 927      BINDING AFFINITY PREDICTED BY RF-SCORE:    0.00 PKD
ROOT
HETATM    1  O   UNL     1     -10.717  17.341  68.596  1.00  0.00    -0.340 OA 
HETATM    2  N   UNL     1     -10.561  18.000  67.367  1.00  0.00    -0.386 N  
HETATM    3  H   UNL     1     -11.575  17.036  68.867  1.00  0.00     0.000 HD 
HETATM    4  C   UNL     1      -9.327  18.438  66.977  1.00  0.00    -0.281 C  
HETATM    5  H   UNL     1     -11.370  18.153  66.765  1.00  0.00     0.000 HD 
HETATM    6  O   UNL     1      -9.184  18.999  65.893  1.00  0.00    -0.450 OA 
ENDROOT
BRANCH   4   7
HETATM    7  C   UNL     1      -8.194  18.190  67.954  1.00  0.00    -0.253 C  
BRANCH   7   8
HETATM    8  C   UNL     1      -7.162  17.213  67.397  1.00  0.00    -0.178 C  
BRANCH   8   9
HETATM    9  C   UNL     1      -6.278  16.658  68.507  1.00  0.00    -0.135 C  
BRANCH   9  10
HETATM   10  C   UNL     1      -6.071  15.148  68.355  1.00  0.00    -0.107 C  
BRANCH  10  11
HETATM   11  C   UNL     1      -7.079  14.409  69.220  1.00  0.00    -0.124 C  
BRANCH  11  12
HETATM   12  C   UNL     1      -7.287  12.943  68.829  1.00  0.00    -0.066 C  
BRANCH  12  13
HETATM   13  C   UNL     1      -8.270  12.891  67.670  1.00  0.00    -0.177 C  
HETATM   14  N   UNL     1      -9.326  13.778  67.783  1.00  0.00    -0.205 N  
HETATM   15  O   UNL     1      -8.084  12.122  66.727  1.00  0.00    -0.147 OA 
HETATM   16  H   UNL     1      -9.373  14.360  68.619  1.00  0.00     0.000 HD 
BRANCH  14  17
HETATM   17  C   UNL     1     -10.346  13.928  66.811  1.00  0.00    -0.272 A  
HETATM   18  C   UNL     1     -11.426  13.045  66.703  1.00  0.00    -0.382 A  
HETATM   19  C   UNL     1     -12.350  13.160  65.665  1.00  0.00    -0.519 A  
HETATM   20  C   UNL     1     -12.219  14.182  64.733  1.00  0.00    -0.457 A  
HETATM   21  C   UNL     1     -11.183  15.106  64.862  1.00  0.00    -0.424 A  
HETATM   22  C   UNL     1     -10.255  14.988  65.904  1.00  0.00    -0.335 A  
ENDBRANCH  14  17
ENDBRANCH  12  13
ENDBRANCH  11  12
ENDBRANCH  10  11
ENDBRANCH   9  10
ENDBRANCH   8   9
ENDBRANCH   7   8
ENDBRANCH   4   7
TORSDOF 8
ENDMDL
MODEL      207
REMARK 921   NORMALIZED FREE ENERGY PREDICTED BY IDOCK:   -3.68 KCAL/MOL
REMARK 922        TOTAL FREE ENERGY PREDICTED BY IDOCK:   -6.19 KCAL/MOL
REMARK 923 INTER-LIGAND FREE ENERGY PREDICTED BY IDOCK:   -5.49 KCAL/MOL
REMARK 924 INTRA-LIGAND FREE ENERGY PREDICTED BY IDOCK:   -0.71 KCAL/MOL
REMARK 927      BINDING AFFINITY PREDICTED BY RF-SCORE:    0.00 PKD
ROOT
HETATM    1  O   UNL     1      -9.454  11.066  68.240  1.00  0.00    -0.159 OA 
HETATM    2  N   UNL     1      -8.107  10.958  67.859  1.00  0.00    -0.111 N  
HETATM    3  H   UNL     1      -9.891  10.331  68.655  1.00  0.00     0.000 HD 
HETATM    4  C   UNL     1      -7.479  12.014  67.263  1.00  0.00    -0.158 C  
HETATM    5  H   UNL     1      -7.599  10.090  68.026  1.00  0.00     0.000 HD 
HETATM    6  O   UNL     1      -6.294  11.929  66.945  1.00  0.00    -0.153 OA 
ENDROOT
BRANCH   4   7
HETATM    7  C   UNL     1      -8.327  13.249  67.032  1.00  0.00    -0.092 C  
BRANCH   7   8
HETATM    8  C   UNL     1      -7.671  14.508  67.593  1.00  0.00    -0.194 C  
BRANCH   8   9
HETATM    9  C   UNL     1      -8.154  15.752  66.858  1.00  0.00    -0.292 C  
BRANCH   9  10
HETATM   10  C   UNL     1      -8.670  16.814  67.834  1.00  0.00    -0.203 C  
BRANCH  10  11
HETATM   11  C   UNL     1     -10.174  16.965  67.668  1.00  0.00    -0.306 C  
BRANCH  11  12
HETATM   12  C   UNL     1     -10.838  15.825  66.893  1.00  0.00    -0.265 C  
BRANCH  12  13
HETATM   13  C   UNL     1     -11.741  15.058  67.848  1.00  0.00    -0.289 C  
HETATM   14  N   UNL     1     -11.495  15.310  69.186  1.00  0.00    -0.295 N  
HETATM   15  O   UNL     1     -12.614  14.307  67.414  1.00  0.00    -0.054 OA 
HETATM   16  H   UNL     1     -10.737  15.951  69.419  1.00  0.00     0.000 HD 
BRANCH  14  17
HETATM   17  C   UNL     1     -12.230  14.735  70.252  1.00  0.00    -0.338 A  
HETATM   18  C   UNL     1     -12.094  13.395  70.630  1.00  0.00    -0.374 A  
HETATM   19  C   UNL     1     -12.914  12.837  71.610  1.00  0.00    -0.402 A  
HETATM   20  C   UNL     1     -13.866  13.624  72.246  1.00  0.00    -0.689 A  
HETATM   21  C   UNL     1     -13.972  14.976  71.924  1.00  0.00    -0.604 A  
HETATM   22  C   UNL     1     -13.149  15.535  70.938  1.00  0.00    -0.508 A  
ENDBRANCH  14  17
ENDBRANCH  12  13
ENDBRANCH  11  12
ENDBRANCH  10  11
ENDBRANCH   9  10
ENDBRANCH   8   9
ENDBRANCH   7   8
ENDBRANCH   4   7
TORSDOF 8
ENDMDL
MODEL      208
REMARK 921   NORMALIZED FREE ENERGY PREDICTED BY IDOCK:   -3.68 KCAL/MOL
REMARK 922        TOTAL FREE ENERGY PREDICTED BY IDOCK:   -6.19 KCAL/MOL
REMARK 923 INTER-LIGAND FREE ENERGY PREDICTED BY IDOCK:   -5.77 KCAL/MOL
REMARK 924 INTRA-LIGAND FREE ENERGY PREDICTED BY IDOCK:   -0.42 KCAL/MOL
REMARK 927      BINDING AFFINITY PREDICTED BY RF-SCORE:    0.00 PKD
ROOT
HETATM    1  O   UNL     1     -10.597  11.122  62.853  1.00  0.00    -0.755 OA 
HETATM    2  N   UNL     1     -10.380  10.289  63.963  1.00  0.00    -0.416 N  
HETATM    3  H   UNL     1     -10.485  10.780  61.973  1.00  0.00     0.000 HD 
HETATM    4  C   UNL     1     -10.541  10.779  65.227  1.00  0.00    -0.160 C  
HETATM    5  H   UNL     1     -10.103   9.318  63.824  1.00  0.00     0.000 HD 
HETATM    6  O   UNL     1     -10.371  10.048  66.201  1.00  0.00    -0.224 OA 
ENDROOT
BRANCH   4   7
HETATM    7  C   UNL     1     -10.927  12.242  65.330  1.00  0.00    -0.347 C  
BRANCH   7   8
HETATM    8  C   UNL     1      -9.774  13.104  65.835  1.00  0.00    -0.190 C  
BRANCH   8   9
HETATM    9  C   UNL     1      -9.839  14.508  65.245  1.00  0.00    -0.221 C  
BRANCH   9  10
HETATM   10  C   UNL     1      -9.729  15.578  66.335  1.00  0.00    -0.306 C  
BRANCH  10  11
HETATM   11  C   UNL     1     -10.724  16.692  66.053  1.00  0.00    -0.153 C  
BRANCH  11  12
HETATM   12  C   UNL     1     -10.167  18.102  66.271  1.00  0.00    -0.401 C  
BRANCH  12  13
HETATM   13  C   UNL     1      -9.438  18.129  67.605  1.00  0.00    -0.264 C  
HETATM   14  N   UNL     1      -8.078  18.364  67.502  1.00  0.00    -0.245 N  
HETATM   15  O   UNL     1     -10.055  17.971  68.658  1.00  0.00    -0.367 OA 
HETATM   16  H   UNL     1      -7.682  18.473  66.569  1.00  0.00     0.000 HD 
BRANCH  14  17
HETATM   17  C   UNL     1      -7.202  18.464  68.611  1.00  0.00    -0.286 A  
HETATM   18  C   UNL     1      -6.815  19.689  69.165  1.00  0.00    -0.383 A  
HETATM   19  C   UNL     1      -5.866  19.751  70.184  1.00  0.00    -0.320 A  
HETATM   20  C   UNL     1      -5.308  18.580  70.683  1.00  0.00    -0.257 A  
HETATM   21  C   UNL     1      -5.728  17.349  70.183  1.00  0.00    -0.231 A  
HETATM   22  C   UNL     1      -6.680  17.287  69.158  1.00  0.00    -0.243 A  
ENDBRANCH  14  17
ENDBRANCH  12  13
ENDBRANCH  11  12
ENDBRANCH  10  11
ENDBRANCH   9  10
ENDBRANCH   8   9
ENDBRANCH   7   8
ENDBRANCH   4   7
TORSDOF 8
ENDMDL
MODEL      209
REMARK 921   NORMALIZED FREE ENERGY PREDICTED BY IDOCK:   -3.68 KCAL/MOL
REMARK 922        TOTAL FREE ENERGY PREDICTED BY IDOCK:   -6.19 KCAL/MOL
REMARK 923 INTER-LIGAND FREE ENERGY PREDICTED BY IDOCK:   -5.25 KCAL/MOL
REMARK 924 INTRA-LIGAND FREE ENERGY PREDICTED BY IDOCK:   -0.94 KCAL/MOL
REMARK 927      BINDING AFFINITY PREDICTED BY RF-SCORE:    0.00 PKD
ROOT
HETATM    1  O   UNL     1      -7.670  13.461  69.300  1.00  0.00    -0.318 OA 
HETATM    2  N   UNL     1      -6.904  14.418  69.984  1.00  0.00    -0.359 N  
HETATM    3  H   UNL     1      -7.836  12.613  69.696  1.00  0.00     0.000 HD 
HETATM    4  C   UNL     1      -6.666  15.637  69.416  1.00  0.00    -0.180 C  
HETATM    5  H   UNL     1      -6.526  14.203  70.906  1.00  0.00     0.000 HD 
HETATM    6  O   UNL     1      -6.012  16.484  70.021  1.00  0.00    -0.209 OA 
ENDROOT
BRANCH   4   7
HETATM    7  C   UNL     1      -7.247  15.851  68.032  1.00  0.00    -0.142 C  
BRANCH   7   8
HETATM    8  C   UNL     1      -6.930  17.241  67.487  1.00  0.00    -0.178 C  
BRANCH   8   9
HETATM    9  C   UNL     1      -8.196  17.945  67.011  1.00  0.00    -0.241 C  
BRANCH   9  10
HETATM   10  C   UNL     1      -9.343  17.767  68.011  1.00  0.00    -0.276 C  
BRANCH  10  11
HETATM   11  C   UNL     1     -10.597  17.333  67.270  1.00  0.00    -0.283 C  
BRANCH  11  12
HETATM   12  C   UNL     1     -10.334  16.745  65.881  1.00  0.00    -0.341 C  
BRANCH  12  13
HETATM   13  C   UNL     1     -10.697  15.268  65.907  1.00  0.00    -0.334 C  
HETATM   14  N   UNL     1     -10.252  14.596  67.032  1.00  0.00    -0.259 N  
HETATM   15  O   UNL     1     -11.351  14.770  64.992  1.00  0.00    -0.358 OA 
HETATM   16  H   UNL     1      -9.712  15.121  67.719  1.00  0.00     0.000 HD 
BRANCH  14  17
HETATM   17  C   UNL     1     -10.498  13.224  67.288  1.00  0.00    -0.247 A  
HETATM   18  C   UNL     1      -9.777  12.197  66.671  1.00  0.00    -0.228 A  
HETATM   19  C   UNL     1     -10.121  10.859  66.863  1.00  0.00    -0.253 A  
HETATM   20  C   UNL     1     -11.180  10.531  67.701  1.00  0.00    -0.338 A  
HETATM   21  C   UNL     1     -11.869  11.541  68.371  1.00  0.00    -0.353 A  
HETATM   22  C   UNL     1     -11.523  12.884  68.175  1.00  0.00    -0.354 A  
ENDBRANCH  14  17
ENDBRANCH  12  13
ENDBRANCH  11  12
ENDBRANCH  10  11
ENDBRANCH   9  10
ENDBRANCH   8   9
ENDBRANCH   7   8
ENDBRANCH   4   7
TORSDOF 8
ENDMDL
MODEL      210
REMARK 921   NORMALIZED FREE ENERGY PREDICTED BY IDOCK:   -3.68 KCAL/MOL
REMARK 922        TOTAL FREE ENERGY PREDICTED BY IDOCK:   -6.19 KCAL/MOL
REMARK 923 INTER-LIGAND FREE ENERGY PREDICTED BY IDOCK:   -5.74 KCAL/MOL
REMARK 924 INTRA-LIGAND FREE ENERGY PREDICTED BY IDOCK:   -0.45 KCAL/MOL
REMARK 927      BINDING AFFINITY PREDICTED BY RF-SCORE:    0.00 PKD
ROOT
HETATM    1  O   UNL     1     -10.763   8.651  68.279  1.00  0.00    -0.400 OA 
HETATM    2  N   UNL     1     -11.504   9.833  68.436  1.00  0.00    -0.487 N  
HETATM    3  H   UNL     1     -10.870   7.937  68.897  1.00  0.00     0.000 HD 
HETATM    4  C   UNL     1     -11.351  10.859  67.548  1.00  0.00    -0.232 C  
HETATM    5  H   UNL     1     -12.158   9.925  69.213  1.00  0.00     0.000 HD 
HETATM    6  O   UNL     1     -12.012  11.889  67.672  1.00  0.00    -0.575 OA 
ENDROOT
BRANCH   4   7
HETATM    7  C   UNL     1     -10.335  10.638  66.445  1.00  0.00    -0.291 C  
BRANCH   7   8
HETATM    8  C   UNL     1      -8.917  10.976  66.895  1.00  0.00    -0.162 C  
BRANCH   8   9
HETATM    9  C   UNL     1      -8.703  12.485  66.949  1.00  0.00    -0.182 C  
BRANCH   9  10
HETATM   10  C   UNL     1      -8.821  13.015  68.381  1.00  0.00    -0.123 C  
BRANCH  10  11
HETATM   11  C   UNL     1      -7.733  14.047  68.629  1.00  0.00    -0.135 C  
BRANCH  11  12
HETATM   12  C   UNL     1      -7.002  14.506  67.365  1.00  0.00    -0.106 C  
BRANCH  12  13
HETATM   13  C   UNL     1      -7.351  15.964  67.111  1.00  0.00    -0.223 C  
HETATM   14  N   UNL     1      -8.621  16.323  67.530  1.00  0.00    -0.175 N  
HETATM   15  O   UNL     1      -6.532  16.722  66.594  1.00  0.00    -0.192 OA 
HETATM   16  H   UNL     1      -9.210  15.599  67.940  1.00  0.00     0.000 HD 
BRANCH  14  17
HETATM   17  C   UNL     1      -9.152  17.632  67.424  1.00  0.00    -0.239 A  
HETATM   18  C   UNL     1      -9.062  18.572  68.456  1.00  0.00    -0.353 A  
HETATM   19  C   UNL     1      -9.693  19.812  68.359  1.00  0.00    -0.480 A  
HETATM   20  C   UNL     1     -10.403  20.138  67.210  1.00  0.00    -0.494 A  
HETATM   21  C   UNL     1     -10.451  19.236  66.149  1.00  0.00    -0.577 A  
HETATM   22  C   UNL     1      -9.818  17.990  66.248  1.00  0.00    -0.310 A  
ENDBRANCH  14  17
ENDBRANCH  12  13
ENDBRANCH  11  12
ENDBRANCH  10  11
ENDBRANCH   9  10
ENDBRANCH   8   9
ENDBRANCH   7   8
ENDBRANCH   4   7
TORSDOF 8
ENDMDL
MODEL      211
REMARK 921   NORMALIZED FREE ENERGY PREDICTED BY IDOCK:   -3.68 KCAL/MOL
REMARK 922        TOTAL FREE ENERGY PREDICTED BY IDOCK:   -6.18 KCAL/MOL
REMARK 923 INTER-LIGAND FREE ENERGY PREDICTED BY IDOCK:   -5.68 KCAL/MOL
REMARK 924 INTRA-LIGAND FREE ENERGY PREDICTED BY IDOCK:   -0.50 KCAL/MOL
REMARK 927      BINDING AFFINITY PREDICTED BY RF-SCORE:    0.00 PKD
ROOT
HETATM    1  O   UNL     1      -7.862   6.161  67.831  1.00  0.00    -0.103 OA 
HETATM    2  N   UNL     1      -7.325   6.738  68.993  1.00  0.00    -0.091 N  
HETATM    3  H   UNL     1      -7.295   5.956  67.096  1.00  0.00     0.000 HD 
HETATM    4  C   UNL     1      -8.138   7.031  70.049  1.00  0.00    -0.128 C  
HETATM    5  H   UNL     1      -6.326   6.937  69.047  1.00  0.00     0.000 HD 
HETATM    6  O   UNL     1      -7.668   7.519  71.075  1.00  0.00    -0.087 OA 
ENDROOT
BRANCH   4   7
HETATM    7  C   UNL     1      -9.611   6.724  69.861  1.00  0.00    -0.159 C  
BRANCH   7   8
HETATM    8  C   UNL     1     -10.441   7.991  69.675  1.00  0.00    -0.224 C  
BRANCH   8   9
HETATM    9  C   UNL     1     -11.475   8.138  70.785  1.00  0.00    -0.272 C  
BRANCH   9  10
HETATM   10  C   UNL     1     -11.770   9.611  71.084  1.00  0.00    -0.450 C  
BRANCH  10  11
HETATM   11  C   UNL     1     -11.224  10.474  69.958  1.00  0.00    -0.386 C  
BRANCH  11  12
HETATM   12  C   UNL     1     -11.972  11.796  69.762  1.00  0.00    -0.392 C  
BRANCH  12  13
HETATM   13  C   UNL     1     -11.634  12.338  68.382  1.00  0.00    -0.326 C  
HETATM   14  N   UNL     1     -12.076  13.631  68.158  1.00  0.00    -0.379 N  
HETATM   15  O   UNL     1     -11.002  11.654  67.579  1.00  0.00    -0.229 OA 
HETATM   16  H   UNL     1     -12.597  14.092  68.903  1.00  0.00     0.000 HD 
BRANCH  14  17
HETATM   17  C   UNL     1     -11.851  14.352  66.959  1.00  0.00    -0.412 A  
HETATM   18  C   UNL     1     -12.494  14.043  65.756  1.00  0.00    -0.523 A  
HETATM   19  C   UNL     1     -12.164  14.704  64.573  1.00  0.00    -0.473 A  
HETATM   20  C   UNL     1     -11.201  15.704  64.585  1.00  0.00    -0.380 A  
HETATM   21  C   UNL     1     -10.595  16.065  65.787  1.00  0.00    -0.366 A  
HETATM   22  C   UNL     1     -10.925  15.400  66.975  1.00  0.00    -0.306 A  
ENDBRANCH  14  17
ENDBRANCH  12  13
ENDBRANCH  11  12
ENDBRANCH  10  11
ENDBRANCH   9  10
ENDBRANCH   8   9
ENDBRANCH   7   8
ENDBRANCH   4   7
TORSDOF 8
ENDMDL
MODEL      212
REMARK 921   NORMALIZED FREE ENERGY PREDICTED BY IDOCK:   -3.67 KCAL/MOL
REMARK 922        TOTAL FREE ENERGY PREDICTED BY IDOCK:   -6.18 KCAL/MOL
REMARK 923 INTER-LIGAND FREE ENERGY PREDICTED BY IDOCK:   -5.54 KCAL/MOL
REMARK 924 INTRA-LIGAND FREE ENERGY PREDICTED BY IDOCK:   -0.64 KCAL/MOL
REMARK 927      BINDING AFFINITY PREDICTED BY RF-SCORE:    0.00 PKD
ROOT
HETATM    1  O   UNL     1     -10.748  16.515  65.196  1.00  0.00    -0.606 OA 
HETATM    2  N   UNL     1      -9.757  15.588  65.556  1.00  0.00    -0.309 N  
HETATM    3  H   UNL     1     -10.507  17.322  64.756  1.00  0.00     0.000 HD 
HETATM    4  C   UNL     1     -10.103  14.427  66.187  1.00  0.00    -0.309 C  
HETATM    5  H   UNL     1      -8.778  15.781  65.345  1.00  0.00     0.000 HD 
HETATM    6  O   UNL     1      -9.240  13.605  66.487  1.00  0.00    -0.248 OA 
ENDROOT
BRANCH   4   7
HETATM    7  C   UNL     1     -11.579  14.245  66.481  1.00  0.00    -0.390 C  
BRANCH   7   8
HETATM    8  C   UNL     1     -12.173  13.063  65.720  1.00  0.00    -0.511 C  
BRANCH   8   9
HETATM    9  C   UNL     1     -12.269  13.364  64.229  1.00  0.00    -0.450 C  
BRANCH   9  10
HETATM   10  C   UNL     1     -11.884  12.144  63.386  1.00  0.00    -0.553 C  
BRANCH  10  11
HETATM   11  C   UNL     1     -10.629  11.508  63.961  1.00  0.00    -0.437 C  
BRANCH  11  12
HETATM   12  C   UNL     1      -9.587  11.114  62.911  1.00  0.00    -0.373 C  
BRANCH  12  13
HETATM   13  C   UNL     1      -9.023   9.751  63.282  1.00  0.00    -0.252 C  
HETATM   14  N   UNL     1      -8.823   9.571  64.640  1.00  0.00    -0.204 N  
HETATM   15  O   UNL     1      -8.801   8.909  62.413  1.00  0.00    -0.216 OA 
HETATM   16  H   UNL     1      -9.041  10.350  65.261  1.00  0.00     0.000 HD 
BRANCH  14  17
HETATM   17  C   UNL     1      -8.336   8.374  65.221  1.00  0.00    -0.160 A  
HETATM   18  C   UNL     1      -7.122   7.789  64.847  1.00  0.00    -0.060 A  
HETATM   19  C   UNL     1      -6.729   6.554  65.360  1.00  0.00    -0.047 A  
HETATM   20  C   UNL     1      -7.538   5.898  66.279  1.00  0.00    -0.094 A  
HETATM   21  C   UNL     1      -8.722   6.496  66.708  1.00  0.00    -0.123 A  
HETATM   22  C   UNL     1      -9.117   7.737  66.190  1.00  0.00    -0.199 A  
ENDBRANCH  14  17
ENDBRANCH  12  13
ENDBRANCH  11  12
ENDBRANCH  10  11
ENDBRANCH   9  10
ENDBRANCH   8   9
ENDBRANCH   7   8
ENDBRANCH   4   7
TORSDOF 8
ENDMDL
MODEL      213
REMARK 921   NORMALIZED FREE ENERGY PREDICTED BY IDOCK:   -3.65 KCAL/MOL
REMARK 922        TOTAL FREE ENERGY PREDICTED BY IDOCK:   -6.15 KCAL/MOL
REMARK 923 INTER-LIGAND FREE ENERGY PREDICTED BY IDOCK:   -5.58 KCAL/MOL
REMARK 924 INTRA-LIGAND FREE ENERGY PREDICTED BY IDOCK:   -0.57 KCAL/MOL
REMARK 927      BINDING AFFINITY PREDICTED BY RF-SCORE:    0.00 PKD
ROOT
HETATM    1  O   UNL     1     -11.677  16.269  63.558  1.00  0.00    -1.247 OA 
HETATM    2  N   UNL     1     -12.153  16.000  64.851  1.00  0.00     0.423 N  
HETATM    3  H   UNL     1     -11.650  17.163  63.238  1.00  0.00     0.000 HD 
HETATM    4  C   UNL     1     -12.193  14.715  65.312  1.00  0.00    -0.249 C  
HETATM    5  H   UNL     1     -12.469  16.765  65.446  1.00  0.00     0.000 HD 
HETATM    6  O   UNL     1     -12.592  14.478  66.451  1.00  0.00    -0.251 OA 
ENDROOT
BRANCH   4   7
HETATM    7  C   UNL     1     -11.728  13.646  64.343  1.00  0.00    -0.444 C  
BRANCH   7   8
HETATM    8  C   UNL     1     -11.764  12.253  64.966  1.00  0.00    -0.405 C  
BRANCH   8   9
HETATM    9  C   UNL     1     -10.449  11.933  65.667  1.00  0.00    -0.302 C  
BRANCH   9  10
HETATM   10  C   UNL     1     -10.666  11.007  66.868  1.00  0.00    -0.325 C  
BRANCH  10  11
HETATM   11  C   UNL     1     -11.720  11.607  67.785  1.00  0.00    -0.315 C  
BRANCH  11  12
HETATM   12  C   UNL     1     -11.169  12.131  69.114  1.00  0.00    -0.303 C  
BRANCH  12  13
HETATM   13  C   UNL     1     -10.906  13.622  68.970  1.00  0.00    -0.204 C  
HETATM   14  N   UNL     1      -9.718  13.927  68.329  1.00  0.00    -0.219 N  
HETATM   15  O   UNL     1     -11.721  14.443  69.387  1.00  0.00    -0.278 OA 
HETATM   16  H   UNL     1      -9.122  13.154  68.035  1.00  0.00     0.000 HD 
BRANCH  14  17
HETATM   17  C   UNL     1      -9.279  15.246  68.055  1.00  0.00    -0.188 A  
HETATM   18  C   UNL     1      -9.390  15.836  66.791  1.00  0.00    -0.264 A  
HETATM   19  C   UNL     1      -8.846  17.093  66.532  1.00  0.00    -0.293 A  
HETATM   20  C   UNL     1      -8.204  17.792  67.547  1.00  0.00    -0.228 A  
HETATM   21  C   UNL     1      -8.138  17.244  68.827  1.00  0.00    -0.242 A  
HETATM   22  C   UNL     1      -8.684  15.980  69.086  1.00  0.00    -0.248 A  
ENDBRANCH  14  17
ENDBRANCH  12  13
ENDBRANCH  11  12
ENDBRANCH  10  11
ENDBRANCH   9  10
ENDBRANCH   8   9
ENDBRANCH   7   8
ENDBRANCH   4   7
TORSDOF 8
ENDMDL
MODEL      214
REMARK 921   NORMALIZED FREE ENERGY PREDICTED BY IDOCK:   -3.65 KCAL/MOL
REMARK 922        TOTAL FREE ENERGY PREDICTED BY IDOCK:   -6.14 KCAL/MOL
REMARK 923 INTER-LIGAND FREE ENERGY PREDICTED BY IDOCK:   -5.33 KCAL/MOL
REMARK 924 INTRA-LIGAND FREE ENERGY PREDICTED BY IDOCK:   -0.81 KCAL/MOL
REMARK 927      BINDING AFFINITY PREDICTED BY RF-SCORE:    0.00 PKD
ROOT
HETATM    1  O   UNL     1      -7.291  11.152  65.570  1.00  0.00    -0.361 OA 
HETATM    2  N   UNL     1      -7.326  10.394  64.389  1.00  0.00    -0.321 N  
HETATM    3  H   UNL     1      -6.536  11.695  65.764  1.00  0.00     0.000 HD 
HETATM    4  C   UNL     1      -8.411   9.613  64.109  1.00  0.00    -0.170 C  
HETATM    5  H   UNL     1      -6.541  10.427  63.739  1.00  0.00     0.000 HD 
HETATM    6  O   UNL     1      -8.453   8.962  63.067  1.00  0.00    -0.196 OA 
ENDROOT
BRANCH   4   7
HETATM    7  C   UNL     1      -9.513   9.608  65.150  1.00  0.00    -0.332 C  
BRANCH   7   8
HETATM    8  C   UNL     1      -9.516   8.326  65.977  1.00  0.00    -0.189 C  
BRANCH   8   9
HETATM    9  C   UNL     1     -10.518   8.413  67.122  1.00  0.00    -0.380 C  
BRANCH   9  10
HETATM   10  C   UNL     1      -9.834   8.809  68.434  1.00  0.00    -0.189 C  
BRANCH  10  11
HETATM   11  C   UNL     1     -10.296  10.196  68.848  1.00  0.00    -0.223 C  
BRANCH  11  12
HETATM   12  C   UNL     1     -11.298  10.837  67.884  1.00  0.00    -0.372 C  
BRANCH  12  13
HETATM   13  C   UNL     1     -10.703  12.137  67.366  1.00  0.00    -0.234 C  
HETATM   14  N   UNL     1     -11.638  13.035  66.881  1.00  0.00    -0.346 N  
HETATM   15  O   UNL     1      -9.489  12.332  67.417  1.00  0.00    -0.175 OA 
HETATM   16  H   UNL     1     -12.618  12.752  66.888  1.00  0.00     0.000 HD 
BRANCH  14  17
HETATM   17  C   UNL     1     -11.320  14.320  66.377  1.00  0.00    -0.343 A  
HETATM   18  C   UNL     1     -11.465  14.663  65.029  1.00  0.00    -0.386 A  
HETATM   19  C   UNL     1     -11.038  15.901  64.550  1.00  0.00    -0.285 A  
HETATM   20  C   UNL     1     -10.482  16.826  65.425  1.00  0.00    -0.212 A  
HETATM   21  C   UNL     1     -10.386  16.523  66.782  1.00  0.00    -0.296 A  
HETATM   22  C   UNL     1     -10.814  15.278  67.262  1.00  0.00    -0.318 A  
ENDBRANCH  14  17
ENDBRANCH  12  13
ENDBRANCH  11  12
ENDBRANCH  10  11
ENDBRANCH   9  10
ENDBRANCH   8   9
ENDBRANCH   7   8
ENDBRANCH   4   7
TORSDOF 8
ENDMDL
MODEL      215
REMARK 921   NORMALIZED FREE ENERGY PREDICTED BY IDOCK:   -3.64 KCAL/MOL
REMARK 922        TOTAL FREE ENERGY PREDICTED BY IDOCK:   -6.13 KCAL/MOL
REMARK 923 INTER-LIGAND FREE ENERGY PREDICTED BY IDOCK:   -5.77 KCAL/MOL
REMARK 924 INTRA-LIGAND FREE ENERGY PREDICTED BY IDOCK:   -0.37 KCAL/MOL
REMARK 927      BINDING AFFINITY PREDICTED BY RF-SCORE:    0.00 PKD
ROOT
HETATM    1  O   UNL     1      -9.522   2.432  67.980  1.00  0.00    -0.223 OA 
HETATM    2  N   UNL     1      -9.584   2.400  69.382  1.00  0.00    -0.049 N  
HETATM    3  H   UNL     1      -9.559   1.622  67.483  1.00  0.00     0.000 HD 
HETATM    4  C   UNL     1      -9.531   3.563  70.095  1.00  0.00    -0.182 C  
HETATM    5  H   UNL     1      -9.668   1.507  69.867  1.00  0.00     0.000 HD 
HETATM    6  O   UNL     1      -9.603   3.540  71.323  1.00  0.00    -0.151 OA 
ENDROOT
BRANCH   4   7
HETATM    7  C   UNL     1      -9.377   4.835  69.284  1.00  0.00    -0.196 C  
BRANCH   7   8
HETATM    8  C   UNL     1     -10.594   5.747  69.413  1.00  0.00    -0.383 C  
BRANCH   8   9
HETATM    9  C   UNL     1     -10.468   6.663  70.625  1.00  0.00    -0.253 C  
BRANCH   9  10
HETATM   10  C   UNL     1      -9.979   8.058  70.222  1.00  0.00    -0.189 C  
BRANCH  10  11
HETATM   11  C   UNL     1     -10.805   8.564  69.051  1.00  0.00    -0.026 C  
BRANCH  11  12
HETATM   12  C   UNL     1     -10.314   9.890  68.464  1.00  0.00    -0.221 C  
BRANCH  12  13
HETATM   13  C   UNL     1     -11.301  10.981  68.849  1.00  0.00    -0.280 C  
HETATM   14  N   UNL     1     -11.248  11.347  70.183  1.00  0.00    -0.483 N  
HETATM   15  O   UNL     1     -12.045  11.477  68.004  1.00  0.00    -0.617 OA 
HETATM   16  H   UNL     1     -10.590  10.855  70.787  1.00  0.00     0.000 HD 
BRANCH  14  17
HETATM   17  C   UNL     1     -12.051  12.361  70.762  1.00  0.00    -0.149 A  
HETATM   18  C   UNL     1     -11.964  13.705  70.384  1.00  0.00    -0.372 A  
HETATM   19  C   UNL     1     -12.690  14.690  71.053  1.00  0.00    -0.406 A  
HETATM   20  C   UNL     1     -13.537  14.337  72.096  1.00  0.00    -0.546 A  
HETATM   21  C   UNL     1     -13.681  12.994  72.444  1.00  0.00    -0.593 A  
HETATM   22  C   UNL     1     -12.950  12.006  71.772  1.00  0.00    -0.445 A  
ENDBRANCH  14  17
ENDBRANCH  12  13
ENDBRANCH  11  12
ENDBRANCH  10  11
ENDBRANCH   9  10
ENDBRANCH   8   9
ENDBRANCH   7   8
ENDBRANCH   4   7
TORSDOF 8
ENDMDL
MODEL      216
REMARK 921   NORMALIZED FREE ENERGY PREDICTED BY IDOCK:   -3.63 KCAL/MOL
REMARK 922        TOTAL FREE ENERGY PREDICTED BY IDOCK:   -6.11 KCAL/MOL
REMARK 923 INTER-LIGAND FREE ENERGY PREDICTED BY IDOCK:   -5.52 KCAL/MOL
REMARK 924 INTRA-LIGAND FREE ENERGY PREDICTED BY IDOCK:   -0.58 KCAL/MOL
REMARK 927      BINDING AFFINITY PREDICTED BY RF-SCORE:    0.00 PKD
ROOT
HETATM    1  O   UNL     1     -11.521  16.791  64.416  1.00  0.00    -1.046 OA 
HETATM    2  N   UNL     1     -11.998  15.649  63.754  1.00  0.00    -0.924 N  
HETATM    3  H   UNL     1     -11.411  17.606  63.940  1.00  0.00     0.000 HD 
HETATM    4  C   UNL     1     -12.156  14.478  64.438  1.00  0.00    -0.472 C  
HETATM    5  H   UNL     1     -12.228  15.695  62.761  1.00  0.00     0.000 HD 
HETATM    6  O   UNL     1     -12.592  13.481  63.865  1.00  0.00    -0.681 OA 
ENDROOT
BRANCH   4   7
HETATM    7  C   UNL     1     -11.761  14.503  65.901  1.00  0.00    -0.345 C  
BRANCH   7   8
HETATM    8  C   UNL     1     -10.567  13.597  66.188  1.00  0.00    -0.291 C  
BRANCH   8   9
HETATM    9  C   UNL     1     -10.948  12.473  67.144  1.00  0.00    -0.302 C  
BRANCH   9  10
HETATM   10  C   UNL     1      -9.708  11.755  67.686  1.00  0.00    -0.186 C  
BRANCH  10  11
HETATM   11  C   UNL     1      -8.887  11.218  66.525  1.00  0.00    -0.180 C  
BRANCH  11  12
HETATM   12  C   UNL     1      -9.599  10.145  65.697  1.00  0.00    -0.302 C  
BRANCH  12  13
HETATM   13  C   UNL     1      -8.736   8.892  65.691  1.00  0.00    -0.182 C  
HETATM   14  N   UNL     1      -8.361   8.457  66.950  1.00  0.00    -0.106 N  
HETATM   15  O   UNL     1      -8.443   8.341  64.630  1.00  0.00    -0.143 OA 
HETATM   16  H   UNL     1      -8.663   9.006  67.754  1.00  0.00     0.000 HD 
BRANCH  14  17
HETATM   17  C   UNL     1      -7.584   7.297  67.191  1.00  0.00    -0.103 A  
HETATM   18  C   UNL     1      -8.147   6.025  67.340  1.00  0.00    -0.106 A  
HETATM   19  C   UNL     1      -7.363   4.925  67.687  1.00  0.00    -0.078 A  
HETATM   20  C   UNL     1      -5.994   5.081  67.864  1.00  0.00    -0.022 A  
HETATM   21  C   UNL     1      -5.409   6.330  67.660  1.00  0.00    -0.005 A  
HETATM   22  C   UNL     1      -6.198   7.434  67.313  1.00  0.00    -0.051 A  
ENDBRANCH  14  17
ENDBRANCH  12  13
ENDBRANCH  11  12
ENDBRANCH  10  11
ENDBRANCH   9  10
ENDBRANCH   8   9
ENDBRANCH   7   8
ENDBRANCH   4   7
TORSDOF 8
ENDMDL
MODEL      217
REMARK 921   NORMALIZED FREE ENERGY PREDICTED BY IDOCK:   -3.62 KCAL/MOL
REMARK 922        TOTAL FREE ENERGY PREDICTED BY IDOCK:   -6.10 KCAL/MOL
REMARK 923 INTER-LIGAND FREE ENERGY PREDICTED BY IDOCK:   -5.56 KCAL/MOL
REMARK 924 INTRA-LIGAND FREE ENERGY PREDICTED BY IDOCK:   -0.54 KCAL/MOL
REMARK 927      BINDING AFFINITY PREDICTED BY RF-SCORE:    0.00 PKD
ROOT
HETATM    1  O   UNL     1      -9.254  10.970  64.192  1.00  0.00    -0.244 OA 
HETATM    2  N   UNL     1      -8.326  10.974  65.245  1.00  0.00    -0.367 N  
HETATM    3  H   UNL     1      -9.153  11.574  63.466  1.00  0.00     0.000 HD 
HETATM    4  C   UNL     1      -8.472  10.106  66.289  1.00  0.00    -0.128 C  
HETATM    5  H   UNL     1      -7.542  11.626  65.230  1.00  0.00     0.000 HD 
HETATM    6  O   UNL     1      -7.650  10.094  67.203  1.00  0.00    -0.091 OA 
ENDROOT
BRANCH   4   7
HETATM    7  C   UNL     1      -9.684   9.197  66.233  1.00  0.00    -0.344 C  
BRANCH   7   8
HETATM    8  C   UNL     1     -10.579   9.361  67.458  1.00  0.00    -0.333 C  
BRANCH   8   9
HETATM    9  C   UNL     1     -10.064   8.532  68.629  1.00  0.00    -0.207 C  
BRANCH   9  10
HETATM   10  C   UNL     1      -9.999   9.361  69.915  1.00  0.00    -0.237 C  
BRANCH  10  11
HETATM   11  C   UNL     1     -10.112  10.837  69.572  1.00  0.00    -0.117 C  
BRANCH  11  12
HETATM   12  C   UNL     1     -11.496  11.437  69.830  1.00  0.00    -0.353 C  
BRANCH  12  13
HETATM   13  C   UNL     1     -11.676  12.642  68.919  1.00  0.00    -0.325 C  
HETATM   14  N   UNL     1     -11.163  12.469  67.645  1.00  0.00    -0.264 N  
HETATM   15  O   UNL     1     -12.253  13.650  69.322  1.00  0.00    -0.320 OA 
HETATM   16  H   UNL     1     -10.700  11.585  67.433  1.00  0.00     0.000 HD 
BRANCH  14  17
HETATM   17  C   UNL     1     -11.242  13.441  66.617  1.00  0.00    -0.309 A  
HETATM   18  C   UNL     1     -12.344  13.554  65.763  1.00  0.00    -0.516 A  
HETATM   19  C   UNL     1     -12.339  14.449  64.694  1.00  0.00    -0.435 A  
HETATM   20  C   UNL     1     -11.234  15.265  64.481  1.00  0.00    -0.291 A  
HETATM   21  C   UNL     1     -10.153  15.206  65.359  1.00  0.00    -0.384 A  
HETATM   22  C   UNL     1     -10.159  14.306  66.431  1.00  0.00    -0.295 A  
ENDBRANCH  14  17
ENDBRANCH  12  13
ENDBRANCH  11  12
ENDBRANCH  10  11
ENDBRANCH   9  10
ENDBRANCH   8   9
ENDBRANCH   7   8
ENDBRANCH   4   7
TORSDOF 8
ENDMDL
MODEL      218
REMARK 921   NORMALIZED FREE ENERGY PREDICTED BY IDOCK:   -3.61 KCAL/MOL
REMARK 922        TOTAL FREE ENERGY PREDICTED BY IDOCK:   -6.09 KCAL/MOL
REMARK 923 INTER-LIGAND FREE ENERGY PREDICTED BY IDOCK:   -6.01 KCAL/MOL
REMARK 924 INTRA-LIGAND FREE ENERGY PREDICTED BY IDOCK:   -0.09 KCAL/MOL
REMARK 927      BINDING AFFINITY PREDICTED BY RF-SCORE:    0.00 PKD
ROOT
HETATM    1  O   UNL     1      -5.289  20.042  71.779  1.00  0.00    -0.355 OA 
HETATM    2  N   UNL     1      -6.199  20.513  70.820  1.00  0.00    -0.526 N  
HETATM    3  H   UNL     1      -5.128  20.544  72.570  1.00  0.00     0.000 HD 
HETATM    4  C   UNL     1      -6.430  19.791  69.684  1.00  0.00    -0.354 C  
HETATM    5  H   UNL     1      -6.689  21.394  70.972  1.00  0.00     0.000 HD 
HETATM    6  O   UNL     1      -7.241  20.192  68.850  1.00  0.00    -0.230 OA 
ENDROOT
BRANCH   4   7
HETATM    7  C   UNL     1      -5.633  18.510  69.536  1.00  0.00    -0.224 C  
BRANCH   7   8
HETATM    8  C   UNL     1      -5.569  18.040  68.085  1.00  0.00    -0.160 C  
BRANCH   8   9
HETATM    9  C   UNL     1      -6.695  17.060  67.776  1.00  0.00    -0.163 C  
BRANCH   9  10
HETATM   10  C   UNL     1      -7.404  16.601  69.054  1.00  0.00    -0.228 C  
BRANCH  10  11
HETATM   11  C   UNL     1      -7.810  15.143  68.913  1.00  0.00    -0.164 C  
BRANCH  11  12
HETATM   12  C   UNL     1      -7.701  14.597  67.487  1.00  0.00    -0.216 C  
BRANCH  12  13
HETATM   13  C   UNL     1      -9.062  14.057  67.075  1.00  0.00    -0.246 C  
HETATM   14  N   UNL     1      -9.213  13.885  65.710  1.00  0.00    -0.437 N  
HETATM   15  O   UNL     1      -9.912  13.791  67.925  1.00  0.00    -0.228 OA 
HETATM   16  H   UNL     1      -8.435  14.149  65.107  1.00  0.00     0.000 HD 
BRANCH  14  17
HETATM   17  C   UNL     1     -10.382  13.367  65.099  1.00  0.00    -0.336 A  
HETATM   18  C   UNL     1     -11.672  13.704  65.521  1.00  0.00    -0.352 A  
HETATM   19  C   UNL     1     -12.795  13.089  64.968  1.00  0.00    -0.365 A  
HETATM   20  C   UNL     1     -12.640  12.144  63.962  1.00  0.00    -0.507 A  
HETATM   21  C   UNL     1     -11.365  11.842  63.488  1.00  0.00    -0.516 A  
HETATM   22  C   UNL     1     -10.237  12.459  64.045  1.00  0.00    -0.401 A  
ENDBRANCH  14  17
ENDBRANCH  12  13
ENDBRANCH  11  12
ENDBRANCH  10  11
ENDBRANCH   9  10
ENDBRANCH   8   9
ENDBRANCH   7   8
ENDBRANCH   4   7
TORSDOF 8
ENDMDL
MODEL      219
REMARK 921   NORMALIZED FREE ENERGY PREDICTED BY IDOCK:   -3.61 KCAL/MOL
REMARK 922        TOTAL FREE ENERGY PREDICTED BY IDOCK:   -6.09 KCAL/MOL
REMARK 923 INTER-LIGAND FREE ENERGY PREDICTED BY IDOCK:   -5.98 KCAL/MOL
REMARK 924 INTRA-LIGAND FREE ENERGY PREDICTED BY IDOCK:   -0.11 KCAL/MOL
REMARK 927      BINDING AFFINITY PREDICTED BY RF-SCORE:    0.00 PKD
ROOT
HETATM    1  O   UNL     1      -7.158   5.628  72.979  1.00  0.00    -0.082 OA 
HETATM    2  N   UNL     1      -6.970   6.883  73.581  1.00  0.00    -0.074 N  
HETATM    3  H   UNL     1      -6.425   5.031  72.886  1.00  0.00     0.000 HD 
HETATM    4  C   UNL     1      -8.023   7.742  73.714  1.00  0.00    -0.173 C  
HETATM    5  H   UNL     1      -6.046   7.152  73.919  1.00  0.00     0.000 HD 
HETATM    6  O   UNL     1      -7.866   8.833  74.258  1.00  0.00    -0.402 OA 
ENDROOT
BRANCH   4   7
HETATM    7  C   UNL     1      -9.348   7.262  73.155  1.00  0.00    -0.216 C  
BRANCH   7   8
HETATM    8  C   UNL     1      -9.999   8.303  72.250  1.00  0.00    -0.366 C  
BRANCH   8   9
HETATM    9  C   UNL     1     -11.354   7.822  71.745  1.00  0.00    -0.302 C  
BRANCH   9  10
HETATM   10  C   UNL     1     -12.468   8.810  72.105  1.00  0.00    -0.460 C  
BRANCH  10  11
HETATM   11  C   UNL     1     -12.322  10.066  71.262  1.00  0.00    -0.496 C  
BRANCH  11  12
HETATM   12  C   UNL     1     -13.062  11.285  71.819  1.00  0.00    -0.527 C  
BRANCH  12  13
HETATM   13  C   UNL     1     -12.716  12.491  70.960  1.00  0.00    -0.225 C  
HETATM   14  N   UNL     1     -12.147  12.172  69.739  1.00  0.00    -0.271 N  
HETATM   15  O   UNL     1     -12.962  13.630  71.354  1.00  0.00    -0.342 OA 
HETATM   16  H   UNL     1     -11.988  11.187  69.531  1.00  0.00     0.000 HD 
BRANCH  14  17
HETATM   17  C   UNL     1     -11.771  13.127  68.763  1.00  0.00    -0.324 A  
HETATM   18  C   UNL     1     -11.299  14.402  69.092  1.00  0.00    -0.308 A  
HETATM   19  C   UNL     1     -11.044  15.354  68.104  1.00  0.00    -0.309 A  
HETATM   20  C   UNL     1     -11.236  15.030  66.767  1.00  0.00    -0.322 A  
HETATM   21  C   UNL     1     -11.648  13.744  66.420  1.00  0.00    -0.380 A  
HETATM   22  C   UNL     1     -11.905  12.790  67.412  1.00  0.00    -0.404 A  
ENDBRANCH  14  17
ENDBRANCH  12  13
ENDBRANCH  11  12
ENDBRANCH  10  11
ENDBRANCH   9  10
ENDBRANCH   8   9
ENDBRANCH   7   8
ENDBRANCH   4   7
TORSDOF 8
ENDMDL
MODEL      220
REMARK 921   NORMALIZED FREE ENERGY PREDICTED BY IDOCK:   -3.58 KCAL/MOL
REMARK 922        TOTAL FREE ENERGY PREDICTED BY IDOCK:   -6.04 KCAL/MOL
REMARK 923 INTER-LIGAND FREE ENERGY PREDICTED BY IDOCK:   -5.25 KCAL/MOL
REMARK 924 INTRA-LIGAND FREE ENERGY PREDICTED BY IDOCK:   -0.79 KCAL/MOL
REMARK 927      BINDING AFFINITY PREDICTED BY RF-SCORE:    0.00 PKD
ROOT
HETATM    1  O   UNL     1     -12.408  11.015  68.337  1.00  0.00    -0.762 OA 
HETATM    2  N   UNL     1     -11.038  11.248  68.533  1.00  0.00    -0.214 N  
HETATM    3  H   UNL     1     -12.793  10.189  68.606  1.00  0.00     0.000 HD 
HETATM    4  C   UNL     1     -10.484  12.435  68.148  1.00  0.00    -0.219 C  
HETATM    5  H   UNL     1     -10.456  10.530  68.964  1.00  0.00     0.000 HD 
HETATM    6  O   UNL     1      -9.287  12.649  68.335  1.00  0.00    -0.205 OA 
ENDROOT
BRANCH   4   7
HETATM    7  C   UNL     1     -11.424  13.426  67.491  1.00  0.00    -0.357 C  
BRANCH   7   8
HETATM    8  C   UNL     1     -11.196  13.522  65.985  1.00  0.00    -0.305 C  
BRANCH   8   9
HETATM    9  C   UNL     1     -12.480  13.229  65.217  1.00  0.00    -0.543 C  
BRANCH   9  10
HETATM   10  C   UNL     1     -12.239  12.222  64.089  1.00  0.00    -0.539 C  
BRANCH  10  11
HETATM   11  C   UNL     1     -11.033  11.361  64.428  1.00  0.00    -0.371 C  
BRANCH  11  12
HETATM   12  C   UNL     1     -10.070  11.140  63.259  1.00  0.00    -0.426 C  
BRANCH  12  13
HETATM   13  C   UNL     1      -8.932  10.251  63.736  1.00  0.00    -0.239 C  
HETATM   14  N   UNL     1      -9.321   9.253  64.612  1.00  0.00    -0.435 N  
HETATM   15  O   UNL     1      -7.785  10.433  63.329  1.00  0.00    -0.149 OA 
HETATM   16  H   UNL     1     -10.304   9.210  64.879  1.00  0.00     0.000 HD 
BRANCH  14  17
HETATM   17  C   UNL     1      -8.441   8.289  65.162  1.00  0.00    -0.146 A  
HETATM   18  C   UNL     1      -7.924   8.386  66.458  1.00  0.00    -0.096 A  
HETATM   19  C   UNL     1      -6.975   7.477  66.925  1.00  0.00    -0.079 A  
HETATM   20  C   UNL     1      -6.548   6.441  66.105  1.00  0.00    -0.048 A  
HETATM   21  C   UNL     1      -7.098   6.296  64.832  1.00  0.00    -0.060 A  
HETATM   22  C   UNL     1      -8.050   7.209  64.364  1.00  0.00    -0.056 A  
ENDBRANCH  14  17
ENDBRANCH  12  13
ENDBRANCH  11  12
ENDBRANCH  10  11
ENDBRANCH   9  10
ENDBRANCH   8   9
ENDBRANCH   7   8
ENDBRANCH   4   7
TORSDOF 8
ENDMDL
MODEL      221
REMARK 921   NORMALIZED FREE ENERGY PREDICTED BY IDOCK:   -3.57 KCAL/MOL
REMARK 922        TOTAL FREE ENERGY PREDICTED BY IDOCK:   -6.02 KCAL/MOL
REMARK 923 INTER-LIGAND FREE ENERGY PREDICTED BY IDOCK:   -5.35 KCAL/MOL
REMARK 924 INTRA-LIGAND FREE ENERGY PREDICTED BY IDOCK:   -0.67 KCAL/MOL
REMARK 927      BINDING AFFINITY PREDICTED BY RF-SCORE:    0.00 PKD
ROOT
HETATM    1  O   UNL     1      -6.663  11.996  68.202  1.00  0.00    -0.057 OA 
HETATM    2  N   UNL     1      -6.848  10.745  67.593  1.00  0.00    -0.072 N  
HETATM    3  H   UNL     1      -5.786  12.343  68.320  1.00  0.00     0.000 HD 
HETATM    4  C   UNL     1      -8.108  10.247  67.423  1.00  0.00    -0.110 C  
HETATM    5  H   UNL     1      -6.040  10.209  67.276  1.00  0.00     0.000 HD 
HETATM    6  O   UNL     1      -8.274   9.160  66.872  1.00  0.00    -0.114 OA 
ENDROOT
BRANCH   4   7
HETATM    7  C   UNL     1      -9.240  11.105  67.952  1.00  0.00    -0.154 C  
BRANCH   7   8
HETATM    8  C   UNL     1     -10.509  10.957  67.117  1.00  0.00    -0.281 C  
BRANCH   8   9
HETATM    9  C   UNL     1     -11.643  11.800  67.688  1.00  0.00    -0.364 C  
BRANCH   9  10
HETATM   10  C   UNL     1     -11.259  13.282  67.755  1.00  0.00    -0.308 C  
BRANCH  10  11
HETATM   11  C   UNL     1     -11.969  14.039  66.644  1.00  0.00    -0.473 C  
BRANCH  11  12
HETATM   12  C   UNL     1     -11.050  14.494  65.508  1.00  0.00    -0.339 C  
BRANCH  12  13
HETATM   13  C   UNL     1     -10.238  15.684  65.994  1.00  0.00    -0.335 C  
HETATM   14  N   UNL     1     -10.998  16.798  66.305  1.00  0.00     0.039 N  
HETATM   15  O   UNL     1      -9.016  15.604  66.103  1.00  0.00    -0.323 OA 
HETATM   16  H   UNL     1     -12.007  16.742  66.166  1.00  0.00     0.000 HD 
BRANCH  14  17
HETATM   17  C   UNL     1     -10.463  18.011  66.806  1.00  0.00    -0.328 A  
HETATM   18  C   UNL     1     -10.259  18.244  68.170  1.00  0.00    -0.406 A  
HETATM   19  C   UNL     1      -9.836  19.490  68.633  1.00  0.00    -0.530 A  
HETATM   20  C   UNL     1      -9.584  20.514  67.729  1.00  0.00    -0.420 A  
HETATM   21  C   UNL     1      -9.724  20.279  66.362  1.00  0.00    -0.488 A  
HETATM   22  C   UNL     1     -10.151  19.028  65.898  1.00  0.00    -0.287 A  
ENDBRANCH  14  17
ENDBRANCH  12  13
ENDBRANCH  11  12
ENDBRANCH  10  11
ENDBRANCH   9  10
ENDBRANCH   8   9
ENDBRANCH   7   8
ENDBRANCH   4   7
TORSDOF 8
ENDMDL
MODEL      222
REMARK 921   NORMALIZED FREE ENERGY PREDICTED BY IDOCK:   -3.55 KCAL/MOL
REMARK 922        TOTAL FREE ENERGY PREDICTED BY IDOCK:   -6.00 KCAL/MOL
REMARK 923 INTER-LIGAND FREE ENERGY PREDICTED BY IDOCK:   -5.65 KCAL/MOL
REMARK 924 INTRA-LIGAND FREE ENERGY PREDICTED BY IDOCK:   -0.35 KCAL/MOL
REMARK 927      BINDING AFFINITY PREDICTED BY RF-SCORE:    0.00 PKD
ROOT
HETATM    1  O   UNL     1     -10.276  20.104  67.060  1.00  0.00    -0.432 OA 
HETATM    2  N   UNL     1      -9.117  19.447  66.621  1.00  0.00    -0.329 N  
HETATM    3  H   UNL     1     -10.251  21.034  67.255  1.00  0.00     0.000 HD 
HETATM    4  C   UNL     1      -9.153  18.110  66.341  1.00  0.00    -0.241 C  
HETATM    5  H   UNL     1      -8.247  19.967  66.511  1.00  0.00     0.000 HD 
HETATM    6  O   UNL     1      -8.143  17.535  65.938  1.00  0.00    -0.536 OA 
ENDROOT
BRANCH   4   7
HETATM    7  C   UNL     1     -10.484  17.420  66.563  1.00  0.00    -0.264 C  
BRANCH   7   8
HETATM    8  C   UNL     1     -10.366  15.902  66.458  1.00  0.00    -0.304 C  
BRANCH   8   9
HETATM    9  C   UNL     1     -11.459  15.209  67.263  1.00  0.00    -0.284 C  
BRANCH   9  10
HETATM   10  C   UNL     1     -12.330  14.318  66.372  1.00  0.00    -0.378 C  
BRANCH  10  11
HETATM   11  C   UNL     1     -11.772  12.904  66.372  1.00  0.00    -0.454 C  
BRANCH  11  12
HETATM   12  C   UNL     1     -11.679  12.266  67.760  1.00  0.00    -0.403 C  
BRANCH  12  13
HETATM   13  C   UNL     1     -10.771  11.049  67.668  1.00  0.00    -0.238 C  
HETATM   14  N   UNL     1     -11.169   9.985  68.459  1.00  0.00    -0.474 N  
HETATM   15  O   UNL     1      -9.792  11.055  66.924  1.00  0.00    -0.185 OA 
HETATM   16  H   UNL     1     -11.999  10.106  69.039  1.00  0.00     0.000 HD 
BRANCH  14  17
HETATM   17  C   UNL     1     -10.497   8.739  68.513  1.00  0.00    -0.175 A  
HETATM   18  C   UNL     1      -9.771   8.316  69.631  1.00  0.00    -0.173 A  
HETATM   19  C   UNL     1      -9.032   7.134  69.606  1.00  0.00    -0.141 A  
HETATM   20  C   UNL     1      -9.032   6.343  68.464  1.00  0.00    -0.125 A  
HETATM   21  C   UNL     1      -9.799   6.719  67.363  1.00  0.00    -0.174 A  
HETATM   22  C   UNL     1     -10.540   7.908  67.389  1.00  0.00    -0.342 A  
ENDBRANCH  14  17
ENDBRANCH  12  13
ENDBRANCH  11  12
ENDBRANCH  10  11
ENDBRANCH   9  10
ENDBRANCH   8   9
ENDBRANCH   7   8
ENDBRANCH   4   7
TORSDOF 8
ENDMDL
MODEL      223
REMARK 921   NORMALIZED FREE ENERGY PREDICTED BY IDOCK:   -3.54 KCAL/MOL
REMARK 922        TOTAL FREE ENERGY PREDICTED BY IDOCK:   -5.98 KCAL/MOL
REMARK 923 INTER-LIGAND FREE ENERGY PREDICTED BY IDOCK:   -5.04 KCAL/MOL
REMARK 924 INTRA-LIGAND FREE ENERGY PREDICTED BY IDOCK:   -0.95 KCAL/MOL
REMARK 927      BINDING AFFINITY PREDICTED BY RF-SCORE:    0.00 PKD
ROOT
HETATM    1  O   UNL     1      -7.828   5.860  65.578  1.00  0.00    -0.094 OA 
HETATM    2  N   UNL     1      -8.964   6.147  66.350  1.00  0.00    -0.146 N  
HETATM    3  H   UNL     1      -7.521   4.964  65.500  1.00  0.00     0.000 HD 
HETATM    4  C   UNL     1      -9.407   7.434  66.463  1.00  0.00    -0.173 C  
HETATM    5  H   UNL     1      -9.460   5.394  66.828  1.00  0.00     0.000 HD 
HETATM    6  O   UNL     1     -10.413   7.687  67.124  1.00  0.00    -0.287 OA 
ENDROOT
BRANCH   4   7
HETATM    7  C   UNL     1      -8.587   8.486  65.741  1.00  0.00    -0.190 C  
BRANCH   7   8
HETATM    8  C   UNL     1      -8.316   9.703  66.619  1.00  0.00    -0.123 C  
BRANCH   8   9
HETATM    9  C   UNL     1      -9.234  10.863  66.249  1.00  0.00    -0.197 C  
BRANCH   9  10
HETATM   10  C   UNL     1      -9.093  12.025  67.237  1.00  0.00    -0.178 C  
BRANCH  10  11
HETATM   11  C   UNL     1     -10.417  12.247  67.949  1.00  0.00    -0.227 C  
BRANCH  11  12
HETATM   12  C   UNL     1     -11.357  11.038  67.918  1.00  0.00    -0.381 C  
BRANCH  12  13
HETATM   13  C   UNL     1     -11.467  10.479  69.328  1.00  0.00    -0.256 C  
HETATM   14  N   UNL     1     -11.145   9.137  69.432  1.00  0.00    -0.428 N  
HETATM   15  O   UNL     1     -11.798  11.206  70.264  1.00  0.00    -0.314 OA 
HETATM   16  H   UNL     1     -10.891   8.641  68.579  1.00  0.00     0.000 HD 
BRANCH  14  17
HETATM   17  C   UNL     1     -11.145   8.411  70.649  1.00  0.00    -0.256 A  
HETATM   18  C   UNL     1     -10.308   8.731  71.723  1.00  0.00    -0.413 A  
HETATM   19  C   UNL     1     -10.258   7.927  72.861  1.00  0.00    -0.397 A  
HETATM   20  C   UNL     1     -11.069   6.802  72.950  1.00  0.00    -0.277 A  
HETATM   21  C   UNL     1     -11.952   6.504  71.913  1.00  0.00    -0.389 A  
HETATM   22  C   UNL     1     -12.001   7.312  70.770  1.00  0.00    -0.311 A  
ENDBRANCH  14  17
ENDBRANCH  12  13
ENDBRANCH  11  12
ENDBRANCH  10  11
ENDBRANCH   9  10
ENDBRANCH   8   9
ENDBRANCH   7   8
ENDBRANCH   4   7
TORSDOF 8
ENDMDL
MODEL      224
REMARK 921   NORMALIZED FREE ENERGY PREDICTED BY IDOCK:   -3.53 KCAL/MOL
REMARK 922        TOTAL FREE ENERGY PREDICTED BY IDOCK:   -5.97 KCAL/MOL
REMARK 923 INTER-LIGAND FREE ENERGY PREDICTED BY IDOCK:   -5.00 KCAL/MOL
REMARK 924 INTRA-LIGAND FREE ENERGY PREDICTED BY IDOCK:   -0.97 KCAL/MOL
REMARK 927      BINDING AFFINITY PREDICTED BY RF-SCORE:    0.00 PKD
ROOT
HETATM    1  O   UNL     1      -9.882   5.791  66.029  1.00  0.00    -0.330 OA 
HETATM    2  N   UNL     1     -10.172   7.163  66.084  1.00  0.00    -0.320 N  
HETATM    3  H   UNL     1      -9.582   5.400  65.217  1.00  0.00     0.000 HD 
HETATM    4  C   UNL     1     -10.603   7.726  67.251  1.00  0.00    -0.306 C  
HETATM    5  H   UNL     1     -10.060   7.741  65.251  1.00  0.00     0.000 HD 
HETATM    6  O   UNL     1     -10.840   8.931  67.307  1.00  0.00    -0.216 OA 
ENDROOT
BRANCH   4   7
HETATM    7  C   UNL     1     -10.765   6.780  68.425  1.00  0.00    -0.284 C  
BRANCH   7   8
HETATM    8  C   UNL     1      -9.570   6.833  69.373  1.00  0.00    -0.146 C  
BRANCH   8   9
HETATM    9  C   UNL     1      -9.921   7.576  70.656  1.00  0.00    -0.183 C  
BRANCH   9  10
HETATM   10  C   UNL     1      -9.475   9.040  70.594  1.00  0.00    -0.286 C  
BRANCH  10  11
HETATM   11  C   UNL     1      -8.235   9.156  69.723  1.00  0.00    -0.128 C  
BRANCH  11  12
HETATM   12  C   UNL     1      -7.738  10.590  69.525  1.00  0.00    -0.141 C  
BRANCH  12  13
HETATM   13  C   UNL     1      -8.431  11.174  68.303  1.00  0.00    -0.145 C  
HETATM   14  N   UNL     1      -9.369  12.148  68.596  1.00  0.00    -0.385 N  
HETATM   15  O   UNL     1      -8.130  10.792  67.173  1.00  0.00    -0.119 OA 
HETATM   16  H   UNL     1      -9.533  12.373  69.578  1.00  0.00     0.000 HD 
BRANCH  14  17
HETATM   17  C   UNL     1     -10.115  12.853  67.620  1.00  0.00    -0.221 A  
HETATM   18  C   UNL     1     -11.419  12.496  67.259  1.00  0.00    -0.416 A  
HETATM   19  C   UNL     1     -12.081  13.144  66.216  1.00  0.00    -0.460 A  
HETATM   20  C   UNL     1     -11.452  14.179  65.536  1.00  0.00    -0.324 A  
HETATM   21  C   UNL     1     -10.177  14.586  65.924  1.00  0.00    -0.339 A  
HETATM   22  C   UNL     1      -9.513  13.934  66.970  1.00  0.00    -0.256 A  
ENDBRANCH  14  17
ENDBRANCH  12  13
ENDBRANCH  11  12
ENDBRANCH  10  11
ENDBRANCH   9  10
ENDBRANCH   8   9
ENDBRANCH   7   8
ENDBRANCH   4   7
TORSDOF 8
ENDMDL
MODEL      225
REMARK 921   NORMALIZED FREE ENERGY PREDICTED BY IDOCK:   -3.43 KCAL/MOL
REMARK 922        TOTAL FREE ENERGY PREDICTED BY IDOCK:   -5.82 KCAL/MOL
REMARK 923 INTER-LIGAND FREE ENERGY PREDICTED BY IDOCK:   -6.00 KCAL/MOL
REMARK 924 INTRA-LIGAND FREE ENERGY PREDICTED BY IDOCK:    0.17 KCAL/MOL
REMARK 927      BINDING AFFINITY PREDICTED BY RF-SCORE:    0.00 PKD
ROOT
HETATM    1  O   UNL     1     -13.055  15.985  70.771  1.00  0.00    -0.581 OA 
HETATM    2  N   UNL     1     -12.448  15.932  72.036  1.00  0.00    -0.450 N  
HETATM    3  H   UNL     1     -12.841  16.690  70.170  1.00  0.00     0.000 HD 
HETATM    4  C   UNL     1     -12.754  14.919  72.899  1.00  0.00    -0.435 C  
HETATM    5  H   UNL     1     -11.778  16.650  72.309  1.00  0.00     0.000 HD 
HETATM    6  O   UNL     1     -12.211  14.860  74.000  1.00  0.00    -0.537 OA 
ENDROOT
BRANCH   4   7
HETATM    7  C   UNL     1     -13.782  13.917  72.412  1.00  0.00    -0.678 C  
BRANCH   7   8
HETATM    8  C   UNL     1     -13.131  12.698  71.765  1.00  0.00    -0.461 C  
BRANCH   8   9
HETATM    9  C   UNL     1     -12.625  13.024  70.364  1.00  0.00    -0.165 C  
BRANCH   9  10
HETATM   10  C   UNL     1     -11.447  12.127  69.972  1.00  0.00    -0.156 C  
BRANCH  10  11
HETATM   11  C   UNL     1     -11.970  10.880  69.278  1.00  0.00    -0.382 C  
BRANCH  11  12
HETATM   12  C   UNL     1     -11.506  10.728  67.827  1.00  0.00    -0.283 C  
BRANCH  12  13
HETATM   13  C   UNL     1     -10.496   9.592  67.762  1.00  0.00    -0.254 C  
HETATM   14  N   UNL     1     -10.851   8.477  68.501  1.00  0.00    -0.437 N  
HETATM   15  O   UNL     1      -9.478   9.699  67.080  1.00  0.00    -0.146 OA 
HETATM   16  H   UNL     1     -11.721   8.513  69.031  1.00  0.00     0.000 HD 
BRANCH  14  17
HETATM   17  C   UNL     1     -10.082   7.288  68.566  1.00  0.00    -0.172 A  
HETATM   18  C   UNL     1      -8.691   7.292  68.710  1.00  0.00    -0.125 A  
HETATM   19  C   UNL     1      -7.958   6.107  68.659  1.00  0.00    -0.101 A  
HETATM   20  C   UNL     1      -8.614   4.895  68.488  1.00  0.00    -0.099 A  
HETATM   21  C   UNL     1     -10.005   4.869  68.403  1.00  0.00    -0.183 A  
HETATM   22  C   UNL     1     -10.741   6.060  68.453  1.00  0.00    -0.351 A  
ENDBRANCH  14  17
ENDBRANCH  12  13
ENDBRANCH  11  12
ENDBRANCH  10  11
ENDBRANCH   9  10
ENDBRANCH   8   9
ENDBRANCH   7   8
ENDBRANCH   4   7
TORSDOF 8
ENDMDL
MODEL      226
REMARK 921   NORMALIZED FREE ENERGY PREDICTED BY IDOCK:   -3.42 KCAL/MOL
REMARK 922        TOTAL FREE ENERGY PREDICTED BY IDOCK:   -5.81 KCAL/MOL
REMARK 923 INTER-LIGAND FREE ENERGY PREDICTED BY IDOCK:   -4.93 KCAL/MOL
REMARK 924 INTRA-LIGAND FREE ENERGY PREDICTED BY IDOCK:   -0.88 KCAL/MOL
REMARK 927      BINDING AFFINITY PREDICTED BY RF-SCORE:    0.00 PKD
ROOT
HETATM    1  O   UNL     1     -11.077  10.758  63.882  1.00  0.00    -0.320 OA 
HETATM    2  N   UNL     1     -11.114  12.121  63.550  1.00  0.00    -0.535 N  
HETATM    3  H   UNL     1     -11.273  10.102  63.222  1.00  0.00     0.000 HD 
HETATM    4  C   UNL     1     -10.833  13.064  64.497  1.00  0.00    -0.372 C  
HETATM    5  H   UNL     1     -11.351  12.408  62.600  1.00  0.00     0.000 HD 
HETATM    6  O   UNL     1     -10.846  14.258  64.205  1.00  0.00    -0.238 OA 
ENDROOT
BRANCH   4   7
HETATM    7  C   UNL     1     -10.521  12.539  65.885  1.00  0.00    -0.289 C  
BRANCH   7   8
HETATM    8  C   UNL     1     -11.738  12.592  66.805  1.00  0.00    -0.460 C  
BRANCH   8   9
HETATM    9  C   UNL     1     -12.126  14.033  67.118  1.00  0.00    -0.436 C  
BRANCH   9  10
HETATM   10  C   UNL     1     -11.850  14.380  68.584  1.00  0.00    -0.366 C  
BRANCH  10  11
HETATM   11  C   UNL     1     -10.939  15.594  68.654  1.00  0.00    -0.294 C  
BRANCH  11  12
HETATM   12  C   UNL     1      -9.594  15.331  69.337  1.00  0.00    -0.245 C  
BRANCH  12  13
HETATM   13  C   UNL     1      -8.736  14.494  68.401  1.00  0.00    -0.175 C  
HETATM   14  N   UNL     1      -8.303  13.299  68.947  1.00  0.00    -0.353 N  
HETATM   15  O   UNL     1      -8.495  14.884  67.259  1.00  0.00    -0.180 OA 
HETATM   16  H   UNL     1      -8.565  13.092  69.910  1.00  0.00     0.000 HD 
BRANCH  14  17
HETATM   17  C   UNL     1      -7.518  12.345  68.252  1.00  0.00    -0.124 A  
HETATM   18  C   UNL     1      -6.256  12.640  67.727  1.00  0.00    -0.131 A  
HETATM   19  C   UNL     1      -5.562  11.709  66.954  1.00  0.00    -0.136 A  
HETATM   20  C   UNL     1      -6.115  10.456  66.719  1.00  0.00    -0.064 A  
HETATM   21  C   UNL     1      -7.344  10.126  67.286  1.00  0.00    -0.090 A  
HETATM   22  C   UNL     1      -8.041  11.062  68.061  1.00  0.00    -0.121 A  
ENDBRANCH  14  17
ENDBRANCH  12  13
ENDBRANCH  11  12
ENDBRANCH  10  11
ENDBRANCH   9  10
ENDBRANCH   8   9
ENDBRANCH   7   8
ENDBRANCH   4   7
TORSDOF 8
ENDMDL
MODEL      227
REMARK 921   NORMALIZED FREE ENERGY PREDICTED BY IDOCK:   -3.41 KCAL/MOL
REMARK 922        TOTAL FREE ENERGY PREDICTED BY IDOCK:   -5.79 KCAL/MOL
REMARK 923 INTER-LIGAND FREE ENERGY PREDICTED BY IDOCK:   -5.86 KCAL/MOL
REMARK 924 INTRA-LIGAND FREE ENERGY PREDICTED BY IDOCK:    0.07 KCAL/MOL
REMARK 927      BINDING AFFINITY PREDICTED BY RF-SCORE:    0.00 PKD
ROOT
HETATM    1  O   UNL     1      -9.297  15.051  66.414  1.00  0.00    -0.267 OA 
HETATM    2  N   UNL     1      -9.581  15.959  65.382  1.00  0.00    -0.112 N  
HETATM    3  H   UNL     1      -8.411  14.975  66.749  1.00  0.00     0.000 HD 
HETATM    4  C   UNL     1     -10.855  16.069  64.900  1.00  0.00    -0.372 C  
HETATM    5  H   UNL     1      -8.837  16.536  64.991  1.00  0.00     0.000 HD 
HETATM    6  O   UNL     1     -11.111  16.876  64.008  1.00  0.00    -0.805 OA 
ENDROOT
BRANCH   4   7
HETATM    7  C   UNL     1     -11.885  15.149  65.525  1.00  0.00     0.020 C  
BRANCH   7   8
HETATM    8  C   UNL     1     -11.540  13.677  65.316  1.00  0.00    -0.334 C  
BRANCH   8   9
HETATM    9  C   UNL     1     -11.889  13.228  63.902  1.00  0.00    -0.522 C  
BRANCH   9  10
HETATM   10  C   UNL     1     -10.953  12.114  63.422  1.00  0.00    -0.480 C  
BRANCH  10  11
HETATM   11  C   UNL     1      -9.760  12.017  64.358  1.00  0.00    -0.097 C  
BRANCH  11  12
HETATM   12  C   UNL     1      -9.819  10.836  65.331  1.00  0.00    -0.317 C  
BRANCH  12  13
HETATM   13  C   UNL     1     -10.088  11.376  66.727  1.00  0.00    -0.216 C  
HETATM   14  N   UNL     1     -11.329  11.037  67.236  1.00  0.00    -0.263 N  
HETATM   15  O   UNL     1      -9.232  12.035  67.317  1.00  0.00    -0.174 OA 
HETATM   16  H   UNL     1     -11.954  10.490  66.645  1.00  0.00     0.000 HD 
BRANCH  14  17
HETATM   17  C   UNL     1     -11.785  11.401  68.527  1.00  0.00    -0.318 A  
HETATM   18  C   UNL     1     -12.030  12.727  68.898  1.00  0.00    -0.286 A  
HETATM   19  C   UNL     1     -12.372  13.057  70.210  1.00  0.00    -0.311 A  
HETATM   20  C   UNL     1     -12.500  12.056  71.164  1.00  0.00    -0.353 A  
HETATM   21  C   UNL     1     -12.319  10.724  70.795  1.00  0.00    -0.480 A  
HETATM   22  C   UNL     1     -11.974  10.394  69.478  1.00  0.00    -0.175 A  
ENDBRANCH  14  17
ENDBRANCH  12  13
ENDBRANCH  11  12
ENDBRANCH  10  11
ENDBRANCH   9  10
ENDBRANCH   8   9
ENDBRANCH   7   8
ENDBRANCH   4   7
TORSDOF 8
ENDMDL
MODEL      228
REMARK 921   NORMALIZED FREE ENERGY PREDICTED BY IDOCK:   -3.40 KCAL/MOL
REMARK 922        TOTAL FREE ENERGY PREDICTED BY IDOCK:   -5.78 KCAL/MOL
REMARK 923 INTER-LIGAND FREE ENERGY PREDICTED BY IDOCK:   -5.18 KCAL/MOL
REMARK 924 INTRA-LIGAND FREE ENERGY PREDICTED BY IDOCK:   -0.60 KCAL/MOL
REMARK 927      BINDING AFFINITY PREDICTED BY RF-SCORE:    0.00 PKD
ROOT
HETATM    1  O   UNL     1     -10.428  15.624  68.499  1.00  0.00    -0.227 OA 
HETATM    2  N   UNL     1      -9.609  16.184  67.506  1.00  0.00    -0.228 N  
HETATM    3  H   UNL     1     -11.322  15.926  68.605  1.00  0.00     0.000 HD 
HETATM    4  C   UNL     1      -8.324  15.749  67.354  1.00  0.00    -0.168 C  
HETATM    5  H   UNL     1      -9.975  16.917  66.898  1.00  0.00     0.000 HD 
HETATM    6  O   UNL     1      -7.610  16.225  66.473  1.00  0.00    -0.246 OA 
ENDROOT
BRANCH   4   7
HETATM    7  C   UNL     1      -7.864  14.678  68.323  1.00  0.00    -0.128 C  
BRANCH   7   8
HETATM    8  C   UNL     1      -7.674  13.328  67.637  1.00  0.00    -0.171 C  
BRANCH   8   9
HETATM    9  C   UNL     1      -7.479  12.216  68.660  1.00  0.00    -0.105 C  
BRANCH   9  10
HETATM   10  C   UNL     1      -7.996  10.874  68.133  1.00  0.00    -0.117 C  
BRANCH  10  11
HETATM   11  C   UNL     1      -9.042  10.324  69.089  1.00  0.00    -0.199 C  
BRANCH  11  12
HETATM   12  C   UNL     1     -10.235   9.657  68.398  1.00  0.00    -0.214 C  
BRANCH  12  13
HETATM   13  C   UNL     1     -10.983  10.716  67.603  1.00  0.00    -0.310 C  
HETATM   14  N   UNL     1     -10.369  11.070  66.415  1.00  0.00    -0.243 N  
HETATM   15  O   UNL     1     -12.049  11.170  68.017  1.00  0.00    -0.635 OA 
HETATM   16  H   UNL     1      -9.481  10.625  66.185  1.00  0.00     0.000 HD 
BRANCH  14  17
HETATM   17  C   UNL     1     -10.897  12.011  65.497  1.00  0.00    -0.292 A  
HETATM   18  C   UNL     1     -10.857  13.392  65.719  1.00  0.00    -0.283 A  
HETATM   19  C   UNL     1     -11.484  14.281  64.847  1.00  0.00    -0.378 A  
HETATM   20  C   UNL     1     -12.141  13.798  63.722  1.00  0.00    -0.385 A  
HETATM   21  C   UNL     1     -12.138  12.430  63.454  1.00  0.00    -0.620 A  
HETATM   22  C   UNL     1     -11.508  11.538  64.332  1.00  0.00    -0.236 A  
ENDBRANCH  14  17
ENDBRANCH  12  13
ENDBRANCH  11  12
ENDBRANCH  10  11
ENDBRANCH   9  10
ENDBRANCH   8   9
ENDBRANCH   7   8
ENDBRANCH   4   7
TORSDOF 8
ENDMDL
MODEL      229
REMARK 921   NORMALIZED FREE ENERGY PREDICTED BY IDOCK:   -3.36 KCAL/MOL
REMARK 922        TOTAL FREE ENERGY PREDICTED BY IDOCK:   -5.72 KCAL/MOL
REMARK 923 INTER-LIGAND FREE ENERGY PREDICTED BY IDOCK:   -5.18 KCAL/MOL
REMARK 924 INTRA-LIGAND FREE ENERGY PREDICTED BY IDOCK:   -0.54 KCAL/MOL
REMARK 927      BINDING AFFINITY PREDICTED BY RF-SCORE:    0.00 PKD
ROOT
HETATM    1  O   UNL     1      -8.256  14.107  66.756  1.00  0.00    -0.399 OA 
HETATM    2  N   UNL     1      -9.342  14.359  65.902  1.00  0.00    -0.530 N  
HETATM    3  H   UNL     1      -7.648  14.805  66.971  1.00  0.00     0.000 HD 
HETATM    4  C   UNL     1     -10.216  13.356  65.593  1.00  0.00    -0.292 C  
HETATM    5  H   UNL     1      -9.478  15.292  65.513  1.00  0.00     0.000 HD 
HETATM    6  O   UNL     1     -11.178  13.579  64.860  1.00  0.00    -0.318 OA 
ENDROOT
BRANCH   4   7
HETATM    7  C   UNL     1      -9.913  11.999  66.197  1.00  0.00    -0.254 C  
BRANCH   7   8
HETATM    8  C   UNL     1      -9.134  11.106  65.236  1.00  0.00    -0.183 C  
BRANCH   8   9
HETATM    9  C   UNL     1      -9.619   9.663  65.314  1.00  0.00    -0.347 C  
BRANCH   9  10
HETATM   10  C   UNL     1     -10.293   9.371  66.659  1.00  0.00    -0.284 C  
BRANCH  10  11
HETATM   11  C   UNL     1     -10.216   7.882  66.951  1.00  0.00    -0.380 C  
BRANCH  11  12
HETATM   12  C   UNL     1      -8.830   7.397  67.382  1.00  0.00    -0.123 C  
BRANCH  12  13
HETATM   13  C   UNL     1      -8.878   7.061  68.865  1.00  0.00    -0.130 C  
HETATM   14  N   UNL     1      -9.556   7.991  69.634  1.00  0.00    -0.167 N  
HETATM   15  O   UNL     1      -8.361   6.028  69.288  1.00  0.00    -0.112 OA 
HETATM   16  H   UNL     1      -9.936   8.812  69.164  1.00  0.00     0.000 HD 
BRANCH  14  17
HETATM   17  C   UNL     1      -9.755   7.873  71.032  1.00  0.00    -0.159 A  
HETATM   18  C   UNL     1      -8.808   8.296  71.971  1.00  0.00    -0.256 A  
HETATM   19  C   UNL     1      -8.991   8.063  73.333  1.00  0.00    -0.341 A  
HETATM   20  C   UNL     1     -10.142   7.424  73.777  1.00  0.00    -0.329 A  
HETATM   21  C   UNL     1     -11.122   7.051  72.859  1.00  0.00    -0.314 A  
HETATM   22  C   UNL     1     -10.937   7.284  71.491  1.00  0.00    -0.259 A  
ENDBRANCH  14  17
ENDBRANCH  12  13
ENDBRANCH  11  12
ENDBRANCH  10  11
ENDBRANCH   9  10
ENDBRANCH   8   9
ENDBRANCH   7   8
ENDBRANCH   4   7
TORSDOF 8
ENDMDL
MODEL      230
REMARK 921   NORMALIZED FREE ENERGY PREDICTED BY IDOCK:   -3.35 KCAL/MOL
REMARK 922        TOTAL FREE ENERGY PREDICTED BY IDOCK:   -5.71 KCAL/MOL
REMARK 923 INTER-LIGAND FREE ENERGY PREDICTED BY IDOCK:   -4.92 KCAL/MOL
REMARK 924 INTRA-LIGAND FREE ENERGY PREDICTED BY IDOCK:   -0.79 KCAL/MOL
REMARK 927      BINDING AFFINITY PREDICTED BY RF-SCORE:    0.00 PKD
ROOT
HETATM    1  O   UNL     1     -14.182   6.733  72.579  1.00  0.00    -0.428 OA 
HETATM    2  N   UNL     1     -13.660   7.894  71.986  1.00  0.00    -0.495 N  
HETATM    3  H   UNL     1     -15.108   6.679  72.784  1.00  0.00     0.000 HD 
HETATM    4  C   UNL     1     -12.329   7.973  71.692  1.00  0.00    -0.314 C  
HETATM    5  H   UNL     1     -14.276   8.679  71.775  1.00  0.00     0.000 HD 
HETATM    6  O   UNL     1     -11.872   8.980  71.155  1.00  0.00    -0.281 OA 
ENDROOT
BRANCH   4   7
HETATM    7  C   UNL     1     -11.491   6.767  72.070  1.00  0.00    -0.317 C  
BRANCH   7   8
HETATM    8  C   UNL     1     -10.182   7.167  72.743  1.00  0.00    -0.243 C  
BRANCH   8   9
HETATM    9  C   UNL     1      -9.049   7.258  71.727  1.00  0.00    -0.141 C  
BRANCH   9  10
HETATM   10  C   UNL     1      -9.330   6.390  70.497  1.00  0.00    -0.169 C  
BRANCH  10  11
HETATM   11  C   UNL     1      -8.580   6.951  69.300  1.00  0.00    -0.132 C  
BRANCH  11  12
HETATM   12  C   UNL     1      -7.771   8.215  69.602  1.00  0.00    -0.101 C  
BRANCH  12  13
HETATM   13  C   UNL     1      -8.169   9.290  68.602  1.00  0.00    -0.113 C  
HETATM   14  N   UNL     1      -9.305   8.991  67.872  1.00  0.00    -0.140 N  
HETATM   15  O   UNL     1      -7.514  10.327  68.507  1.00  0.00    -0.080 OA 
HETATM   16  H   UNL     1      -9.757   8.093  68.040  1.00  0.00     0.000 HD 
BRANCH  14  17
HETATM   17  C   UNL     1      -9.881   9.855  66.907  1.00  0.00    -0.199 A  
HETATM   18  C   UNL     1      -9.508   9.840  65.559  1.00  0.00    -0.324 A  
HETATM   19  C   UNL     1     -10.015  10.779  64.661  1.00  0.00    -0.386 A  
HETATM   20  C   UNL     1     -10.926  11.732  65.098  1.00  0.00    -0.351 A  
HETATM   21  C   UNL     1     -11.353  11.722  66.425  1.00  0.00    -0.361 A  
HETATM   22  C   UNL     1     -10.842  10.779  67.327  1.00  0.00    -0.344 A  
ENDBRANCH  14  17
ENDBRANCH  12  13
ENDBRANCH  11  12
ENDBRANCH  10  11
ENDBRANCH   9  10
ENDBRANCH   8   9
ENDBRANCH   7   8
ENDBRANCH   4   7
TORSDOF 8
ENDMDL
MODEL      231
REMARK 921   NORMALIZED FREE ENERGY PREDICTED BY IDOCK:   -3.35 KCAL/MOL
REMARK 922        TOTAL FREE ENERGY PREDICTED BY IDOCK:   -5.70 KCAL/MOL
REMARK 923 INTER-LIGAND FREE ENERGY PREDICTED BY IDOCK:   -5.83 KCAL/MOL
REMARK 924 INTRA-LIGAND FREE ENERGY PREDICTED BY IDOCK:    0.13 KCAL/MOL
REMARK 927      BINDING AFFINITY PREDICTED BY RF-SCORE:    0.00 PKD
ROOT
HETATM    1  O   UNL     1      -9.665  17.302  69.020  1.00  0.00    -0.263 OA 
HETATM    2  N   UNL     1     -10.382  18.315  68.363  1.00  0.00    -0.367 N  
HETATM    3  H   UNL     1      -9.759  17.184  69.958  1.00  0.00     0.000 HD 
HETATM    4  C   UNL     1     -10.246  18.484  67.015  1.00  0.00    -0.380 C  
HETATM    5  H   UNL     1     -11.005  18.923  68.894  1.00  0.00     0.000 HD 
HETATM    6  O   UNL     1     -10.887  19.358  66.434  1.00  0.00    -0.409 OA 
ENDROOT
BRANCH   4   7
HETATM    7  C   UNL     1      -9.275  17.549  66.321  1.00  0.00    -0.228 C  
BRANCH   7   8
HETATM    8  C   UNL     1      -9.550  16.086  66.657  1.00  0.00    -0.258 C  
BRANCH   8   9
HETATM    9  C   UNL     1     -10.423  15.434  65.591  1.00  0.00    -0.391 C  
BRANCH   9  10
HETATM   10  C   UNL     1     -10.951  14.073  66.057  1.00  0.00    -0.298 C  
BRANCH  10  11
HETATM   11  C   UNL     1     -10.023  13.507  67.120  1.00  0.00    -0.246 C  
BRANCH  11  12
HETATM   12  C   UNL     1     -10.729  13.094  68.414  1.00  0.00    -0.270 C  
BRANCH  12  13
HETATM   13  C   UNL     1     -11.188  11.651  68.270  1.00  0.00    -0.260 C  
HETATM   14  N   UNL     1     -10.169  10.720  68.368  1.00  0.00    -0.168 N  
HETATM   15  O   UNL     1     -12.379  11.388  68.104  1.00  0.00    -0.502 OA 
HETATM   16  H   UNL     1      -9.219  11.066  68.500  1.00  0.00     0.000 HD 
BRANCH  14  17
HETATM   17  C   UNL     1     -10.362   9.318  68.297  1.00  0.00    -0.217 A  
HETATM   18  C   UNL     1     -10.434   8.624  67.084  1.00  0.00    -0.360 A  
HETATM   19  C   UNL     1     -10.736   7.263  67.051  1.00  0.00    -0.406 A  
HETATM   20  C   UNL     1     -10.943   6.571  68.237  1.00  0.00    -0.362 A  
HETATM   21  C   UNL     1     -10.814   7.236  69.456  1.00  0.00    -0.224 A  
HETATM   22  C   UNL     1     -10.513   8.603  69.488  1.00  0.00    -0.222 A  
ENDBRANCH  14  17
ENDBRANCH  12  13
ENDBRANCH  11  12
ENDBRANCH  10  11
ENDBRANCH   9  10
ENDBRANCH   8   9
ENDBRANCH   7   8
ENDBRANCH   4   7
TORSDOF 8
ENDMDL
MODEL      232
REMARK 921   NORMALIZED FREE ENERGY PREDICTED BY IDOCK:   -3.33 KCAL/MOL
REMARK 922        TOTAL FREE ENERGY PREDICTED BY IDOCK:   -5.68 KCAL/MOL
REMARK 923 INTER-LIGAND FREE ENERGY PREDICTED BY IDOCK:   -5.45 KCAL/MOL
REMARK 924 INTRA-LIGAND FREE ENERGY PREDICTED BY IDOCK:   -0.23 KCAL/MOL
REMARK 927      BINDING AFFINITY PREDICTED BY RF-SCORE:    0.00 PKD
ROOT
HETATM    1  O   UNL     1     -10.353   7.694  73.594  1.00  0.00    -0.324 OA 
HETATM    2  N   UNL     1     -10.906   6.418  73.785  1.00  0.00    -0.452 N  
HETATM    3  H   UNL     1     -10.604   8.412  74.165  1.00  0.00     0.000 HD 
HETATM    4  C   UNL     1     -10.546   5.387  72.965  1.00  0.00    -0.235 C  
HETATM    5  H   UNL     1     -11.576   6.261  74.538  1.00  0.00     0.000 HD 
HETATM    6  O   UNL     1     -11.014   4.264  73.142  1.00  0.00    -0.210 OA 
ENDROOT
BRANCH   4   7
HETATM    7  C   UNL     1      -9.566   5.727  71.860  1.00  0.00    -0.172 C  
BRANCH   7   8
HETATM    8  C   UNL     1     -10.272   6.032  70.542  1.00  0.00    -0.262 C  
BRANCH   8   9
HETATM    9  C   UNL     1      -9.387   6.868  69.625  1.00  0.00    -0.145 C  
BRANCH   9  10
HETATM   10  C   UNL     1     -10.196   7.498  68.488  1.00  0.00    -0.216 C  
BRANCH  10  11
HETATM   11  C   UNL     1     -10.762   8.832  68.948  1.00  0.00    -0.114 C  
BRANCH  11  12
HETATM   12  C   UNL     1      -9.704   9.908  69.202  1.00  0.00    -0.204 C  
BRANCH  12  13
HETATM   13  C   UNL     1     -10.037  11.120  68.345  1.00  0.00    -0.184 C  
HETATM   14  N   UNL     1     -10.794  10.830  67.224  1.00  0.00    -0.278 N  
HETATM   15  O   UNL     1      -9.660  12.243  68.678  1.00  0.00    -0.156 OA 
HETATM   16  H   UNL     1     -11.040   9.856  67.054  1.00  0.00     0.000 HD 
BRANCH  14  17
HETATM   17  C   UNL     1     -11.249  11.802  66.298  1.00  0.00    -0.312 A  
HETATM   18  C   UNL     1     -11.112  11.653  64.914  1.00  0.00    -0.317 A  
HETATM   19  C   UNL     1     -11.470  12.679  64.040  1.00  0.00    -0.475 A  
HETATM   20  C   UNL     1     -11.999  13.862  64.542  1.00  0.00    -0.464 A  
HETATM   21  C   UNL     1     -12.199  14.001  65.914  1.00  0.00    -0.481 A  
HETATM   22  C   UNL     1     -11.837  12.971  66.791  1.00  0.00    -0.451 A  
ENDBRANCH  14  17
ENDBRANCH  12  13
ENDBRANCH  11  12
ENDBRANCH  10  11
ENDBRANCH   9  10
ENDBRANCH   8   9
ENDBRANCH   7   8
ENDBRANCH   4   7
TORSDOF 8
ENDMDL
MODEL      233
REMARK 921   NORMALIZED FREE ENERGY PREDICTED BY IDOCK:   -3.32 KCAL/MOL
REMARK 922        TOTAL FREE ENERGY PREDICTED BY IDOCK:   -5.66 KCAL/MOL
REMARK 923 INTER-LIGAND FREE ENERGY PREDICTED BY IDOCK:   -5.11 KCAL/MOL
REMARK 924 INTRA-LIGAND FREE ENERGY PREDICTED BY IDOCK:   -0.55 KCAL/MOL
REMARK 927      BINDING AFFINITY PREDICTED BY RF-SCORE:    0.00 PKD
ROOT
HETATM    1  O   UNL     1      -5.230  20.109  71.782  1.00  0.00    -0.349 OA 
HETATM    2  N   UNL     1      -5.996  20.655  70.741  1.00  0.00    -0.542 N  
HETATM    3  H   UNL     1      -5.178  20.556  72.619  1.00  0.00     0.000 HD 
HETATM    4  C   UNL     1      -6.072  20.013  69.538  1.00  0.00    -0.333 C  
HETATM    5  H   UNL     1      -6.497  21.532  70.883  1.00  0.00     0.000 HD 
HETATM    6  O   UNL     1      -6.757  20.479  68.630  1.00  0.00    -0.263 OA 
ENDROOT
BRANCH   4   7
HETATM    7  C   UNL     1      -5.270  18.733  69.416  1.00  0.00    -0.198 C  
BRANCH   7   8
HETATM    8  C   UNL     1      -5.144  18.272  67.966  1.00  0.00    -0.164 C  
BRANCH   8   9
HETATM    9  C   UNL     1      -6.212  17.240  67.624  1.00  0.00    -0.165 C  
BRANCH   9  10
HETATM   10  C   UNL     1      -6.783  17.470  66.222  1.00  0.00    -0.309 C  
BRANCH  10  11
HETATM   11  C   UNL     1      -8.259  17.105  66.210  1.00  0.00    -0.306 C  
BRANCH  11  12
HETATM   12  C   UNL     1      -8.746  16.420  67.489  1.00  0.00    -0.188 C  
BRANCH  12  13
HETATM   13  C   UNL     1      -9.376  15.089  67.111  1.00  0.00    -0.215 C  
HETATM   14  N   UNL     1      -9.369  14.150  68.128  1.00  0.00    -0.199 N  
HETATM   15  O   UNL     1      -9.856  14.921  65.991  1.00  0.00    -0.282 OA 
HETATM   16  H   UNL     1      -8.934  14.409  69.013  1.00  0.00     0.000 HD 
BRANCH  14  17
HETATM   17  C   UNL     1      -9.927  12.852  68.016  1.00  0.00    -0.236 A  
HETATM   18  C   UNL     1      -9.307  11.819  67.306  1.00  0.00    -0.171 A  
HETATM   19  C   UNL     1      -9.939  10.589  67.125  1.00  0.00    -0.234 A  
HETATM   20  C   UNL     1     -11.194  10.368  67.678  1.00  0.00    -0.287 A  
HETATM   21  C   UNL     1     -11.798  11.367  68.440  1.00  0.00    -0.344 A  
HETATM   22  C   UNL     1     -11.163  12.602  68.620  1.00  0.00    -0.323 A  
ENDBRANCH  14  17
ENDBRANCH  12  13
ENDBRANCH  11  12
ENDBRANCH  10  11
ENDBRANCH   9  10
ENDBRANCH   8   9
ENDBRANCH   7   8
ENDBRANCH   4   7
TORSDOF 8
ENDMDL
MODEL      234
REMARK 921   NORMALIZED FREE ENERGY PREDICTED BY IDOCK:   -3.32 KCAL/MOL
REMARK 922        TOTAL FREE ENERGY PREDICTED BY IDOCK:   -5.66 KCAL/MOL
REMARK 923 INTER-LIGAND FREE ENERGY PREDICTED BY IDOCK:   -5.56 KCAL/MOL
REMARK 924 INTRA-LIGAND FREE ENERGY PREDICTED BY IDOCK:   -0.10 KCAL/MOL
REMARK 927      BINDING AFFINITY PREDICTED BY RF-SCORE:    0.00 PKD
ROOT
HETATM    1  O   UNL     1      -6.369   5.779  73.191  1.00  0.00    -0.059 OA 
HETATM    2  N   UNL     1      -6.001   7.117  73.406  1.00  0.00    -0.056 N  
HETATM    3  H   UNL     1      -5.710   5.136  72.958  1.00  0.00     0.000 HD 
HETATM    4  C   UNL     1      -6.949   8.041  73.741  1.00  0.00    -0.124 C  
HETATM    5  H   UNL     1      -5.025   7.398  73.312  1.00  0.00     0.000 HD 
HETATM    6  O   UNL     1      -6.627   9.210  73.948  1.00  0.00    -0.342 OA 
ENDROOT
BRANCH   4   7
HETATM    7  C   UNL     1      -8.374   7.532  73.828  1.00  0.00    -0.220 C  
BRANCH   7   8
HETATM    8  C   UNL     1      -9.244   8.069  72.695  1.00  0.00    -0.304 C  
BRANCH   8   9
HETATM    9  C   UNL     1     -10.547   7.285  72.585  1.00  0.00    -0.305 C  
BRANCH   9  10
HETATM   10  C   UNL     1     -11.765   8.212  72.649  1.00  0.00    -0.419 C  
BRANCH  10  11
HETATM   11  C   UNL     1     -11.517   9.434  71.781  1.00  0.00    -0.413 C  
BRANCH  11  12
HETATM   12  C   UNL     1     -12.194   9.377  70.409  1.00  0.00     0.063 C  
BRANCH  12  13
HETATM   13  C   UNL     1     -12.125  10.761  69.781  1.00  0.00    -0.318 C  
HETATM   14  N   UNL     1     -12.095  11.797  70.698  1.00  0.00    -0.424 N  
HETATM   15  O   UNL     1     -12.081  10.891  68.559  1.00  0.00    -0.545 OA 
HETATM   16  H   UNL     1     -12.145  11.560  71.688  1.00  0.00     0.000 HD 
BRANCH  14  17
HETATM   17  C   UNL     1     -12.001  13.167  70.347  1.00  0.00    -0.266 A  
HETATM   18  C   UNL     1     -12.672  14.176  71.045  1.00  0.00    -0.433 A  
HETATM   19  C   UNL     1     -12.644  15.499  70.603  1.00  0.00    -0.493 A  
HETATM   20  C   UNL     1     -11.917  15.833  69.467  1.00  0.00    -0.326 A  
HETATM   21  C   UNL     1     -11.193  14.849  68.796  1.00  0.00    -0.288 A  
HETATM   22  C   UNL     1     -11.224  13.521  69.240  1.00  0.00    -0.285 A  
ENDBRANCH  14  17
ENDBRANCH  12  13
ENDBRANCH  11  12
ENDBRANCH  10  11
ENDBRANCH   9  10
ENDBRANCH   8   9
ENDBRANCH   7   8
ENDBRANCH   4   7
TORSDOF 8
ENDMDL
MODEL      235
REMARK 921   NORMALIZED FREE ENERGY PREDICTED BY IDOCK:   -3.32 KCAL/MOL
REMARK 922        TOTAL FREE ENERGY PREDICTED BY IDOCK:   -5.66 KCAL/MOL
REMARK 923 INTER-LIGAND FREE ENERGY PREDICTED BY IDOCK:   -4.82 KCAL/MOL
REMARK 924 INTRA-LIGAND FREE ENERGY PREDICTED BY IDOCK:   -0.83 KCAL/MOL
REMARK 927      BINDING AFFINITY PREDICTED BY RF-SCORE:    0.00 PKD
ROOT
HETATM    1  O   UNL     1      -8.620   8.989  68.024  1.00  0.00    -0.128 OA 
HETATM    2  N   UNL     1      -9.521   8.090  67.433  1.00  0.00    -0.146 N  
HETATM    3  H   UNL     1      -8.935   9.810  68.385  1.00  0.00     0.000 HD 
HETATM    4  C   UNL     1      -9.068   6.910  66.914  1.00  0.00    -0.139 C  
HETATM    5  H   UNL     1     -10.514   8.317  67.392  1.00  0.00     0.000 HD 
HETATM    6  O   UNL     1      -9.857   6.111  66.413  1.00  0.00    -0.157 OA 
ENDROOT
BRANCH   4   7
HETATM    7  C   UNL     1      -7.573   6.677  66.998  1.00  0.00    -0.095 C  
BRANCH   7   8
HETATM    8  C   UNL     1      -7.167   6.035  68.322  1.00  0.00    -0.084 C  
BRANCH   8   9
HETATM    9  C   UNL     1      -7.460   4.539  68.319  1.00  0.00    -0.065 C  
BRANCH   9  10
HETATM   10  C   UNL     1      -8.039   4.079  69.660  1.00  0.00    -0.061 C  
BRANCH  10  11
HETATM   11  C   UNL     1      -9.542   4.307  69.667  1.00  0.00    -0.275 C  
BRANCH  11  12
HETATM   12  C   UNL     1     -10.087   4.859  70.987  1.00  0.00    -0.288 C  
BRANCH  12  13
HETATM   13  C   UNL     1     -10.961   6.066  70.679  1.00  0.00    -0.307 C  
HETATM   14  N   UNL     1     -10.868   7.084  71.611  1.00  0.00    -0.222 N  
HETATM   15  O   UNL     1     -11.654   6.091  69.663  1.00  0.00    -0.321 OA 
HETATM   16  H   UNL     1     -10.260   6.939  72.417  1.00  0.00     0.000 HD 
BRANCH  14  17
HETATM   17  C   UNL     1     -11.564   8.315  71.516  1.00  0.00    -0.279 A  
HETATM   18  C   UNL     1     -11.132   9.370  70.707  1.00  0.00    -0.365 A  
HETATM   19  C   UNL     1     -11.781  10.604  70.724  1.00  0.00    -0.435 A  
HETATM   20  C   UNL     1     -12.893  10.789  71.537  1.00  0.00    -0.567 A  
HETATM   21  C   UNL     1     -13.372   9.728  72.303  1.00  0.00    -0.472 A  
HETATM   22  C   UNL     1     -12.719   8.490  72.286  1.00  0.00    -0.420 A  
ENDBRANCH  14  17
ENDBRANCH  12  13
ENDBRANCH  11  12
ENDBRANCH  10  11
ENDBRANCH   9  10
ENDBRANCH   8   9
ENDBRANCH   7   8
ENDBRANCH   4   7
TORSDOF 8
ENDMDL
MODEL      236
REMARK 921   NORMALIZED FREE ENERGY PREDICTED BY IDOCK:   -3.32 KCAL/MOL
REMARK 922        TOTAL FREE ENERGY PREDICTED BY IDOCK:   -5.65 KCAL/MOL
REMARK 923 INTER-LIGAND FREE ENERGY PREDICTED BY IDOCK:   -5.36 KCAL/MOL
REMARK 924 INTRA-LIGAND FREE ENERGY PREDICTED BY IDOCK:   -0.30 KCAL/MOL
REMARK 927      BINDING AFFINITY PREDICTED BY RF-SCORE:    0.00 PKD
ROOT
HETATM    1  O   UNL     1     -10.956   9.568  68.278  1.00  0.00    -0.428 OA 
HETATM    2  N   UNL     1     -11.865  10.631  68.161  1.00  0.00    -0.371 N  
HETATM    3  H   UNL     1     -11.232   8.747  68.669  1.00  0.00     0.000 HD 
HETATM    4  C   UNL     1     -11.469  11.811  67.599  1.00  0.00    -0.300 C  
HETATM    5  H   UNL     1     -12.823  10.522  68.495  1.00  0.00     0.000 HD 
HETATM    6  O   UNL     1     -12.269  12.738  67.477  1.00  0.00    -0.348 OA 
ENDROOT
BRANCH   4   7
HETATM    7  C   UNL     1     -10.021  11.886  67.158  1.00  0.00    -0.209 C  
BRANCH   7   8
HETATM    8  C   UNL     1      -9.146  12.596  68.187  1.00  0.00    -0.204 C  
BRANCH   8   9
HETATM    9  C   UNL     1      -9.149  14.104  67.961  1.00  0.00    -0.191 C  
BRANCH   9  10
HETATM   10  C   UNL     1      -8.726  14.456  66.532  1.00  0.00    -0.042 C  
BRANCH  10  11
HETATM   11  C   UNL     1      -9.833  15.251  65.858  1.00  0.00    -0.385 C  
BRANCH  11  12
HETATM   12  C   UNL     1     -10.572  16.212  66.792  1.00  0.00    -0.277 C  
BRANCH  12  13
HETATM   13  C   UNL     1      -9.800  17.522  66.843  1.00  0.00    -0.302 C  
HETATM   14  N   UNL     1      -8.531  17.410  67.383  1.00  0.00    -0.204 N  
HETATM   15  O   UNL     1     -10.300  18.559  66.409  1.00  0.00    -0.386 OA 
HETATM   16  H   UNL     1      -8.233  16.493  67.715  1.00  0.00     0.000 HD 
BRANCH  14  17
HETATM   17  C   UNL     1      -7.620  18.488  67.503  1.00  0.00    -0.228 A  
HETATM   18  C   UNL     1      -7.290  19.069  68.733  1.00  0.00    -0.366 A  
HETATM   19  C   UNL     1      -6.476  20.199  68.801  1.00  0.00    -0.345 A  
HETATM   20  C   UNL     1      -5.957  20.748  67.635  1.00  0.00    -0.322 A  
HETATM   21  C   UNL     1      -6.227  20.145  66.408  1.00  0.00    -0.202 A  
HETATM   22  C   UNL     1      -7.046  19.011  66.340  1.00  0.00    -0.248 A  
ENDBRANCH  14  17
ENDBRANCH  12  13
ENDBRANCH  11  12
ENDBRANCH  10  11
ENDBRANCH   9  10
ENDBRANCH   8   9
ENDBRANCH   7   8
ENDBRANCH   4   7
TORSDOF 8
ENDMDL
MODEL      237
REMARK 921   NORMALIZED FREE ENERGY PREDICTED BY IDOCK:   -3.31 KCAL/MOL
REMARK 922        TOTAL FREE ENERGY PREDICTED BY IDOCK:   -5.65 KCAL/MOL
REMARK 923 INTER-LIGAND FREE ENERGY PREDICTED BY IDOCK:   -4.73 KCAL/MOL
REMARK 924 INTRA-LIGAND FREE ENERGY PREDICTED BY IDOCK:   -0.92 KCAL/MOL
REMARK 927      BINDING AFFINITY PREDICTED BY RF-SCORE:    0.00 PKD
ROOT
HETATM    1  O   UNL     1     -11.244   7.578  68.009  1.00  0.00    -0.449 OA 
HETATM    2  N   UNL     1     -11.536   6.357  67.381  1.00  0.00    -0.697 N  
HETATM    3  H   UNL     1     -11.899   8.004  68.549  1.00  0.00     0.000 HD 
HETATM    4  C   UNL     1     -10.594   5.744  66.605  1.00  0.00    -0.280 C  
HETATM    5  H   UNL     1     -12.452   5.926  67.506  1.00  0.00     0.000 HD 
HETATM    6  O   UNL     1     -10.841   4.665  66.069  1.00  0.00    -0.240 OA 
ENDROOT
BRANCH   4   7
HETATM    7  C   UNL     1      -9.274   6.476  66.458  1.00  0.00    -0.179 C  
BRANCH   7   8
HETATM    8  C   UNL     1      -8.245   6.011  67.484  1.00  0.00    -0.106 C  
BRANCH   8   9
HETATM    9  C   UNL     1      -7.165   7.066  67.693  1.00  0.00    -0.091 C  
BRANCH   9  10
HETATM   10  C   UNL     1      -7.532   8.386  67.009  1.00  0.00    -0.088 C  
BRANCH  10  11
HETATM   11  C   UNL     1      -7.279   9.540  67.965  1.00  0.00    -0.081 C  
BRANCH  11  12
HETATM   12  C   UNL     1      -8.396   9.765  68.987  1.00  0.00    -0.127 C  
BRANCH  12  13
HETATM   13  C   UNL     1      -9.351  10.811  68.433  1.00  0.00    -0.167 C  
HETATM   14  N   UNL     1      -8.914  12.115  68.590  1.00  0.00    -0.378 N  
HETATM   15  O   UNL     1     -10.398  10.473  67.883  1.00  0.00    -0.173 OA 
HETATM   16  H   UNL     1      -8.027  12.266  69.070  1.00  0.00     0.000 HD 
BRANCH  14  17
HETATM   17  C   UNL     1      -9.620  13.252  68.125  1.00  0.00    -0.227 A  
HETATM   18  C   UNL     1     -10.837  13.666  68.676  1.00  0.00    -0.283 A  
HETATM   19  C   UNL     1     -11.558  14.723  68.121  1.00  0.00    -0.356 A  
HETATM   20  C   UNL     1     -11.053  15.399  67.017  1.00  0.00    -0.273 A  
HETATM   21  C   UNL     1      -9.813  15.037  66.494  1.00  0.00    -0.276 A  
HETATM   22  C   UNL     1      -9.091  13.975  67.051  1.00  0.00    -0.256 A  
ENDBRANCH  14  17
ENDBRANCH  12  13
ENDBRANCH  11  12
ENDBRANCH  10  11
ENDBRANCH   9  10
ENDBRANCH   8   9
ENDBRANCH   7   8
ENDBRANCH   4   7
TORSDOF 8
ENDMDL
MODEL      238
REMARK 921   NORMALIZED FREE ENERGY PREDICTED BY IDOCK:   -3.29 KCAL/MOL
REMARK 922        TOTAL FREE ENERGY PREDICTED BY IDOCK:   -5.61 KCAL/MOL
REMARK 923 INTER-LIGAND FREE ENERGY PREDICTED BY IDOCK:   -4.80 KCAL/MOL
REMARK 924 INTRA-LIGAND FREE ENERGY PREDICTED BY IDOCK:   -0.81 KCAL/MOL
REMARK 927      BINDING AFFINITY PREDICTED BY RF-SCORE:    0.00 PKD
ROOT
HETATM    1  O   UNL     1      -9.782   5.900  73.997  1.00  0.00    -0.156 OA 
HETATM    2  N   UNL     1      -9.159   7.104  73.631  1.00  0.00    -0.170 N  
HETATM    3  H   UNL     1      -9.412   5.364  74.689  1.00  0.00     0.000 HD 
HETATM    4  C   UNL     1      -9.691   7.874  72.637  1.00  0.00    -0.240 C  
HETATM    5  H   UNL     1      -8.309   7.402  74.107  1.00  0.00     0.000 HD 
HETATM    6  O   UNL     1      -9.158   8.938  72.326  1.00  0.00    -0.381 OA 
ENDROOT
BRANCH   4   7
HETATM    7  C   UNL     1     -10.940   7.331  71.970  1.00  0.00    -0.271 C  
BRANCH   7   8
HETATM    8  C   UNL     1     -12.211   7.948  72.546  1.00  0.00    -0.245 C  
BRANCH   8   9
HETATM    9  C   UNL     1     -12.936   8.788  71.501  1.00  0.00    -0.359 C  
BRANCH   9  10
HETATM   10  C   UNL     1     -12.990  10.263  71.910  1.00  0.00    -0.554 C  
BRANCH  10  11
HETATM   11  C   UNL     1     -12.071  11.072  71.009  1.00  0.00    -0.406 C  
BRANCH  11  12
HETATM   12  C   UNL     1     -12.626  11.318  69.604  1.00  0.00    -0.044 C  
BRANCH  12  13
HETATM   13  C   UNL     1     -11.485  11.183  68.607  1.00  0.00    -0.298 C  
HETATM   14  N   UNL     1     -10.231  11.401  69.149  1.00  0.00    -0.406 N  
HETATM   15  O   UNL     1     -11.712  10.883  67.435  1.00  0.00    -0.510 OA 
HETATM   16  H   UNL     1     -10.175  11.650  70.136  1.00  0.00     0.000 HD 
BRANCH  14  17
HETATM   17  C   UNL     1      -9.020  11.300  68.419  1.00  0.00    -0.167 A  
HETATM   18  C   UNL     1      -8.320  10.097  68.275  1.00  0.00    -0.115 A  
HETATM   19  C   UNL     1      -7.077  10.058  67.644  1.00  0.00    -0.087 A  
HETATM   20  C   UNL     1      -6.529  11.224  67.125  1.00  0.00    -0.099 A  
HETATM   21  C   UNL     1      -7.241  12.419  67.207  1.00  0.00    -0.125 A  
HETATM   22  C   UNL     1      -8.489  12.457  67.842  1.00  0.00    -0.166 A  
ENDBRANCH  14  17
ENDBRANCH  12  13
ENDBRANCH  11  12
ENDBRANCH  10  11
ENDBRANCH   9  10
ENDBRANCH   8   9
ENDBRANCH   7   8
ENDBRANCH   4   7
TORSDOF 8
ENDMDL
MODEL      239
REMARK 921   NORMALIZED FREE ENERGY PREDICTED BY IDOCK:   -3.28 KCAL/MOL
REMARK 922        TOTAL FREE ENERGY PREDICTED BY IDOCK:   -5.61 KCAL/MOL
REMARK 923 INTER-LIGAND FREE ENERGY PREDICTED BY IDOCK:   -5.24 KCAL/MOL
REMARK 924 INTRA-LIGAND FREE ENERGY PREDICTED BY IDOCK:   -0.37 KCAL/MOL
REMARK 927      BINDING AFFINITY PREDICTED BY RF-SCORE:    0.00 PKD
ROOT
HETATM    1  O   UNL     1     -10.534   7.966  66.495  1.00  0.00    -0.475 OA 
HETATM    2  N   UNL     1     -10.856   8.345  67.807  1.00  0.00    -0.494 N  
HETATM    3  H   UNL     1     -11.025   8.321  65.763  1.00  0.00     0.000 HD 
HETATM    4  C   UNL     1     -10.151   7.835  68.859  1.00  0.00    -0.195 C  
HETATM    5  H   UNL     1     -11.617   9.003  67.975  1.00  0.00     0.000 HD 
HETATM    6  O   UNL     1     -10.418   8.180  70.009  1.00  0.00    -0.221 OA 
ENDROOT
BRANCH   4   7
HETATM    7  C   UNL     1      -9.058   6.844  68.510  1.00  0.00    -0.127 C  
BRANCH   7   8
HETATM    8  C   UNL     1      -7.920   7.498  67.730  1.00  0.00    -0.118 C  
BRANCH   8   9
HETATM    9  C   UNL     1      -7.373   8.711  68.472  1.00  0.00    -0.085 C  
BRANCH   9  10
HETATM   10  C   UNL     1      -7.665  10.009  67.713  1.00  0.00    -0.090 C  
BRANCH  10  11
HETATM   11  C   UNL     1      -6.491  10.339  66.806  1.00  0.00    -0.073 C  
BRANCH  11  12
HETATM   12  C   UNL     1      -6.733  10.025  65.327  1.00  0.00    -0.117 C  
BRANCH  12  13
HETATM   13  C   UNL     1      -8.201  10.277  65.017  1.00  0.00    -0.154 C  
HETATM   14  N   UNL     1      -8.612  11.578  65.244  1.00  0.00    -0.365 N  
HETATM   15  O   UNL     1      -8.911   9.371  64.583  1.00  0.00    -0.208 OA 
HETATM   16  H   UNL     1      -7.927  12.238  65.612  1.00  0.00     0.000 HD 
BRANCH  14  17
HETATM   17  C   UNL     1      -9.924  12.052  64.997  1.00  0.00    -0.233 A  
HETATM   18  C   UNL     1     -10.445  12.205  63.708  1.00  0.00    -0.470 A  
HETATM   19  C   UNL     1     -11.700  12.778  63.501  1.00  0.00    -0.597 A  
HETATM   20  C   UNL     1     -12.463  13.183  64.589  1.00  0.00    -0.433 A  
HETATM   21  C   UNL     1     -11.983  12.983  65.882  1.00  0.00    -0.491 A  
HETATM   22  C   UNL     1     -10.722  12.408  66.089  1.00  0.00    -0.292 A  
ENDBRANCH  14  17
ENDBRANCH  12  13
ENDBRANCH  11  12
ENDBRANCH  10  11
ENDBRANCH   9  10
ENDBRANCH   8   9
ENDBRANCH   7   8
ENDBRANCH   4   7
TORSDOF 8
ENDMDL
MODEL      240
REMARK 921   NORMALIZED FREE ENERGY PREDICTED BY IDOCK:   -3.28 KCAL/MOL
REMARK 922        TOTAL FREE ENERGY PREDICTED BY IDOCK:   -5.60 KCAL/MOL
REMARK 923 INTER-LIGAND FREE ENERGY PREDICTED BY IDOCK:   -5.03 KCAL/MOL
REMARK 924 INTRA-LIGAND FREE ENERGY PREDICTED BY IDOCK:   -0.56 KCAL/MOL
REMARK 927      BINDING AFFINITY PREDICTED BY RF-SCORE:    0.00 PKD
ROOT
HETATM    1  O   UNL     1     -10.690   8.666  72.172  1.00  0.00    -0.327 OA 
HETATM    2  N   UNL     1     -11.264   7.520  72.745  1.00  0.00    -0.393 N  
HETATM    3  H   UNL     1     -10.750   9.502  72.619  1.00  0.00     0.000 HD 
HETATM    4  C   UNL     1     -11.179   6.318  72.102  1.00  0.00    -0.282 C  
HETATM    5  H   UNL     1     -11.745   7.585  73.642  1.00  0.00     0.000 HD 
HETATM    6  O   UNL     1     -11.664   5.309  72.611  1.00  0.00    -0.231 OA 
ENDROOT
BRANCH   4   7
HETATM    7  C   UNL     1     -10.470   6.329  70.762  1.00  0.00    -0.273 C  
BRANCH   7   8
HETATM    8  C   UNL     1     -11.442   6.525  69.602  1.00  0.00    -0.417 C  
BRANCH   8   9
HETATM    9  C   UNL     1     -10.930   5.847  68.337  1.00  0.00    -0.264 C  
BRANCH   9  10
HETATM   10  C   UNL     1     -10.958   6.803  67.140  1.00  0.00    -0.458 C  
BRANCH  10  11
HETATM   11  C   UNL     1     -10.082   8.009  67.436  1.00  0.00    -0.294 C  
BRANCH  11  12
HETATM   12  C   UNL     1      -9.339   8.560  66.216  1.00  0.00    -0.287 C  
BRANCH  12  13
HETATM   13  C   UNL     1      -9.517  10.070  66.186  1.00  0.00    -0.190 C  
HETATM   14  N   UNL     1      -9.232  10.697  67.386  1.00  0.00    -0.143 N  
HETATM   15  O   UNL     1      -9.866  10.638  65.152  1.00  0.00    -0.240 OA 
HETATM   16  H   UNL     1      -8.957  10.114  68.176  1.00  0.00     0.000 HD 
BRANCH  14  17
HETATM   17  C   UNL     1      -9.297  12.098  67.587  1.00  0.00    -0.187 A  
HETATM   18  C   UNL     1      -8.328  12.980  67.098  1.00  0.00    -0.153 A  
HETATM   19  C   UNL     1      -8.367  14.339  67.409  1.00  0.00    -0.212 A  
HETATM   20  C   UNL     1      -9.397  14.839  68.196  1.00  0.00    -0.197 A  
HETATM   21  C   UNL     1     -10.404  13.983  68.641  1.00  0.00    -0.238 A  
HETATM   22  C   UNL     1     -10.363  12.618  68.328  1.00  0.00    -0.246 A  
ENDBRANCH  14  17
ENDBRANCH  12  13
ENDBRANCH  11  12
ENDBRANCH  10  11
ENDBRANCH   9  10
ENDBRANCH   8   9
ENDBRANCH   7   8
ENDBRANCH   4   7
TORSDOF 8
ENDMDL
MODEL      241
REMARK 921   NORMALIZED FREE ENERGY PREDICTED BY IDOCK:   -3.27 KCAL/MOL
REMARK 922        TOTAL FREE ENERGY PREDICTED BY IDOCK:   -5.59 KCAL/MOL
REMARK 923 INTER-LIGAND FREE ENERGY PREDICTED BY IDOCK:   -5.00 KCAL/MOL
REMARK 924 INTRA-LIGAND FREE ENERGY PREDICTED BY IDOCK:   -0.59 KCAL/MOL
REMARK 927      BINDING AFFINITY PREDICTED BY RF-SCORE:    0.00 PKD
ROOT
HETATM    1  O   UNL     1     -10.023  17.134  65.638  1.00  0.00    -0.558 OA 
HETATM    2  N   UNL     1      -8.638  17.036  65.846  1.00  0.00    -0.111 N  
HETATM    3  H   UNL     1     -10.357  17.521  64.837  1.00  0.00     0.000 HD 
HETATM    4  C   UNL     1      -8.157  16.481  66.997  1.00  0.00    -0.201 C  
HETATM    5  H   UNL     1      -7.991  17.379  65.136  1.00  0.00     0.000 HD 
HETATM    6  O   UNL     1      -6.944  16.376  67.174  1.00  0.00    -0.165 OA 
ENDROOT
BRANCH   4   7
HETATM    7  C   UNL     1      -9.197  16.027  68.002  1.00  0.00    -0.193 C  
BRANCH   7   8
HETATM    8  C   UNL     1      -9.258  14.506  68.115  1.00  0.00    -0.195 C  
BRANCH   8   9
HETATM    9  C   UNL     1     -10.443  13.946  67.338  1.00  0.00    -0.263 C  
BRANCH   9  10
HETATM   10  C   UNL     1     -10.447  12.414  67.352  1.00  0.00    -0.229 C  
BRANCH  10  11
HETATM   11  C   UNL     1     -11.659  11.918  68.124  1.00  0.00    -0.400 C  
BRANCH  11  12
HETATM   12  C   UNL     1     -11.380  11.606  69.597  1.00  0.00    -0.308 C  
BRANCH  12  13
HETATM   13  C   UNL     1     -10.646  10.277  69.676  1.00  0.00    -0.256 C  
HETATM   14  N   UNL     1     -11.468   9.169  69.573  1.00  0.00    -0.419 N  
HETATM   15  O   UNL     1      -9.422  10.246  69.799  1.00  0.00    -0.191 OA 
HETATM   16  H   UNL     1     -12.471   9.326  69.480  1.00  0.00     0.000 HD 
BRANCH  14  17
HETATM   17  C   UNL     1     -11.005   7.830  69.589  1.00  0.00    -0.122 A  
HETATM   18  C   UNL     1     -10.800   7.084  68.423  1.00  0.00    -0.191 A  
HETATM   19  C   UNL     1     -10.450   5.736  68.483  1.00  0.00    -0.290 A  
HETATM   20  C   UNL     1     -10.273   5.121  69.716  1.00  0.00    -0.357 A  
HETATM   21  C   UNL     1     -10.414   5.866  70.886  1.00  0.00    -0.305 A  
HETATM   22  C   UNL     1     -10.767   7.220  70.825  1.00  0.00    -0.248 A  
ENDBRANCH  14  17
ENDBRANCH  12  13
ENDBRANCH  11  12
ENDBRANCH  10  11
ENDBRANCH   9  10
ENDBRANCH   8   9
ENDBRANCH   7   8
ENDBRANCH   4   7
TORSDOF 8
ENDMDL
MODEL      242
REMARK 921   NORMALIZED FREE ENERGY PREDICTED BY IDOCK:   -3.25 KCAL/MOL
REMARK 922        TOTAL FREE ENERGY PREDICTED BY IDOCK:   -5.56 KCAL/MOL
REMARK 923 INTER-LIGAND FREE ENERGY PREDICTED BY IDOCK:   -4.80 KCAL/MOL
REMARK 924 INTRA-LIGAND FREE ENERGY PREDICTED BY IDOCK:   -0.76 KCAL/MOL
REMARK 927      BINDING AFFINITY PREDICTED BY RF-SCORE:    0.00 PKD
ROOT
HETATM    1  O   UNL     1      -6.930  10.910  65.173  1.00  0.00    -0.360 OA 
HETATM    2  N   UNL     1      -5.943  10.146  64.530  1.00  0.00    -0.121 N  
HETATM    3  H   UNL     1      -6.728  11.786  65.481  1.00  0.00     0.000 HD 
HETATM    4  C   UNL     1      -6.233   8.887  64.088  1.00  0.00    -0.072 C  
HETATM    5  H   UNL     1      -5.009  10.532  64.394  1.00  0.00     0.000 HD 
HETATM    6  O   UNL     1      -5.376   8.223  63.507  1.00  0.00    -0.055 OA 
ENDROOT
BRANCH   4   7
HETATM    7  C   UNL     1      -7.639   8.392  64.363  1.00  0.00    -0.115 C  
BRANCH   7   8
HETATM    8  C   UNL     1      -7.745   7.691  65.714  1.00  0.00    -0.100 C  
BRANCH   8   9
HETATM    9  C   UNL     1      -9.201   7.531  66.136  1.00  0.00    -0.156 C  
BRANCH   9  10
HETATM   10  C   UNL     1      -9.438   8.079  67.547  1.00  0.00    -0.177 C  
BRANCH  10  11
HETATM   11  C   UNL     1     -10.343   9.298  67.471  1.00  0.00    -0.323 C  
BRANCH  11  12
HETATM   12  C   UNL     1     -10.352   9.988  66.104  1.00  0.00    -0.225 C  
BRANCH  12  13
HETATM   13  C   UNL     1     -10.718  11.451  66.307  1.00  0.00    -0.270 C  
HETATM   14  N   UNL     1      -9.730  12.340  65.920  1.00  0.00    -0.265 N  
HETATM   15  O   UNL     1     -11.818  11.762  66.761  1.00  0.00    -0.586 OA 
HETATM   16  H   UNL     1      -8.856  11.956  65.563  1.00  0.00     0.000 HD 
BRANCH  14  17
HETATM   17  C   UNL     1      -9.858  13.749  65.987  1.00  0.00    -0.282 A  
HETATM   18  C   UNL     1      -9.436  14.497  67.092  1.00  0.00    -0.236 A  
HETATM   19  C   UNL     1      -9.679  15.868  67.169  1.00  0.00    -0.227 A  
HETATM   20  C   UNL     1     -10.328  16.516  66.125  1.00  0.00    -0.344 A  
HETATM   21  C   UNL     1     -10.701  15.795  64.992  1.00  0.00    -0.443 A  
HETATM   22  C   UNL     1     -10.457  14.418  64.915  1.00  0.00    -0.448 A  
ENDBRANCH  14  17
ENDBRANCH  12  13
ENDBRANCH  11  12
ENDBRANCH  10  11
ENDBRANCH   9  10
ENDBRANCH   8   9
ENDBRANCH   7   8
ENDBRANCH   4   7
TORSDOF 8
ENDMDL
MODEL      243
REMARK 921   NORMALIZED FREE ENERGY PREDICTED BY IDOCK:   -3.22 KCAL/MOL
REMARK 922        TOTAL FREE ENERGY PREDICTED BY IDOCK:   -5.52 KCAL/MOL
REMARK 923 INTER-LIGAND FREE ENERGY PREDICTED BY IDOCK:   -5.48 KCAL/MOL
REMARK 924 INTRA-LIGAND FREE ENERGY PREDICTED BY IDOCK:   -0.03 KCAL/MOL
REMARK 927      BINDING AFFINITY PREDICTED BY RF-SCORE:    0.00 PKD
ROOT
HETATM    1  O   UNL     1      -7.923   5.931  67.865  1.00  0.00    -0.103 OA 
HETATM    2  N   UNL     1      -7.387   6.750  68.871  1.00  0.00    -0.091 N  
HETATM    3  H   UNL     1      -7.346   5.419  67.310  1.00  0.00     0.000 HD 
HETATM    4  C   UNL     1      -8.217   7.486  69.669  1.00  0.00    -0.129 C  
HETATM    5  H   UNL     1      -6.378   6.796  69.007  1.00  0.00     0.000 HD 
HETATM    6  O   UNL     1      -7.752   8.189  70.563  1.00  0.00    -0.080 OA 
ENDROOT
BRANCH   4   7
HETATM    7  C   UNL     1      -9.699   7.372  69.370  1.00  0.00    -0.159 C  
BRANCH   7   8
HETATM    8  C   UNL     1     -10.541   8.217  70.323  1.00  0.00    -0.230 C  
BRANCH   8   9
HETATM    9  C   UNL     1     -11.720   7.418  70.868  1.00  0.00    -0.325 C  
BRANCH   9  10
HETATM   10  C   UNL     1     -12.504   8.221  71.911  1.00  0.00    -0.376 C  
BRANCH  10  11
HETATM   11  C   UNL     1     -12.425   9.701  71.575  1.00  0.00    -0.476 C  
BRANCH  11  12
HETATM   12  C   UNL     1     -13.587  10.532  72.124  1.00  0.00    -0.167 C  
BRANCH  12  13
HETATM   13  C   UNL     1     -13.265  12.004  71.917  1.00  0.00    -0.364 C  
HETATM   14  N   UNL     1     -12.355  12.247  70.903  1.00  0.00    -0.366 N  
HETATM   15  O   UNL     1     -13.812  12.866  72.604  1.00  0.00    -0.596 OA 
HETATM   16  H   UNL     1     -11.967  11.444  70.408  1.00  0.00     0.000 HD 
BRANCH  14  17
HETATM   17  C   UNL     1     -11.929  13.540  70.510  1.00  0.00    -0.269 A  
HETATM   18  C   UNL     1     -12.136  14.678  71.296  1.00  0.00    -0.410 A  
HETATM   19  C   UNL     1     -11.802  15.948  70.827  1.00  0.00    -0.423 A  
HETATM   20  C   UNL     1     -11.230  16.093  69.570  1.00  0.00    -0.337 A  
HETATM   21  C   UNL     1     -10.961  14.962  68.799  1.00  0.00    -0.259 A  
HETATM   22  C   UNL     1     -11.298  13.687  69.271  1.00  0.00    -0.323 A  
ENDBRANCH  14  17
ENDBRANCH  12  13
ENDBRANCH  11  12
ENDBRANCH  10  11
ENDBRANCH   9  10
ENDBRANCH   8   9
ENDBRANCH   7   8
ENDBRANCH   4   7
TORSDOF 8
ENDMDL
MODEL      244
REMARK 921   NORMALIZED FREE ENERGY PREDICTED BY IDOCK:   -3.22 KCAL/MOL
REMARK 922        TOTAL FREE ENERGY PREDICTED BY IDOCK:   -5.51 KCAL/MOL
REMARK 923 INTER-LIGAND FREE ENERGY PREDICTED BY IDOCK:   -5.03 KCAL/MOL
REMARK 924 INTRA-LIGAND FREE ENERGY PREDICTED BY IDOCK:   -0.47 KCAL/MOL
REMARK 927      BINDING AFFINITY PREDICTED BY RF-SCORE:    0.00 PKD
ROOT
HETATM    1  O   UNL     1      -9.458   2.095  67.226  1.00  0.00    -0.373 OA 
HETATM    2  N   UNL     1      -9.482   2.058  68.629  1.00  0.00    -0.171 N  
HETATM    3  H   UNL     1      -9.530   1.289  66.728  1.00  0.00     0.000 HD 
HETATM    4  C   UNL     1      -9.379   3.216  69.346  1.00  0.00    -0.155 C  
HETATM    5  H   UNL     1      -9.577   1.166  69.114  1.00  0.00     0.000 HD 
HETATM    6  O   UNL     1      -9.418   3.189  70.574  1.00  0.00    -0.156 OA 
ENDROOT
BRANCH   4   7
HETATM    7  C   UNL     1      -9.212   4.487  68.536  1.00  0.00    -0.181 C  
BRANCH   7   8
HETATM    8  C   UNL     1     -10.510   5.287  68.452  1.00  0.00    -0.143 C  
BRANCH   8   9
HETATM    9  C   UNL     1     -10.444   6.531  69.330  1.00  0.00    -0.262 C  
BRANCH   9  10
HETATM   10  C   UNL     1      -9.680   7.664  68.638  1.00  0.00    -0.157 C  
BRANCH  10  11
HETATM   11  C   UNL     1     -10.396   8.045  67.352  1.00  0.00    -0.354 C  
BRANCH  11  12
HETATM   12  C   UNL     1      -9.631   9.044  66.480  1.00  0.00    -0.286 C  
BRANCH  12  13
HETATM   13  C   UNL     1     -10.307  10.402  66.600  1.00  0.00    -0.231 C  
HETATM   14  N   UNL     1     -10.200  11.189  65.467  1.00  0.00    -0.253 N  
HETATM   15  O   UNL     1     -10.902  10.714  67.630  1.00  0.00    -0.248 OA 
HETATM   16  H   UNL     1      -9.673  10.818  64.676  1.00  0.00     0.000 HD 
BRANCH  14  17
HETATM   17  C   UNL     1     -10.776  12.477  65.336  1.00  0.00    -0.280 A  
HETATM   18  C   UNL     1     -12.151  12.681  65.185  1.00  0.00    -0.508 A  
HETATM   19  C   UNL     1     -12.670  13.954  64.948  1.00  0.00    -0.315 A  
HETATM   20  C   UNL     1     -11.815  15.048  64.886  1.00  0.00    -0.298 A  
HETATM   21  C   UNL     1     -10.449  14.869  65.095  1.00  0.00    -0.442 A  
HETATM   22  C   UNL     1      -9.929  13.590  65.331  1.00  0.00    -0.220 A  
ENDBRANCH  14  17
ENDBRANCH  12  13
ENDBRANCH  11  12
ENDBRANCH  10  11
ENDBRANCH   9  10
ENDBRANCH   8   9
ENDBRANCH   7   8
ENDBRANCH   4   7
TORSDOF 8
ENDMDL
MODEL      245
REMARK 921   NORMALIZED FREE ENERGY PREDICTED BY IDOCK:   -3.20 KCAL/MOL
REMARK 922        TOTAL FREE ENERGY PREDICTED BY IDOCK:   -5.49 KCAL/MOL
REMARK 923 INTER-LIGAND FREE ENERGY PREDICTED BY IDOCK:   -4.98 KCAL/MOL
REMARK 924 INTRA-LIGAND FREE ENERGY PREDICTED BY IDOCK:   -0.51 KCAL/MOL
REMARK 927      BINDING AFFINITY PREDICTED BY RF-SCORE:    0.00 PKD
ROOT
HETATM    1  O   UNL     1     -11.173   7.042  70.251  1.00  0.00    -0.275 OA 
HETATM    2  N   UNL     1     -11.357   8.382  70.626  1.00  0.00    -0.287 N  
HETATM    3  H   UNL     1     -11.672   6.355  70.677  1.00  0.00     0.000 HD 
HETATM    4  C   UNL     1     -10.639   9.368  70.014  1.00  0.00    -0.235 C  
HETATM    5  H   UNL     1     -12.029   8.618  71.357  1.00  0.00     0.000 HD 
HETATM    6  O   UNL     1     -10.812  10.545  70.327  1.00  0.00    -0.279 OA 
ENDROOT
BRANCH   4   7
HETATM    7  C   UNL     1      -9.647   8.914  68.961  1.00  0.00    -0.158 C  
BRANCH   7   8
HETATM    8  C   UNL     1     -10.145   9.194  67.546  1.00  0.00    -0.284 C  
BRANCH   8   9
HETATM    9  C   UNL     1      -9.357  10.330  66.903  1.00  0.00    -0.183 C  
BRANCH   9  10
HETATM   10  C   UNL     1     -10.225  11.578  66.720  1.00  0.00    -0.254 C  
BRANCH  10  11
HETATM   11  C   UNL     1      -9.433  12.641  65.975  1.00  0.00    -0.140 C  
BRANCH  11  12
HETATM   12  C   UNL     1     -10.298  13.676  65.252  1.00  0.00    -0.362 C  
BRANCH  12  13
HETATM   13  C   UNL     1      -9.977  15.050  65.820  1.00  0.00    -0.346 C  
HETATM   14  N   UNL     1      -8.677  15.186  66.274  1.00  0.00    -0.460 N  
HETATM   15  O   UNL     1     -10.831  15.936  65.832  1.00  0.00    -0.305 OA 
HETATM   16  H   UNL     1      -8.064  14.373  66.216  1.00  0.00     0.000 HD 
BRANCH  14  17
HETATM   17  C   UNL     1      -8.145  16.383  66.815  1.00  0.00    -0.252 A  
HETATM   18  C   UNL     1      -7.820  16.524  68.168  1.00  0.00    -0.168 A  
HETATM   19  C   UNL     1      -7.403  17.751  68.685  1.00  0.00    -0.269 A  
HETATM   20  C   UNL     1      -7.279  18.849  67.843  1.00  0.00    -0.260 A  
HETATM   21  C   UNL     1      -7.540  18.708  66.481  1.00  0.00    -0.273 A  
HETATM   22  C   UNL     1      -7.961  17.477  65.964  1.00  0.00    -0.192 A  
ENDBRANCH  14  17
ENDBRANCH  12  13
ENDBRANCH  11  12
ENDBRANCH  10  11
ENDBRANCH   9  10
ENDBRANCH   8   9
ENDBRANCH   7   8
ENDBRANCH   4   7
TORSDOF 8
ENDMDL
MODEL      246
REMARK 921   NORMALIZED FREE ENERGY PREDICTED BY IDOCK:   -3.20 KCAL/MOL
REMARK 922        TOTAL FREE ENERGY PREDICTED BY IDOCK:   -5.48 KCAL/MOL
REMARK 923 INTER-LIGAND FREE ENERGY PREDICTED BY IDOCK:   -4.95 KCAL/MOL
REMARK 924 INTRA-LIGAND FREE ENERGY PREDICTED BY IDOCK:   -0.53 KCAL/MOL
REMARK 927      BINDING AFFINITY PREDICTED BY RF-SCORE:    0.00 PKD
ROOT
HETATM    1  O   UNL     1      -9.489   9.865  68.691  1.00  0.00    -0.146 OA 
HETATM    2  N   UNL     1     -10.759   9.635  69.242  1.00  0.00    -0.225 N  
HETATM    3  H   UNL     1      -8.957   9.133  68.400  1.00  0.00     0.000 HD 
HETATM    4  C   UNL     1     -11.523  10.687  69.661  1.00  0.00    -0.291 C  
HETATM    5  H   UNL     1     -11.112   8.683  69.330  1.00  0.00     0.000 HD 
HETATM    6  O   UNL     1     -12.644  10.491  70.127  1.00  0.00    -0.293 OA 
ENDROOT
BRANCH   4   7
HETATM    7  C   UNL     1     -10.901  12.062  69.516  1.00  0.00     0.035 C  
BRANCH   7   8
HETATM    8  C   UNL     1     -11.952  13.146  69.294  1.00  0.00    -0.344 C  
BRANCH   8   9
HETATM    9  C   UNL     1     -11.478  14.488  69.840  1.00  0.00    -0.320 C  
BRANCH   9  10
HETATM   10  C   UNL     1     -12.095  15.656  69.064  1.00  0.00    -0.227 C  
BRANCH  10  11
HETATM   11  C   UNL     1     -10.988  16.485  68.434  1.00  0.00    -0.348 C  
BRANCH  11  12
HETATM   12  C   UNL     1     -10.370  15.859  67.181  1.00  0.00    -0.300 C  
BRANCH  12  13
HETATM   13  C   UNL     1      -9.660  16.953  66.398  1.00  0.00    -0.284 C  
HETATM   14  N   UNL     1      -8.631  17.567  67.089  1.00  0.00    -0.220 N  
HETATM   15  O   UNL     1      -9.998  17.214  65.244  1.00  0.00    -0.423 OA 
HETATM   16  H   UNL     1      -8.452  17.265  68.046  1.00  0.00     0.000 HD 
BRANCH  14  17
HETATM   17  C   UNL     1      -7.811  18.590  66.550  1.00  0.00    -0.258 A  
HETATM   18  C   UNL     1      -6.727  18.327  65.706  1.00  0.00    -0.317 A  
HETATM   19  C   UNL     1      -5.877  19.350  65.286  1.00  0.00    -0.234 A  
HETATM   20  C   UNL     1      -6.118  20.658  65.686  1.00  0.00    -0.270 A  
HETATM   21  C   UNL     1      -7.230  20.944  66.477  1.00  0.00    -0.142 A  
HETATM   22  C   UNL     1      -8.082  19.917  66.900  1.00  0.00    -0.346 A  
ENDBRANCH  14  17
ENDBRANCH  12  13
ENDBRANCH  11  12
ENDBRANCH  10  11
ENDBRANCH   9  10
ENDBRANCH   8   9
ENDBRANCH   7   8
ENDBRANCH   4   7
TORSDOF 8
ENDMDL
MODEL      247
REMARK 921   NORMALIZED FREE ENERGY PREDICTED BY IDOCK:   -3.19 KCAL/MOL
REMARK 922        TOTAL FREE ENERGY PREDICTED BY IDOCK:   -5.47 KCAL/MOL
REMARK 923 INTER-LIGAND FREE ENERGY PREDICTED BY IDOCK:   -4.64 KCAL/MOL
REMARK 924 INTRA-LIGAND FREE ENERGY PREDICTED BY IDOCK:   -0.84 KCAL/MOL
REMARK 927      BINDING AFFINITY PREDICTED BY RF-SCORE:    0.00 PKD
ROOT
HETATM    1  O   UNL     1      -6.444  12.817  70.582  1.00  0.00    -0.462 OA 
HETATM    2  N   UNL     1      -6.917  13.597  69.516  1.00  0.00    -0.311 N  
HETATM    3  H   UNL     1      -6.188  13.231  71.398  1.00  0.00     0.000 HD 
HETATM    4  C   UNL     1      -7.285  13.002  68.343  1.00  0.00    -0.110 C  
HETATM    5  H   UNL     1      -6.985  14.610  69.617  1.00  0.00     0.000 HD 
HETATM    6  O   UNL     1      -7.717  13.681  67.413  1.00  0.00    -0.170 OA 
ENDROOT
BRANCH   4   7
HETATM    7  C   UNL     1      -7.120  11.496  68.280  1.00  0.00    -0.080 C  
BRANCH   7   8
HETATM    8  C   UNL     1      -8.451  10.783  68.060  1.00  0.00    -0.124 C  
BRANCH   8   9
HETATM    9  C   UNL     1      -8.702  10.535  66.577  1.00  0.00    -0.145 C  
BRANCH   9  10
HETATM   10  C   UNL     1      -7.880   9.349  66.062  1.00  0.00    -0.099 C  
BRANCH  10  11
HETATM   11  C   UNL     1      -8.819   8.244  65.604  1.00  0.00    -0.172 C  
BRANCH  11  12
HETATM   12  C   UNL     1      -8.890   7.047  66.556  1.00  0.00    -0.151 C  
BRANCH  12  13
HETATM   13  C   UNL     1     -10.086   7.236  67.477  1.00  0.00    -0.193 C  
HETATM   14  N   UNL     1      -9.750   7.535  68.786  1.00  0.00    -0.149 N  
HETATM   15  O   UNL     1     -11.232   7.141  67.040  1.00  0.00    -0.277 OA 
HETATM   16  H   UNL     1      -8.760   7.580  69.026  1.00  0.00     0.000 HD 
BRANCH  14  17
HETATM   17  C   UNL     1     -10.695   7.783  69.812  1.00  0.00    -0.236 A  
HETATM   18  C   UNL     1     -10.913   9.056  70.350  1.00  0.00    -0.283 A  
HETATM   19  C   UNL     1     -11.770   9.242  71.435  1.00  0.00    -0.431 A  
HETATM   20  C   UNL     1     -12.443   8.156  71.979  1.00  0.00    -0.375 A  
HETATM   21  C   UNL     1     -12.282   6.891  71.415  1.00  0.00    -0.418 A  
HETATM   22  C   UNL     1     -11.420   6.705  70.327  1.00  0.00    -0.449 A  
ENDBRANCH  14  17
ENDBRANCH  12  13
ENDBRANCH  11  12
ENDBRANCH  10  11
ENDBRANCH   9  10
ENDBRANCH   8   9
ENDBRANCH   7   8
ENDBRANCH   4   7
TORSDOF 8
ENDMDL
MODEL      248
REMARK 921   NORMALIZED FREE ENERGY PREDICTED BY IDOCK:   -3.19 KCAL/MOL
REMARK 922        TOTAL FREE ENERGY PREDICTED BY IDOCK:   -5.47 KCAL/MOL
REMARK 923 INTER-LIGAND FREE ENERGY PREDICTED BY IDOCK:   -5.52 KCAL/MOL
REMARK 924 INTRA-LIGAND FREE ENERGY PREDICTED BY IDOCK:    0.05 KCAL/MOL
REMARK 927      BINDING AFFINITY PREDICTED BY RF-SCORE:    0.00 PKD
ROOT
HETATM    1  O   UNL     1     -10.665  11.263  64.383  1.00  0.00    -0.338 OA 
HETATM    2  N   UNL     1     -10.087  12.434  64.897  1.00  0.00    -0.374 N  
HETATM    3  H   UNL     1     -10.883  11.205  63.460  1.00  0.00     0.000 HD 
HETATM    4  C   UNL     1      -9.773  12.517  66.224  1.00  0.00    -0.254 C  
HETATM    5  H   UNL     1      -9.900  13.223  64.279  1.00  0.00     0.000 HD 
HETATM    6  O   UNL     1      -9.249  13.535  66.673  1.00  0.00    -0.248 OA 
ENDROOT
BRANCH   4   7
HETATM    7  C   UNL     1     -10.114  11.303  67.065  1.00  0.00    -0.238 C  
BRANCH   7   8
HETATM    8  C   UNL     1     -11.534  11.372  67.621  1.00  0.00    -0.348 C  
BRANCH   8   9
HETATM    9  C   UNL     1     -11.869  12.781  68.095  1.00  0.00    -0.372 C  
BRANCH   9  10
HETATM   10  C   UNL     1     -11.694  12.918  69.610  1.00  0.00    -0.367 C  
BRANCH  10  11
HETATM   11  C   UNL     1     -12.587  14.035  70.124  1.00  0.00    -0.310 C  
BRANCH  11  12
HETATM   12  C   UNL     1     -11.827  15.269  70.619  1.00  0.00    -0.376 C  
BRANCH  12  13
HETATM   13  C   UNL     1     -11.130  15.912  69.430  1.00  0.00    -0.322 C  
HETATM   14  N   UNL     1      -9.754  15.991  69.556  1.00  0.00    -0.245 N  
HETATM   15  O   UNL     1     -11.778  16.292  68.456  1.00  0.00    -0.302 OA 
HETATM   16  H   UNL     1      -9.333  15.645  70.418  1.00  0.00     0.000 HD 
BRANCH  14  17
HETATM   17  C   UNL     1      -8.894  16.522  68.563  1.00  0.00    -0.228 A  
HETATM   18  C   UNL     1      -9.365  17.066  67.363  1.00  0.00    -0.239 A  
HETATM   19  C   UNL     1      -8.484  17.477  66.363  1.00  0.00    -0.287 A  
HETATM   20  C   UNL     1      -7.114  17.373  66.564  1.00  0.00    -0.300 A  
HETATM   21  C   UNL     1      -6.628  16.891  67.778  1.00  0.00    -0.158 A  
HETATM   22  C   UNL     1      -7.513  16.476  68.781  1.00  0.00    -0.216 A  
ENDBRANCH  14  17
ENDBRANCH  12  13
ENDBRANCH  11  12
ENDBRANCH  10  11
ENDBRANCH   9  10
ENDBRANCH   8   9
ENDBRANCH   7   8
ENDBRANCH   4   7
TORSDOF 8
ENDMDL
MODEL      249
REMARK 921   NORMALIZED FREE ENERGY PREDICTED BY IDOCK:   -3.16 KCAL/MOL
REMARK 922        TOTAL FREE ENERGY PREDICTED BY IDOCK:   -5.43 KCAL/MOL
REMARK 923 INTER-LIGAND FREE ENERGY PREDICTED BY IDOCK:   -4.68 KCAL/MOL
REMARK 924 INTRA-LIGAND FREE ENERGY PREDICTED BY IDOCK:   -0.75 KCAL/MOL
REMARK 927      BINDING AFFINITY PREDICTED BY RF-SCORE:    0.00 PKD
ROOT
HETATM    1  O   UNL     1      -8.382   8.851  63.356  1.00  0.00    -0.184 OA 
HETATM    2  N   UNL     1      -7.317   8.511  64.203  1.00  0.00    -0.099 N  
HETATM    3  H   UNL     1      -8.208   9.198  62.489  1.00  0.00     0.000 HD 
HETATM    4  C   UNL     1      -7.566   8.011  65.450  1.00  0.00    -0.083 C  
HETATM    5  H   UNL     1      -6.355   8.637  63.888  1.00  0.00     0.000 HD 
HETATM    6  O   UNL     1      -6.635   7.694  66.188  1.00  0.00    -0.048 OA 
ENDROOT
BRANCH   4   7
HETATM    7  C   UNL     1      -9.027   7.887  65.836  1.00  0.00    -0.166 C  
BRANCH   7   8
HETATM    8  C   UNL     1      -9.250   6.812  66.896  1.00  0.00    -0.162 C  
BRANCH   8   9
HETATM    9  C   UNL     1      -9.782   5.527  66.271  1.00  0.00    -0.172 C  
BRANCH   9  10
HETATM   10  C   UNL     1      -9.887   4.404  67.306  1.00  0.00    -0.207 C  
BRANCH  10  11
HETATM   11  C   UNL     1      -9.185   4.828  68.587  1.00  0.00    -0.168 C  
BRANCH  11  12
HETATM   12  C   UNL     1      -9.766   4.202  69.857  1.00  0.00    -0.280 C  
BRANCH  12  13
HETATM   13  C   UNL     1     -10.332   5.316  70.726  1.00  0.00    -0.239 C  
HETATM   14  N   UNL     1     -11.209   6.158  70.065  1.00  0.00    -0.395 N  
HETATM   15  O   UNL     1     -10.019   5.402  71.913  1.00  0.00    -0.173 OA 
HETATM   16  H   UNL     1     -11.383   5.985  69.076  1.00  0.00     0.000 HD 
BRANCH  14  17
HETATM   17  C   UNL     1     -11.882   7.244  70.678  1.00  0.00    -0.252 A  
HETATM   18  C   UNL     1     -11.327   8.525  70.769  1.00  0.00    -0.296 A  
HETATM   19  C   UNL     1     -11.970   9.541  71.476  1.00  0.00    -0.475 A  
HETATM   20  C   UNL     1     -13.196   9.292  72.081  1.00  0.00    -0.535 A  
HETATM   21  C   UNL     1     -13.790   8.039  71.948  1.00  0.00    -0.418 A  
HETATM   22  C   UNL     1     -13.142   7.019  71.239  1.00  0.00    -0.329 A  
ENDBRANCH  14  17
ENDBRANCH  12  13
ENDBRANCH  11  12
ENDBRANCH  10  11
ENDBRANCH   9  10
ENDBRANCH   8   9
ENDBRANCH   7   8
ENDBRANCH   4   7
TORSDOF 8
ENDMDL
MODEL      250
REMARK 921   NORMALIZED FREE ENERGY PREDICTED BY IDOCK:   -3.15 KCAL/MOL
REMARK 922        TOTAL FREE ENERGY PREDICTED BY IDOCK:   -5.41 KCAL/MOL
REMARK 923 INTER-LIGAND FREE ENERGY PREDICTED BY IDOCK:   -5.20 KCAL/MOL
REMARK 924 INTRA-LIGAND FREE ENERGY PREDICTED BY IDOCK:   -0.21 KCAL/MOL
REMARK 927      BINDING AFFINITY PREDICTED BY RF-SCORE:    0.00 PKD
ROOT
HETATM    1  O   UNL     1     -14.406  15.587  71.450  1.00  0.00    -0.585 OA 
HETATM    2  N   UNL     1     -13.074  15.965  71.219  1.00  0.00    -0.565 N  
HETATM    3  H   UNL     1     -15.016  16.205  71.835  1.00  0.00     0.000 HD 
HETATM    4  C   UNL     1     -12.197  15.077  70.666  1.00  0.00    -0.326 C  
HETATM    5  H   UNL     1     -12.762  16.905  71.465  1.00  0.00     0.000 HD 
HETATM    6  O   UNL     1     -11.034  15.412  70.445  1.00  0.00    -0.290 OA 
ENDROOT
BRANCH   4   7
HETATM    7  C   UNL     1     -12.748  13.698  70.363  1.00  0.00    -0.210 C  
BRANCH   7   8
HETATM    8  C   UNL     1     -13.241  12.989  71.621  1.00  0.00    -0.426 C  
BRANCH   8   9
HETATM    9  C   UNL     1     -12.391  11.762  71.928  1.00  0.00     0.410 C  
BRANCH   9  10
HETATM   10  C   UNL     1     -13.162  10.466  71.658  1.00  0.00    -0.502 C  
BRANCH  10  11
HETATM   11  C   UNL     1     -12.588   9.782  70.428  1.00  0.00     0.015 C  
BRANCH  11  12
HETATM   12  C   UNL     1     -11.181  10.252  70.047  1.00  0.00    -0.376 C  
BRANCH  12  13
HETATM   13  C   UNL     1     -10.442   9.087  69.408  1.00  0.00    -0.222 C  
HETATM   14  N   UNL     1     -11.210   7.946  69.252  1.00  0.00    -0.420 N  
HETATM   15  O   UNL     1      -9.269   9.209  69.058  1.00  0.00    -0.141 OA 
HETATM   16  H   UNL     1     -12.172   7.969  69.590  1.00  0.00     0.000 HD 
BRANCH  14  17
HETATM   17  C   UNL     1     -10.744   6.750  68.654  1.00  0.00    -0.234 A  
HETATM   18  C   UNL     1     -10.959   6.442  67.306  1.00  0.00    -0.474 A  
HETATM   19  C   UNL     1     -10.583   5.207  66.780  1.00  0.00    -0.266 A  
HETATM   20  C   UNL     1      -9.960   4.269  67.594  1.00  0.00    -0.084 A  
HETATM   21  C   UNL     1      -9.684   4.584  68.924  1.00  0.00    -0.224 A  
HETATM   22  C   UNL     1     -10.064   5.824  69.451  1.00  0.00    -0.277 A  
ENDBRANCH  14  17
ENDBRANCH  12  13
ENDBRANCH  11  12
ENDBRANCH  10  11
ENDBRANCH   9  10
ENDBRANCH   8   9
ENDBRANCH   7   8
ENDBRANCH   4   7
TORSDOF 8
ENDMDL
MODEL      251
REMARK 921   NORMALIZED FREE ENERGY PREDICTED BY IDOCK:   -3.14 KCAL/MOL
REMARK 922        TOTAL FREE ENERGY PREDICTED BY IDOCK:   -5.40 KCAL/MOL
REMARK 923 INTER-LIGAND FREE ENERGY PREDICTED BY IDOCK:   -4.95 KCAL/MOL
REMARK 924 INTRA-LIGAND FREE ENERGY PREDICTED BY IDOCK:   -0.45 KCAL/MOL
REMARK 927      BINDING AFFINITY PREDICTED BY RF-SCORE:    0.00 PKD
ROOT
HETATM    1  O   UNL     1      -6.698  12.334  70.487  1.00  0.00    -0.304 OA 
HETATM    2  N   UNL     1      -7.393  12.537  69.285  1.00  0.00    -0.325 N  
HETATM    3  H   UNL     1      -6.449  13.078  71.024  1.00  0.00     0.000 HD 
HETATM    4  C   UNL     1      -7.752  11.468  68.514  1.00  0.00    -0.134 C  
HETATM    5  H   UNL     1      -7.630  13.483  68.987  1.00  0.00     0.000 HD 
HETATM    6  O   UNL     1      -8.377  11.641  67.469  1.00  0.00    -0.139 OA 
ENDROOT
BRANCH   4   7
HETATM    7  C   UNL     1      -7.329  10.106  69.027  1.00  0.00    -0.087 C  
BRANCH   7   8
HETATM    8  C   UNL     1      -8.313   9.011  68.622  1.00  0.00    -0.123 C  
BRANCH   8   9
HETATM    9  C   UNL     1      -9.086   8.495  69.830  1.00  0.00    -0.150 C  
BRANCH   9  10
HETATM   10  C   UNL     1      -9.705   9.645  70.631  1.00  0.00    -0.239 C  
BRANCH  10  11
HETATM   11  C   UNL     1     -11.183   9.758  70.295  1.00  0.00    -0.347 C  
BRANCH  11  12
HETATM   12  C   UNL     1     -11.800  11.119  70.627  1.00  0.00    -0.403 C  
BRANCH  12  13
HETATM   13  C   UNL     1     -11.614  12.036  69.428  1.00  0.00    -0.330 C  
HETATM   14  N   UNL     1     -11.313  13.346  69.758  1.00  0.00    -0.483 N  
HETATM   15  O   UNL     1     -11.713  11.596  68.283  1.00  0.00    -0.350 OA 
HETATM   16  H   UNL     1     -11.265  13.589  70.747  1.00  0.00     0.000 HD 
BRANCH  14  17
HETATM   17  C   UNL     1     -11.067  14.369  68.810  1.00  0.00    -0.257 A  
HETATM   18  C   UNL     1     -10.286  14.171  67.666  1.00  0.00    -0.241 A  
HETATM   19  C   UNL     1      -9.975  15.230  66.814  1.00  0.00    -0.249 A  
HETATM   20  C   UNL     1     -10.467  16.502  67.082  1.00  0.00    -0.300 A  
HETATM   21  C   UNL     1     -11.297  16.702  68.184  1.00  0.00    -0.095 A  
HETATM   22  C   UNL     1     -11.607  15.638  69.040  1.00  0.00    -0.396 A  
ENDBRANCH  14  17
ENDBRANCH  12  13
ENDBRANCH  11  12
ENDBRANCH  10  11
ENDBRANCH   9  10
ENDBRANCH   8   9
ENDBRANCH   7   8
ENDBRANCH   4   7
TORSDOF 8
ENDMDL
MODEL      252
REMARK 921   NORMALIZED FREE ENERGY PREDICTED BY IDOCK:   -3.13 KCAL/MOL
REMARK 922        TOTAL FREE ENERGY PREDICTED BY IDOCK:   -5.37 KCAL/MOL
REMARK 923 INTER-LIGAND FREE ENERGY PREDICTED BY IDOCK:   -5.01 KCAL/MOL
REMARK 924 INTRA-LIGAND FREE ENERGY PREDICTED BY IDOCK:   -0.37 KCAL/MOL
REMARK 927      BINDING AFFINITY PREDICTED BY RF-SCORE:    0.00 PKD
ROOT
HETATM    1  O   UNL     1     -10.024  13.733  69.169  1.00  0.00    -0.429 OA 
HETATM    2  N   UNL     1      -9.287  14.841  69.614  1.00  0.00    -0.421 N  
HETATM    3  H   UNL     1     -10.796  13.452  69.647  1.00  0.00     0.000 HD 
HETATM    4  C   UNL     1      -8.177  15.244  68.928  1.00  0.00    -0.186 C  
HETATM    5  H   UNL     1      -9.581  15.346  70.450  1.00  0.00     0.000 HD 
HETATM    6  O   UNL     1      -7.540  16.227  69.305  1.00  0.00    -0.232 OA 
ENDROOT
BRANCH   4   7
HETATM    7  C   UNL     1      -7.805  14.413  67.716  1.00  0.00    -0.169 C  
BRANCH   7   8
HETATM    8  C   UNL     1      -6.729  13.381  68.038  1.00  0.00    -0.131 C  
BRANCH   8   9
HETATM    9  C   UNL     1      -6.988  12.070  67.304  1.00  0.00    -0.146 C  
BRANCH   9  10
HETATM   10  C   UNL     1      -8.408  12.022  66.732  1.00  0.00    -0.135 C  
BRANCH  10  11
HETATM   11  C   UNL     1      -8.998  10.639  66.957  1.00  0.00    -0.145 C  
BRANCH  11  12
HETATM   12  C   UNL     1     -10.527  10.596  66.923  1.00  0.00    -0.304 C  
BRANCH  12  13
HETATM   13  C   UNL     1     -11.034  10.396  68.343  1.00  0.00    -0.264 C  
HETATM   14  N   UNL     1     -10.864   9.112  68.830  1.00  0.00    -0.420 N  
HETATM   15  O   UNL     1     -11.525  11.334  68.969  1.00  0.00    -0.244 OA 
HETATM   16  H   UNL     1     -10.447   8.418  68.209  1.00  0.00     0.000 HD 
BRANCH  14  17
HETATM   17  C   UNL     1     -11.230   8.700  70.135  1.00  0.00    -0.146 A  
HETATM   18  C   UNL     1     -12.030   9.479  70.978  1.00  0.00    -0.407 A  
HETATM   19  C   UNL     1     -12.278   9.092  72.295  1.00  0.00    -0.387 A  
HETATM   20  C   UNL     1     -11.748   7.901  72.778  1.00  0.00    -0.338 A  
HETATM   21  C   UNL     1     -11.001   7.085  71.931  1.00  0.00    -0.263 A  
HETATM   22  C   UNL     1     -10.751   7.475  70.609  1.00  0.00    -0.239 A  
ENDBRANCH  14  17
ENDBRANCH  12  13
ENDBRANCH  11  12
ENDBRANCH  10  11
ENDBRANCH   9  10
ENDBRANCH   8   9
ENDBRANCH   7   8
ENDBRANCH   4   7
TORSDOF 8
ENDMDL
MODEL      253
REMARK 921   NORMALIZED FREE ENERGY PREDICTED BY IDOCK:   -3.10 KCAL/MOL
REMARK 922        TOTAL FREE ENERGY PREDICTED BY IDOCK:   -5.33 KCAL/MOL
REMARK 923 INTER-LIGAND FREE ENERGY PREDICTED BY IDOCK:   -4.55 KCAL/MOL
REMARK 924 INTRA-LIGAND FREE ENERGY PREDICTED BY IDOCK:   -0.78 KCAL/MOL
REMARK 927      BINDING AFFINITY PREDICTED BY RF-SCORE:    0.00 PKD
ROOT
HETATM    1  O   UNL     1     -14.401   6.780  72.406  1.00  0.00    -0.615 OA 
HETATM    2  N   UNL     1     -13.921   8.068  72.122  1.00  0.00    -0.549 N  
HETATM    3  H   UNL     1     -15.336   6.616  72.434  1.00  0.00     0.000 HD 
HETATM    4  C   UNL     1     -12.576   8.303  72.081  1.00  0.00    -0.337 C  
HETATM    5  H   UNL     1     -14.577   8.828  71.945  1.00  0.00     0.000 HD 
HETATM    6  O   UNL     1     -12.152   9.426  71.814  1.00  0.00    -0.354 OA 
ENDROOT
BRANCH   4   7
HETATM    7  C   UNL     1     -11.683   7.116  72.385  1.00  0.00    -0.261 C  
BRANCH   7   8
HETATM    8  C   UNL     1     -10.556   7.480  73.347  1.00  0.00    -0.409 C  
BRANCH   8   9
HETATM    9  C   UNL     1      -9.195   7.131  72.754  1.00  0.00    -0.166 C  
BRANCH   9  10
HETATM   10  C   UNL     1      -9.336   6.224  71.528  1.00  0.00    -0.155 C  
BRANCH  10  11
HETATM   11  C   UNL     1      -8.427   6.728  70.419  1.00  0.00    -0.135 C  
BRANCH  11  12
HETATM   12  C   UNL     1      -9.003   7.899  69.619  1.00  0.00    -0.146 C  
BRANCH  12  13
HETATM   13  C   UNL     1      -9.451   7.379  68.262  1.00  0.00    -0.142 C  
HETATM   14  N   UNL     1      -8.774   6.250  67.836  1.00  0.00    -0.115 N  
HETATM   15  O   UNL     1     -10.357   7.940  67.646  1.00  0.00    -0.210 OA 
HETATM   16  H   UNL     1      -8.036   5.882  68.437  1.00  0.00     0.000 HD 
BRANCH  14  17
HETATM   17  C   UNL     1      -9.041   5.573  66.621  1.00  0.00    -0.126 A  
HETATM   18  C   UNL     1     -10.151   4.740  66.444  1.00  0.00    -0.291 A  
HETATM   19  C   UNL     1     -10.321   4.004  65.272  1.00  0.00    -0.121 A  
HETATM   20  C   UNL     1      -9.391   4.114  64.246  1.00  0.00    -0.159 A  
HETATM   21  C   UNL     1      -8.312   4.985  64.383  1.00  0.00    -0.136 A  
HETATM   22  C   UNL     1      -8.141   5.722  65.561  1.00  0.00    -0.128 A  
ENDBRANCH  14  17
ENDBRANCH  12  13
ENDBRANCH  11  12
ENDBRANCH  10  11
ENDBRANCH   9  10
ENDBRANCH   8   9
ENDBRANCH   7   8
ENDBRANCH   4   7
TORSDOF 8
ENDMDL
MODEL      254
REMARK 921   NORMALIZED FREE ENERGY PREDICTED BY IDOCK:   -3.10 KCAL/MOL
REMARK 922        TOTAL FREE ENERGY PREDICTED BY IDOCK:   -5.33 KCAL/MOL
REMARK 923 INTER-LIGAND FREE ENERGY PREDICTED BY IDOCK:   -4.59 KCAL/MOL
REMARK 924 INTRA-LIGAND FREE ENERGY PREDICTED BY IDOCK:   -0.74 KCAL/MOL
REMARK 927      BINDING AFFINITY PREDICTED BY RF-SCORE:    0.00 PKD
ROOT
HETATM    1  O   UNL     1     -12.853   9.249  70.593  1.00  0.00    -0.504 OA 
HETATM    2  N   UNL     1     -12.780   8.272  71.598  1.00  0.00    -0.320 N  
HETATM    3  H   UNL     1     -13.276  10.082  70.769  1.00  0.00     0.000 HD 
HETATM    4  C   UNL     1     -12.172   7.076  71.346  1.00  0.00    -0.366 C  
HETATM    5  H   UNL     1     -13.182   8.456  72.517  1.00  0.00     0.000 HD 
HETATM    6  O   UNL     1     -12.090   6.225  72.230  1.00  0.00    -0.304 OA 
ENDROOT
BRANCH   4   7
HETATM    7  C   UNL     1     -11.632   6.887  69.942  1.00  0.00    -0.255 C  
BRANCH   7   8
HETATM    8  C   UNL     1     -10.178   6.421  69.945  1.00  0.00    -0.224 C  
BRANCH   8   9
HETATM    9  C   UNL     1      -9.897   5.492  68.770  1.00  0.00    -0.206 C  
BRANCH   9  10
HETATM   10  C   UNL     1      -8.819   6.068  67.847  1.00  0.00    -0.110 C  
BRANCH  10  11
HETATM   11  C   UNL     1      -8.244   7.331  68.468  1.00  0.00    -0.125 C  
BRANCH  11  12
HETATM   12  C   UNL     1      -7.387   8.165  67.513  1.00  0.00    -0.093 C  
BRANCH  12  13
HETATM   13  C   UNL     1      -8.023   9.540  67.375  1.00  0.00    -0.106 C  
HETATM   14  N   UNL     1      -9.371   9.574  67.685  1.00  0.00    -0.124 N  
HETATM   15  O   UNL     1      -7.346  10.510  67.035  1.00  0.00    -0.093 OA 
HETATM   16  H   UNL     1      -9.822   8.699  67.948  1.00  0.00     0.000 HD 
BRANCH  14  17
HETATM   17  C   UNL     1     -10.164  10.748  67.658  1.00  0.00    -0.189 A  
HETATM   18  C   UNL     1     -10.415  11.468  66.485  1.00  0.00    -0.284 A  
HETATM   19  C   UNL     1     -11.106  12.678  66.516  1.00  0.00    -0.320 A  
HETATM   20  C   UNL     1     -11.581  13.173  67.724  1.00  0.00    -0.379 A  
HETATM   21  C   UNL     1     -11.392  12.437  68.893  1.00  0.00    -0.342 A  
HETATM   22  C   UNL     1     -10.696  11.223  68.861  1.00  0.00    -0.246 A  
ENDBRANCH  14  17
ENDBRANCH  12  13
ENDBRANCH  11  12
ENDBRANCH  10  11
ENDBRANCH   9  10
ENDBRANCH   8   9
ENDBRANCH   7   8
ENDBRANCH   4   7
TORSDOF 8
ENDMDL
MODEL      255
REMARK 921   NORMALIZED FREE ENERGY PREDICTED BY IDOCK:   -3.08 KCAL/MOL
REMARK 922        TOTAL FREE ENERGY PREDICTED BY IDOCK:   -5.30 KCAL/MOL
REMARK 923 INTER-LIGAND FREE ENERGY PREDICTED BY IDOCK:   -5.09 KCAL/MOL
REMARK 924 INTRA-LIGAND FREE ENERGY PREDICTED BY IDOCK:   -0.21 KCAL/MOL
REMARK 927      BINDING AFFINITY PREDICTED BY RF-SCORE:    0.00 PKD
ROOT
HETATM    1  O   UNL     1     -10.784  13.786  68.519  1.00  0.00    -0.248 OA 
HETATM    2  N   UNL     1     -10.026  14.347  67.480  1.00  0.00    -0.223 N  
HETATM    3  H   UNL     1     -10.433  13.757  69.402  1.00  0.00     0.000 HD 
HETATM    4  C   UNL     1     -10.530  14.388  66.211  1.00  0.00    -0.290 C  
HETATM    5  H   UNL     1      -9.098  14.725  67.672  1.00  0.00     0.000 HD 
HETATM    6  O   UNL     1      -9.876  14.896  65.302  1.00  0.00    -0.327 OA 
ENDROOT
BRANCH   4   7
HETATM    7  C   UNL     1     -11.904  13.777  66.021  1.00  0.00    -0.415 C  
BRANCH   7   8
HETATM    8  C   UNL     1     -11.861  12.251  66.053  1.00  0.00    -0.409 C  
BRANCH   8   9
HETATM    9  C   UNL     1     -10.882  11.708  65.018  1.00  0.00    -0.346 C  
BRANCH   9  10
HETATM   10  C   UNL     1     -10.025  10.579  65.598  1.00  0.00    -0.332 C  
BRANCH  10  11
HETATM   11  C   UNL     1     -10.368  10.387  67.067  1.00  0.00    -0.295 C  
BRANCH  11  12
HETATM   12  C   UNL     1      -9.845   9.080  67.667  1.00  0.00    -0.220 C  
BRANCH  12  13
HETATM   13  C   UNL     1     -10.422   8.929  69.067  1.00  0.00    -0.214 C  
HETATM   14  N   UNL     1     -10.005   7.789  69.731  1.00  0.00    -0.186 N  
HETATM   15  O   UNL     1     -11.173   9.788  69.528  1.00  0.00    -0.218 OA 
HETATM   16  H   UNL     1      -9.384   7.149  69.237  1.00  0.00     0.000 HD 
BRANCH  14  17
HETATM   17  C   UNL     1     -10.387   7.455  71.054  1.00  0.00    -0.195 A  
HETATM   18  C   UNL     1     -10.284   8.352  72.122  1.00  0.00    -0.390 A  
HETATM   19  C   UNL     1     -10.565   7.953  73.429  1.00  0.00    -0.108 A  
HETATM   20  C   UNL     1     -10.981   6.651  73.679  1.00  0.00    -0.028 A  
HETATM   21  C   UNL     1     -11.147   5.763  72.618  1.00  0.00    -0.325 A  
HETATM   22  C   UNL     1     -10.863   6.165  71.306  1.00  0.00    -0.322 A  
ENDBRANCH  14  17
ENDBRANCH  12  13
ENDBRANCH  11  12
ENDBRANCH  10  11
ENDBRANCH   9  10
ENDBRANCH   8   9
ENDBRANCH   7   8
ENDBRANCH   4   7
TORSDOF 8
ENDMDL
MODEL      256
REMARK 921   NORMALIZED FREE ENERGY PREDICTED BY IDOCK:   -3.07 KCAL/MOL
REMARK 922        TOTAL FREE ENERGY PREDICTED BY IDOCK:   -5.30 KCAL/MOL
REMARK 923 INTER-LIGAND FREE ENERGY PREDICTED BY IDOCK:   -5.78 KCAL/MOL
REMARK 924 INTRA-LIGAND FREE ENERGY PREDICTED BY IDOCK:    0.48 KCAL/MOL
REMARK 927      BINDING AFFINITY PREDICTED BY RF-SCORE:    0.00 PKD
ROOT
HETATM    1  O   UNL     1     -10.171  18.933  69.466  1.00  0.00    -0.410 OA 
HETATM    2  N   UNL     1     -10.445  19.738  68.349  1.00  0.00    -0.481 N  
HETATM    3  H   UNL     1     -10.649  19.065  70.276  1.00  0.00     0.000 HD 
HETATM    4  C   UNL     1      -9.757  19.549  67.184  1.00  0.00    -0.342 C  
HETATM    5  H   UNL     1     -11.158  20.465  68.407  1.00  0.00     0.000 HD 
HETATM    6  O   UNL     1     -10.008  20.240  66.198  1.00  0.00    -0.429 OA 
ENDROOT
BRANCH   4   7
HETATM    7  C   UNL     1      -8.699  18.463  67.205  1.00  0.00    -0.260 C  
BRANCH   7   8
HETATM    8  C   UNL     1      -9.234  17.131  66.687  1.00  0.00    -0.280 C  
BRANCH   8   9
HETATM    9  C   UNL     1     -10.646  17.285  66.134  1.00  0.00    -0.204 C  
BRANCH   9  10
HETATM   10  C   UNL     1     -10.896  16.329  64.964  1.00  0.00    -0.337 C  
BRANCH  10  11
HETATM   11  C   UNL     1     -10.774  14.893  65.449  1.00  0.00    -0.391 C  
BRANCH  11  12
HETATM   12  C   UNL     1     -11.681  13.903  64.714  1.00  0.00    -0.399 C  
BRANCH  12  13
HETATM   13  C   UNL     1     -10.884  12.638  64.434  1.00  0.00    -0.356 C  
HETATM   14  N   UNL     1     -10.430  11.993  65.571  1.00  0.00    -0.259 N  
HETATM   15  O   UNL     1     -10.706  12.255  63.279  1.00  0.00    -0.427 OA 
HETATM   16  H   UNL     1     -10.638  12.416  66.475  1.00  0.00     0.000 HD 
BRANCH  14  17
HETATM   17  C   UNL     1      -9.694  10.782  65.557  1.00  0.00    -0.239 A  
HETATM   18  C   UNL     1      -9.214  10.199  64.380  1.00  0.00    -0.306 A  
HETATM   19  C   UNL     1      -8.591   8.952  64.395  1.00  0.00    -0.140 A  
HETATM   20  C   UNL     1      -8.415   8.281  65.599  1.00  0.00    -0.173 A  
HETATM   21  C   UNL     1      -8.833   8.877  66.788  1.00  0.00    -0.142 A  
HETATM   22  C   UNL     1      -9.460  10.129  66.771  1.00  0.00    -0.205 A  
ENDBRANCH  14  17
ENDBRANCH  12  13
ENDBRANCH  11  12
ENDBRANCH  10  11
ENDBRANCH   9  10
ENDBRANCH   8   9
ENDBRANCH   7   8
ENDBRANCH   4   7
TORSDOF 8
ENDMDL
MODEL      257
REMARK 921   NORMALIZED FREE ENERGY PREDICTED BY IDOCK:   -3.07 KCAL/MOL
REMARK 922        TOTAL FREE ENERGY PREDICTED BY IDOCK:   -5.30 KCAL/MOL
REMARK 923 INTER-LIGAND FREE ENERGY PREDICTED BY IDOCK:   -5.13 KCAL/MOL
REMARK 924 INTRA-LIGAND FREE ENERGY PREDICTED BY IDOCK:   -0.16 KCAL/MOL
REMARK 927      BINDING AFFINITY PREDICTED BY RF-SCORE:    0.00 PKD
ROOT
HETATM    1  O   UNL     1     -14.087  15.711  71.056  1.00  0.00    -0.788 OA 
HETATM    2  N   UNL     1     -13.211  15.508  69.978  1.00  0.00    -0.547 N  
HETATM    3  H   UNL     1     -14.591  16.515  71.115  1.00  0.00     0.000 HD 
HETATM    4  C   UNL     1     -12.488  14.353  69.893  1.00  0.00    -0.261 C  
HETATM    5  H   UNL     1     -13.115  16.224  69.258  1.00  0.00     0.000 HD 
HETATM    6  O   UNL     1     -11.733  14.164  68.940  1.00  0.00    -0.292 OA 
ENDROOT
BRANCH   4   7
HETATM    7  C   UNL     1     -12.678  13.363  71.025  1.00  0.00    -0.387 C  
BRANCH   7   8
HETATM    8  C   UNL     1     -12.427  11.926  70.578  1.00  0.00    -0.301 C  
BRANCH   8   9
HETATM    9  C   UNL     1     -13.156  10.936  71.479  1.00  0.00    -0.503 C  
BRANCH   9  10
HETATM   10  C   UNL     1     -12.219   9.824  71.961  1.00  0.00    -0.271 C  
BRANCH  10  11
HETATM   11  C   UNL     1     -12.729   8.481  71.464  1.00  0.00    -0.340 C  
BRANCH  11  12
HETATM   12  C   UNL     1     -11.688   7.359  71.508  1.00  0.00    -0.314 C  
BRANCH  12  13
HETATM   13  C   UNL     1     -10.801   7.478  70.278  1.00  0.00    -0.246 C  
HETATM   14  N   UNL     1      -9.586   8.097  70.514  1.00  0.00    -0.169 N  
HETATM   15  O   UNL     1     -11.172   7.026  69.196  1.00  0.00    -0.142 OA 
HETATM   16  H   UNL     1      -9.398   8.435  71.457  1.00  0.00     0.000 HD 
BRANCH  14  17
HETATM   17  C   UNL     1      -8.588   8.290  69.527  1.00  0.00    -0.134 A  
HETATM   18  C   UNL     1      -8.244   7.307  68.594  1.00  0.00    -0.125 A  
HETATM   19  C   UNL     1      -7.181   7.493  67.710  1.00  0.00    -0.094 A  
HETATM   20  C   UNL     1      -6.463   8.682  67.733  1.00  0.00    -0.061 A  
HETATM   21  C   UNL     1      -6.832   9.695  68.616  1.00  0.00    -0.056 A  
HETATM   22  C   UNL     1      -7.899   9.507  69.504  1.00  0.00    -0.103 A  
ENDBRANCH  14  17
ENDBRANCH  12  13
ENDBRANCH  11  12
ENDBRANCH  10  11
ENDBRANCH   9  10
ENDBRANCH   8   9
ENDBRANCH   7   8
ENDBRANCH   4   7
TORSDOF 8
ENDMDL
MODEL      258
REMARK 921   NORMALIZED FREE ENERGY PREDICTED BY IDOCK:   -3.06 KCAL/MOL
REMARK 922        TOTAL FREE ENERGY PREDICTED BY IDOCK:   -5.28 KCAL/MOL
REMARK 923 INTER-LIGAND FREE ENERGY PREDICTED BY IDOCK:   -4.43 KCAL/MOL
REMARK 924 INTRA-LIGAND FREE ENERGY PREDICTED BY IDOCK:   -0.85 KCAL/MOL
REMARK 927      BINDING AFFINITY PREDICTED BY RF-SCORE:    0.00 PKD
ROOT
HETATM    1  O   UNL     1     -12.427  10.676  68.658  1.00  0.00    -0.788 OA 
HETATM    2  N   UNL     1     -11.598   9.908  69.490  1.00  0.00    -0.456 N  
HETATM    3  H   UNL     1     -13.348  10.456  68.570  1.00  0.00     0.000 HD 
HETATM    4  C   UNL     1     -10.275  10.225  69.617  1.00  0.00    -0.235 C  
HETATM    5  H   UNL     1     -11.983   9.114  70.000  1.00  0.00     0.000 HD 
HETATM    6  O   UNL     1      -9.550   9.565  70.359  1.00  0.00    -0.244 OA 
ENDROOT
BRANCH   4   7
HETATM    7  C   UNL     1      -9.791  11.404  68.796  1.00  0.00    -0.175 C  
BRANCH   7   8
HETATM    8  C   UNL     1      -8.922  10.966  67.621  1.00  0.00    -0.140 C  
BRANCH   8   9
HETATM    9  C   UNL     1      -9.587  11.305  66.291  1.00  0.00    -0.235 C  
BRANCH   9  10
HETATM   10  C   UNL     1     -10.247  10.073  65.666  1.00  0.00    -0.258 C  
BRANCH  10  11
HETATM   11  C   UNL     1      -9.557   8.817  66.172  1.00  0.00    -0.323 C  
BRANCH  11  12
HETATM   12  C   UNL     1      -8.495   8.258  65.222  1.00  0.00    -0.179 C  
BRANCH  12  13
HETATM   13  C   UNL     1      -8.234   6.807  65.593  1.00  0.00    -0.134 C  
HETATM   14  N   UNL     1      -9.381   6.059  65.794  1.00  0.00    -0.359 N  
HETATM   15  O   UNL     1      -7.083   6.379  65.672  1.00  0.00    -0.062 OA 
HETATM   16  H   UNL     1     -10.280   6.532  65.705  1.00  0.00     0.000 HD 
BRANCH  14  17
HETATM   17  C   UNL     1      -9.385   4.680  66.117  1.00  0.00    -0.153 A  
HETATM   18  C   UNL     1      -9.393   4.209  67.434  1.00  0.00    -0.204 A  
HETATM   19  C   UNL     1      -9.285   2.847  67.714  1.00  0.00    -0.250 A  
HETATM   20  C   UNL     1      -9.194   1.933  66.672  1.00  0.00     0.003 A  
HETATM   21  C   UNL     1      -9.246   2.381  65.353  1.00  0.00    -0.081 A  
HETATM   22  C   UNL     1      -9.354   3.749  65.074  1.00  0.00    -0.157 A  
ENDBRANCH  14  17
ENDBRANCH  12  13
ENDBRANCH  11  12
ENDBRANCH  10  11
ENDBRANCH   9  10
ENDBRANCH   8   9
ENDBRANCH   7   8
ENDBRANCH   4   7
TORSDOF 8
ENDMDL
MODEL      259
REMARK 921   NORMALIZED FREE ENERGY PREDICTED BY IDOCK:   -3.06 KCAL/MOL
REMARK 922        TOTAL FREE ENERGY PREDICTED BY IDOCK:   -5.28 KCAL/MOL
REMARK 923 INTER-LIGAND FREE ENERGY PREDICTED BY IDOCK:   -4.59 KCAL/MOL
REMARK 924 INTRA-LIGAND FREE ENERGY PREDICTED BY IDOCK:   -0.69 KCAL/MOL
REMARK 927      BINDING AFFINITY PREDICTED BY RF-SCORE:    0.00 PKD
ROOT
HETATM    1  O   UNL     1      -9.003  11.488  63.837  1.00  0.00    -0.415 OA 
HETATM    2  N   UNL     1      -7.878  10.818  64.343  1.00  0.00    -0.354 N  
HETATM    3  H   UNL     1      -8.892  12.241  63.268  1.00  0.00     0.000 HD 
HETATM    4  C   UNL     1      -8.037   9.735  65.160  1.00  0.00    -0.132 C  
HETATM    5  H   UNL     1      -6.941  11.140  64.100  1.00  0.00     0.000 HD 
HETATM    6  O   UNL     1      -7.054   9.134  65.590  1.00  0.00    -0.080 OA 
ENDROOT
BRANCH   4   7
HETATM    7  C   UNL     1      -9.468   9.352  65.485  1.00  0.00    -0.328 C  
BRANCH   7   8
HETATM    8  C   UNL     1     -10.116  10.333  66.458  1.00  0.00    -0.290 C  
BRANCH   8   9
HETATM    9  C   UNL     1      -9.432  10.287  67.820  1.00  0.00    -0.163 C  
BRANCH   9  10
HETATM   10  C   UNL     1      -9.436  11.662  68.493  1.00  0.00    -0.175 C  
BRANCH  10  11
HETATM   11  C   UNL     1      -8.890  12.701  67.526  1.00  0.00    -0.186 C  
BRANCH  11  12
HETATM   12  C   UNL     1      -7.363  12.818  67.528  1.00  0.00    -0.153 C  
BRANCH  12  13
HETATM   13  C   UNL     1      -6.995  14.293  67.462  1.00  0.00    -0.155 C  
HETATM   14  N   UNL     1      -8.083  15.147  67.443  1.00  0.00    -0.171 N  
HETATM   15  O   UNL     1      -5.816  14.642  67.452  1.00  0.00    -0.342 OA 
HETATM   16  H   UNL     1      -9.015  14.733  67.449  1.00  0.00     0.000 HD 
BRANCH  14  17
HETATM   17  C   UNL     1      -7.984  16.561  67.415  1.00  0.00    -0.152 A  
HETATM   18  C   UNL     1      -7.963  17.295  66.225  1.00  0.00    -0.330 A  
HETATM   19  C   UNL     1      -7.753  18.674  66.233  1.00  0.00    -0.290 A  
HETATM   20  C   UNL     1      -7.588  19.341  67.440  1.00  0.00    -0.260 A  
HETATM   21  C   UNL     1      -7.667  18.632  68.638  1.00  0.00    -0.344 A  
HETATM   22  C   UNL     1      -7.877  17.247  68.628  1.00  0.00    -0.272 A  
ENDBRANCH  14  17
ENDBRANCH  12  13
ENDBRANCH  11  12
ENDBRANCH  10  11
ENDBRANCH   9  10
ENDBRANCH   8   9
ENDBRANCH   7   8
ENDBRANCH   4   7
TORSDOF 8
ENDMDL
MODEL      260
REMARK 921   NORMALIZED FREE ENERGY PREDICTED BY IDOCK:   -3.05 KCAL/MOL
REMARK 922        TOTAL FREE ENERGY PREDICTED BY IDOCK:   -5.27 KCAL/MOL
REMARK 923 INTER-LIGAND FREE ENERGY PREDICTED BY IDOCK:   -5.77 KCAL/MOL
REMARK 924 INTRA-LIGAND FREE ENERGY PREDICTED BY IDOCK:    0.50 KCAL/MOL
REMARK 927      BINDING AFFINITY PREDICTED BY RF-SCORE:    0.00 PKD
ROOT
HETATM    1  O   UNL     1     -10.320  18.904  69.381  1.00  0.00    -0.453 OA 
HETATM    2  N   UNL     1     -10.491  19.846  68.355  1.00  0.00    -0.457 N  
HETATM    3  H   UNL     1     -10.911  18.898  70.125  1.00  0.00     0.000 HD 
HETATM    4  C   UNL     1      -9.643  19.854  67.284  1.00  0.00    -0.375 C  
HETATM    5  H   UNL     1     -11.250  20.525  68.408  1.00  0.00     0.000 HD 
HETATM    6  O   UNL     1      -9.802  20.666  66.375  1.00  0.00    -0.250 OA 
ENDROOT
BRANCH   4   7
HETATM    7  C   UNL     1      -8.530  18.825  67.310  1.00  0.00    -0.283 C  
BRANCH   7   8
HETATM    8  C   UNL     1      -8.795  17.672  66.345  1.00  0.00    -0.263 C  
BRANCH   8   9
HETATM    9  C   UNL     1     -10.239  17.684  65.859  1.00  0.00    -0.240 C  
BRANCH   9  10
HETATM   10  C   UNL     1     -10.574  16.415  65.069  1.00  0.00    -0.217 C  
BRANCH  10  11
HETATM   11  C   UNL     1     -10.840  15.273  66.036  1.00  0.00    -0.331 C  
BRANCH  11  12
HETATM   12  C   UNL     1     -11.952  14.320  65.590  1.00  0.00    -0.390 C  
BRANCH  12  13
HETATM   13  C   UNL     1     -11.500  12.893  65.862  1.00  0.00    -0.346 C  
HETATM   14  N   UNL     1     -11.563  12.523  67.194  1.00  0.00    -0.350 N  
HETATM   15  O   UNL     1     -11.138  12.166  64.938  1.00  0.00    -0.303 OA 
HETATM   16  H   UNL     1     -11.874  13.221  67.868  1.00  0.00     0.000 HD 
BRANCH  14  17
HETATM   17  C   UNL     1     -11.222  11.236  67.679  1.00  0.00    -0.292 A  
HETATM   18  C   UNL     1     -11.636  10.763  68.928  1.00  0.00    -0.361 A  
HETATM   19  C   UNL     1     -11.189   9.536  69.418  1.00  0.00    -0.066 A  
HETATM   20  C   UNL     1     -10.339   8.752  68.648  1.00  0.00    -0.230 A  
HETATM   21  C   UNL     1      -9.965   9.183  67.376  1.00  0.00    -0.262 A  
HETATM   22  C   UNL     1     -10.414  10.416  66.886  1.00  0.00    -0.300 A  
ENDBRANCH  14  17
ENDBRANCH  12  13
ENDBRANCH  11  12
ENDBRANCH  10  11
ENDBRANCH   9  10
ENDBRANCH   8   9
ENDBRANCH   7   8
ENDBRANCH   4   7
TORSDOF 8
ENDMDL
MODEL      261
REMARK 921   NORMALIZED FREE ENERGY PREDICTED BY IDOCK:   -3.03 KCAL/MOL
REMARK 922        TOTAL FREE ENERGY PREDICTED BY IDOCK:   -5.24 KCAL/MOL
REMARK 923 INTER-LIGAND FREE ENERGY PREDICTED BY IDOCK:   -5.09 KCAL/MOL
REMARK 924 INTRA-LIGAND FREE ENERGY PREDICTED BY IDOCK:   -0.15 KCAL/MOL
REMARK 927      BINDING AFFINITY PREDICTED BY RF-SCORE:    0.00 PKD
ROOT
HETATM    1  O   UNL     1      -8.700  14.702  66.356  1.00  0.00    -0.452 OA 
HETATM    2  N   UNL     1      -9.233  15.648  65.466  1.00  0.00    -0.223 N  
HETATM    3  H   UNL     1      -7.768  14.691  66.536  1.00  0.00     0.000 HD 
HETATM    4  C   UNL     1     -10.573  15.664  65.206  1.00  0.00    -0.426 C  
HETATM    5  H   UNL     1      -8.618  16.324  65.013  1.00  0.00     0.000 HD 
HETATM    6  O   UNL     1     -11.045  16.503  64.441  1.00  0.00    -0.894 OA 
ENDROOT
BRANCH   4   7
HETATM    7  C   UNL     1     -11.399  14.602  65.904  1.00  0.00    -0.338 C  
BRANCH   7   8
HETATM    8  C   UNL     1     -11.059  13.197  65.415  1.00  0.00    -0.299 C  
BRANCH   8   9
HETATM    9  C   UNL     1     -12.152  12.654  64.502  1.00  0.00    -0.485 C  
BRANCH   9  10
HETATM   10  C   UNL     1     -11.591  11.642  63.498  1.00  0.00    -0.408 C  
BRANCH  10  11
HETATM   11  C   UNL     1     -10.175  11.263  63.899  1.00  0.00    -0.420 C  
BRANCH  11  12
HETATM   12  C   UNL     1     -10.086  10.030  64.802  1.00  0.00    -0.129 C  
BRANCH  12  13
HETATM   13  C   UNL     1      -8.922  10.220  65.762  1.00  0.00    -0.161 C  
HETATM   14  N   UNL     1      -9.220   9.922  67.080  1.00  0.00    -0.138 N  
HETATM   15  O   UNL     1      -7.824  10.588  65.347  1.00  0.00    -0.152 OA 
HETATM   16  H   UNL     1     -10.172   9.632  67.300  1.00  0.00     0.000 HD 
BRANCH  14  17
HETATM   17  C   UNL     1      -8.286   9.995  68.143  1.00  0.00    -0.109 A  
HETATM   18  C   UNL     1      -7.861  11.208  68.697  1.00  0.00    -0.138 A  
HETATM   19  C   UNL     1      -6.859  11.245  69.666  1.00  0.00    -0.095 A  
HETATM   20  C   UNL     1      -6.285  10.062  70.113  1.00  0.00    -0.077 A  
HETATM   21  C   UNL     1      -6.740   8.842  69.615  1.00  0.00    -0.046 A  
HETATM   22  C   UNL     1      -7.746   8.806  68.641  1.00  0.00    -0.098 A  
ENDBRANCH  14  17
ENDBRANCH  12  13
ENDBRANCH  11  12
ENDBRANCH  10  11
ENDBRANCH   9  10
ENDBRANCH   8   9
ENDBRANCH   7   8
ENDBRANCH   4   7
TORSDOF 8
ENDMDL
MODEL      262
REMARK 921   NORMALIZED FREE ENERGY PREDICTED BY IDOCK:   -3.01 KCAL/MOL
REMARK 922        TOTAL FREE ENERGY PREDICTED BY IDOCK:   -5.21 KCAL/MOL
REMARK 923 INTER-LIGAND FREE ENERGY PREDICTED BY IDOCK:   -4.50 KCAL/MOL
REMARK 924 INTRA-LIGAND FREE ENERGY PREDICTED BY IDOCK:   -0.71 KCAL/MOL
REMARK 927      BINDING AFFINITY PREDICTED BY RF-SCORE:    0.00 PKD
ROOT
HETATM    1  O   UNL     1     -11.674  12.084  64.566  1.00  0.00    -0.342 OA 
HETATM    2  N   UNL     1     -10.480  11.757  65.228  1.00  0.00    -0.263 N  
HETATM    3  H   UNL     1     -11.744  11.966  63.625  1.00  0.00     0.000 HD 
HETATM    4  C   UNL     1     -10.379  11.927  66.579  1.00  0.00    -0.216 C  
HETATM    5  H   UNL     1      -9.688  11.393  64.699  1.00  0.00     0.000 HD 
HETATM    6  O   UNL     1      -9.341  11.624  67.165  1.00  0.00    -0.170 OA 
ENDROOT
BRANCH   4   7
HETATM    7  C   UNL     1     -11.600  12.500  67.271  1.00  0.00    -0.434 C  
BRANCH   7   8
HETATM    8  C   UNL     1     -11.442  12.521  68.789  1.00  0.00    -0.353 C  
BRANCH   8   9
HETATM    9  C   UNL     1     -12.097  11.301  69.426  1.00  0.00    -0.384 C  
BRANCH   9  10
HETATM   10  C   UNL     1     -11.188  10.665  70.481  1.00  0.00    -0.270 C  
BRANCH  10  11
HETATM   11  C   UNL     1     -10.687   9.322  69.974  1.00  0.00    -0.259 C  
BRANCH  11  12
HETATM   12  C   UNL     1      -9.218   9.324  69.541  1.00  0.00    -0.168 C  
BRANCH  12  13
HETATM   13  C   UNL     1      -8.757   7.881  69.402  1.00  0.00    -0.138 C  
HETATM   14  N   UNL     1      -9.783   6.977  69.186  1.00  0.00    -0.156 N  
HETATM   15  O   UNL     1      -7.561   7.599  69.463  1.00  0.00    -0.093 OA 
HETATM   16  H   UNL     1     -10.737   7.336  69.162  1.00  0.00     0.000 HD 
BRANCH  14  17
HETATM   17  C   UNL     1      -9.590   5.587  68.996  1.00  0.00    -0.136 A  
HETATM   18  C   UNL     1      -9.507   4.999  67.729  1.00  0.00    -0.159 A  
HETATM   19  C   UNL     1      -9.428   3.614  67.581  1.00  0.00    -0.234 A  
HETATM   20  C   UNL     1      -9.406   2.799  68.705  1.00  0.00    -0.234 A  
HETATM   21  C   UNL     1      -9.427   3.373  69.975  1.00  0.00    -0.243 A  
HETATM   22  C   UNL     1      -9.507   4.764  70.123  1.00  0.00    -0.246 A  
ENDBRANCH  14  17
ENDBRANCH  12  13
ENDBRANCH  11  12
ENDBRANCH  10  11
ENDBRANCH   9  10
ENDBRANCH   8   9
ENDBRANCH   7   8
ENDBRANCH   4   7
TORSDOF 8
ENDMDL
MODEL      263
REMARK 921   NORMALIZED FREE ENERGY PREDICTED BY IDOCK:   -3.00 KCAL/MOL
REMARK 922        TOTAL FREE ENERGY PREDICTED BY IDOCK:   -5.20 KCAL/MOL
REMARK 923 INTER-LIGAND FREE ENERGY PREDICTED BY IDOCK:   -4.57 KCAL/MOL
REMARK 924 INTRA-LIGAND FREE ENERGY PREDICTED BY IDOCK:   -0.62 KCAL/MOL
REMARK 927      BINDING AFFINITY PREDICTED BY RF-SCORE:    0.00 PKD
ROOT
HETATM    1  O   UNL     1      -5.368  20.041  71.755  1.00  0.00    -0.355 OA 
HETATM    2  N   UNL     1      -5.568  20.818  70.602  1.00  0.00    -0.552 N  
HETATM    3  H   UNL     1      -5.092  20.455  72.565  1.00  0.00     0.000 HD 
HETATM    4  C   UNL     1      -5.965  20.224  69.438  1.00  0.00    -0.340 C  
HETATM    5  H   UNL     1      -5.418  21.826  70.635  1.00  0.00     0.000 HD 
HETATM    6  O   UNL     1      -6.159  20.904  68.432  1.00  0.00    -0.332 OA 
ENDROOT
BRANCH   4   7
HETATM    7  C   UNL     1      -6.133  18.718  69.483  1.00  0.00    -0.285 C  
BRANCH   7   8
HETATM    8  C   UNL     1      -5.954  18.081  68.108  1.00  0.00    -0.171 C  
BRANCH   8   9
HETATM    9  C   UNL     1      -6.927  16.925  67.908  1.00  0.00    -0.158 C  
BRANCH   9  10
HETATM   10  C   UNL     1      -7.429  16.378  69.247  1.00  0.00    -0.202 C  
BRANCH  10  11
HETATM   11  C   UNL     1      -6.897  14.969  69.450  1.00  0.00    -0.165 C  
BRANCH  11  12
HETATM   12  C   UNL     1      -6.020  14.458  68.303  1.00  0.00    -0.120 C  
BRANCH  12  13
HETATM   13  C   UNL     1      -6.701  13.249  67.680  1.00  0.00    -0.166 C  
HETATM   14  N   UNL     1      -8.002  13.049  68.107  1.00  0.00    -0.144 N  
HETATM   15  O   UNL     1      -6.107  12.554  66.856  1.00  0.00    -0.251 OA 
HETATM   16  H   UNL     1      -8.380  13.693  68.801  1.00  0.00     0.000 HD 
BRANCH  14  17
HETATM   17  C   UNL     1      -8.840  12.006  67.641  1.00  0.00    -0.172 A  
HETATM   18  C   UNL     1      -9.420  12.011  66.368  1.00  0.00    -0.238 A  
HETATM   19  C   UNL     1     -10.328  11.024  65.986  1.00  0.00    -0.311 A  
HETATM   20  C   UNL     1     -10.647   9.999  66.868  1.00  0.00    -0.261 A  
HETATM   21  C   UNL     1     -10.032   9.947  68.118  1.00  0.00    -0.175 A  
HETATM   22  C   UNL     1      -9.121  10.940  68.501  1.00  0.00    -0.173 A  
ENDBRANCH  14  17
ENDBRANCH  12  13
ENDBRANCH  11  12
ENDBRANCH  10  11
ENDBRANCH   9  10
ENDBRANCH   8   9
ENDBRANCH   7   8
ENDBRANCH   4   7
TORSDOF 8
ENDMDL
MODEL      264
REMARK 921   NORMALIZED FREE ENERGY PREDICTED BY IDOCK:   -3.00 KCAL/MOL
REMARK 922        TOTAL FREE ENERGY PREDICTED BY IDOCK:   -5.19 KCAL/MOL
REMARK 923 INTER-LIGAND FREE ENERGY PREDICTED BY IDOCK:   -3.94 KCAL/MOL
REMARK 924 INTRA-LIGAND FREE ENERGY PREDICTED BY IDOCK:   -1.24 KCAL/MOL
REMARK 927      BINDING AFFINITY PREDICTED BY RF-SCORE:    0.00 PKD
ROOT
HETATM    1  O   UNL     1      -6.154  10.166  69.290  1.00  0.00    -0.037 OA 
HETATM    2  N   UNL     1      -7.030   9.251  68.685  1.00  0.00    -0.062 N  
HETATM    3  H   UNL     1      -6.224  11.093  69.093  1.00  0.00     0.000 HD 
HETATM    4  C   UNL     1      -6.930   7.919  68.969  1.00  0.00    -0.058 C  
HETATM    5  H   UNL     1      -7.740   9.582  68.032  1.00  0.00     0.000 HD 
HETATM    6  O   UNL     1      -7.708   7.117  68.454  1.00  0.00    -0.115 OA 
ENDROOT
BRANCH   4   7
HETATM    7  C   UNL     1      -5.825   7.524  69.928  1.00  0.00    -0.024 C  
BRANCH   7   8
HETATM    8  C   UNL     1      -6.197   6.297  70.756  1.00  0.00    -0.039 C  
BRANCH   8   9
HETATM    9  C   UNL     1      -7.163   6.664  71.876  1.00  0.00    -0.085 C  
BRANCH   9  10
HETATM   10  C   UNL     1      -7.974   5.449  72.336  1.00  0.00    -0.103 C  
BRANCH  10  11
HETATM   11  C   UNL     1      -9.457   5.730  72.150  1.00  0.00    -0.164 C  
BRANCH  11  12
HETATM   12  C   UNL     1      -9.964   5.507  70.723  1.00  0.00    -0.263 C  
BRANCH  12  13
HETATM   13  C   UNL     1     -10.843   6.686  70.336  1.00  0.00    -0.266 C  
HETATM   14  N   UNL     1     -10.175   7.897  70.283  1.00  0.00    -0.197 N  
HETATM   15  O   UNL     1     -12.034   6.519  70.080  1.00  0.00    -0.383 OA 
HETATM   16  H   UNL     1      -9.184   7.906  70.524  1.00  0.00     0.000 HD 
BRANCH  14  17
HETATM   17  C   UNL     1     -10.780   9.124  69.917  1.00  0.00    -0.231 A  
HETATM   18  C   UNL     1     -10.648   9.684  68.642  1.00  0.00    -0.246 A  
HETATM   19  C   UNL     1     -11.165  10.946  68.351  1.00  0.00    -0.347 A  
HETATM   20  C   UNL     1     -11.849  11.655  69.331  1.00  0.00    -0.408 A  
HETATM   21  C   UNL     1     -12.041  11.085  70.588  1.00  0.00    -0.471 A  
HETATM   22  C   UNL     1     -11.520   9.818  70.879  1.00  0.00    -0.447 A  
ENDBRANCH  14  17
ENDBRANCH  12  13
ENDBRANCH  11  12
ENDBRANCH  10  11
ENDBRANCH   9  10
ENDBRANCH   8   9
ENDBRANCH   7   8
ENDBRANCH   4   7
TORSDOF 8
ENDMDL
MODEL      265
REMARK 921   NORMALIZED FREE ENERGY PREDICTED BY IDOCK:   -3.00 KCAL/MOL
REMARK 922        TOTAL FREE ENERGY PREDICTED BY IDOCK:   -5.19 KCAL/MOL
REMARK 923 INTER-LIGAND FREE ENERGY PREDICTED BY IDOCK:   -4.46 KCAL/MOL
REMARK 924 INTRA-LIGAND FREE ENERGY PREDICTED BY IDOCK:   -0.73 KCAL/MOL
REMARK 927      BINDING AFFINITY PREDICTED BY RF-SCORE:    0.00 PKD
ROOT
HETATM    1  O   UNL     1      -6.765   4.033  73.256  1.00  0.00    -0.043 OA 
HETATM    2  N   UNL     1      -6.874   5.421  73.436  1.00  0.00    -0.081 N  
HETATM    3  H   UNL     1      -6.033   3.560  73.636  1.00  0.00     0.000 HD 
HETATM    4  C   UNL     1      -7.926   6.101  72.891  1.00  0.00    -0.105 C  
HETATM    5  H   UNL     1      -6.168   5.922  73.975  1.00  0.00     0.000 HD 
HETATM    6  O   UNL     1      -8.035   7.313  73.063  1.00  0.00    -0.095 OA 
ENDROOT
BRANCH   4   7
HETATM    7  C   UNL     1      -8.907   5.273  72.084  1.00  0.00    -0.135 C  
BRANCH   7   8
HETATM    8  C   UNL     1      -8.801   5.556  70.588  1.00  0.00    -0.142 C  
BRANCH   8   9
HETATM    9  C   UNL     1     -10.177   5.567  69.933  1.00  0.00    -0.338 C  
BRANCH   9  10
HETATM   10  C   UNL     1     -10.535   6.959  69.406  1.00  0.00    -0.237 C  
BRANCH  10  11
HETATM   11  C   UNL     1     -11.139   7.786  70.530  1.00  0.00    -0.265 C  
BRANCH  11  12
HETATM   12  C   UNL     1     -10.214   8.877  71.074  1.00  0.00    -0.322 C  
BRANCH  12  13
HETATM   13  C   UNL     1      -9.985   9.904  69.976  1.00  0.00    -0.254 C  
HETATM   14  N   UNL     1     -11.149  10.417  69.429  1.00  0.00    -0.239 N  
HETATM   15  O   UNL     1      -8.844  10.232  69.656  1.00  0.00    -0.175 OA 
HETATM   16  H   UNL     1     -12.038  10.058  69.778  1.00  0.00     0.000 HD 
BRANCH  14  17
HETATM   17  C   UNL     1     -11.183  11.407  68.416  1.00  0.00    -0.263 A  
HETATM   18  C   UNL     1     -11.326  12.770  68.694  1.00  0.00    -0.333 A  
HETATM   19  C   UNL     1     -11.467  13.703  67.667  1.00  0.00    -0.357 A  
HETATM   20  C   UNL     1     -11.439  13.284  66.343  1.00  0.00    -0.364 A  
HETATM   21  C   UNL     1     -11.236  11.936  66.049  1.00  0.00    -0.377 A  
HETATM   22  C   UNL     1     -11.096  11.000  67.081  1.00  0.00    -0.333 A  
ENDBRANCH  14  17
ENDBRANCH  12  13
ENDBRANCH  11  12
ENDBRANCH  10  11
ENDBRANCH   9  10
ENDBRANCH   8   9
ENDBRANCH   7   8
ENDBRANCH   4   7
TORSDOF 8
ENDMDL
MODEL      266
REMARK 921   NORMALIZED FREE ENERGY PREDICTED BY IDOCK:   -2.99 KCAL/MOL
REMARK 922        TOTAL FREE ENERGY PREDICTED BY IDOCK:   -5.18 KCAL/MOL
REMARK 923 INTER-LIGAND FREE ENERGY PREDICTED BY IDOCK:   -4.74 KCAL/MOL
REMARK 924 INTRA-LIGAND FREE ENERGY PREDICTED BY IDOCK:   -0.44 KCAL/MOL
REMARK 927      BINDING AFFINITY PREDICTED BY RF-SCORE:    0.00 PKD
ROOT
HETATM    1  O   UNL     1     -11.456   4.508  65.158  1.00  0.00    -1.105 OA 
HETATM    2  N   UNL     1     -10.512   3.976  66.051  1.00  0.00    -0.359 N  
HETATM    3  H   UNL     1     -12.278   4.055  65.009  1.00  0.00     0.000 HD 
HETATM    4  C   UNL     1      -9.331   4.627  66.266  1.00  0.00    -0.151 C  
HETATM    5  H   UNL     1     -10.710   3.104  66.540  1.00  0.00     0.000 HD 
HETATM    6  O   UNL     1      -8.511   4.174  67.062  1.00  0.00    -0.100 OA 
ENDROOT
BRANCH   4   7
HETATM    7  C   UNL     1      -9.119   5.901  65.471  1.00  0.00    -0.006 C  
BRANCH   7   8
HETATM    8  C   UNL     1      -9.060   7.133  66.370  1.00  0.00    -0.189 C  
BRANCH   8   9
HETATM    9  C   UNL     1      -8.635   8.367  65.581  1.00  0.00    -0.197 C  
BRANCH   9  10
HETATM   10  C   UNL     1      -9.599   9.535  65.809  1.00  0.00    -0.337 C  
BRANCH  10  11
HETATM   11  C   UNL     1     -10.398   9.292  67.079  1.00  0.00    -0.325 C  
BRANCH  11  12
HETATM   12  C   UNL     1     -11.053  10.548  67.658  1.00  0.00    -0.375 C  
BRANCH  12  13
HETATM   13  C   UNL     1      -9.955  11.478  68.152  1.00  0.00    -0.192 C  
HETATM   14  N   UNL     1      -9.901  12.692  67.490  1.00  0.00    -0.200 N  
HETATM   15  O   UNL     1      -9.220  11.139  69.079  1.00  0.00    -0.140 OA 
HETATM   16  H   UNL     1     -10.564  12.851  66.732  1.00  0.00     0.000 HD 
BRANCH  14  17
HETATM   17  C   UNL     1      -8.983  13.726  67.799  1.00  0.00    -0.194 A  
HETATM   18  C   UNL     1      -9.386  14.994  68.231  1.00  0.00    -0.192 A  
HETATM   19  C   UNL     1      -8.459  16.019  68.418  1.00  0.00    -0.180 A  
HETATM   20  C   UNL     1      -7.108  15.779  68.200  1.00  0.00    -0.123 A  
HETATM   21  C   UNL     1      -6.685  14.504  67.828  1.00  0.00    -0.191 A  
HETATM   22  C   UNL     1      -7.616  13.476  67.638  1.00  0.00    -0.181 A  
ENDBRANCH  14  17
ENDBRANCH  12  13
ENDBRANCH  11  12
ENDBRANCH  10  11
ENDBRANCH   9  10
ENDBRANCH   8   9
ENDBRANCH   7   8
ENDBRANCH   4   7
TORSDOF 8
ENDMDL
MODEL      267
REMARK 921   NORMALIZED FREE ENERGY PREDICTED BY IDOCK:   -2.98 KCAL/MOL
REMARK 922        TOTAL FREE ENERGY PREDICTED BY IDOCK:   -5.16 KCAL/MOL
REMARK 923 INTER-LIGAND FREE ENERGY PREDICTED BY IDOCK:   -4.61 KCAL/MOL
REMARK 924 INTRA-LIGAND FREE ENERGY PREDICTED BY IDOCK:   -0.56 KCAL/MOL
REMARK 927      BINDING AFFINITY PREDICTED BY RF-SCORE:    0.00 PKD
ROOT
HETATM    1  O   UNL     1     -11.703   6.134  71.158  1.00  0.00    -0.282 OA 
HETATM    2  N   UNL     1     -12.008   6.482  69.833  1.00  0.00    -0.568 N  
HETATM    3  H   UNL     1     -12.395   6.074  71.806  1.00  0.00     0.000 HD 
HETATM    4  C   UNL     1     -11.013   6.568  68.902  1.00  0.00    -0.314 C  
HETATM    5  H   UNL     1     -12.974   6.671  69.566  1.00  0.00     0.000 HD 
HETATM    6  O   UNL     1     -11.279   6.855  67.736  1.00  0.00    -0.174 OA 
ENDROOT
BRANCH   4   7
HETATM    7  C   UNL     1      -9.607   6.298  69.403  1.00  0.00    -0.157 C  
BRANCH   7   8
HETATM    8  C   UNL     1      -8.977   7.536  70.036  1.00  0.00    -0.144 C  
BRANCH   8   9
HETATM    9  C   UNL     1      -7.668   7.898  69.345  1.00  0.00    -0.105 C  
BRANCH   9  10
HETATM   10  C   UNL     1      -7.688   7.503  67.866  1.00  0.00    -0.116 C  
BRANCH  10  11
HETATM   11  C   UNL     1      -7.403   8.727  67.010  1.00  0.00    -0.080 C  
BRANCH  11  12
HETATM   12  C   UNL     1      -7.631  10.060  67.727  1.00  0.00    -0.090 C  
BRANCH  12  13
HETATM   13  C   UNL     1      -8.921  10.673  67.202  1.00  0.00    -0.136 C  
HETATM   14  N   UNL     1      -8.775  11.956  66.703  1.00  0.00    -0.210 N  
HETATM   15  O   UNL     1      -9.970  10.032  67.223  1.00  0.00    -0.179 OA 
HETATM   16  H   UNL     1      -7.851  12.383  66.748  1.00  0.00     0.000 HD 
BRANCH  14  17
HETATM   17  C   UNL     1      -9.830  12.712  66.135  1.00  0.00    -0.259 A  
HETATM   18  C   UNL     1     -10.311  13.894  66.709  1.00  0.00    -0.272 A  
HETATM   19  C   UNL     1     -11.422  14.551  66.182  1.00  0.00    -0.357 A  
HETATM   20  C   UNL     1     -12.053  14.045  65.052  1.00  0.00    -0.427 A  
HETATM   21  C   UNL     1     -11.549  12.902  64.433  1.00  0.00    -0.415 A  
HETATM   22  C   UNL     1     -10.434  12.242  64.964  1.00  0.00    -0.322 A  
ENDBRANCH  14  17
ENDBRANCH  12  13
ENDBRANCH  11  12
ENDBRANCH  10  11
ENDBRANCH   9  10
ENDBRANCH   8   9
ENDBRANCH   7   8
ENDBRANCH   4   7
TORSDOF 8
ENDMDL
MODEL      268
REMARK 921   NORMALIZED FREE ENERGY PREDICTED BY IDOCK:   -2.98 KCAL/MOL
REMARK 922        TOTAL FREE ENERGY PREDICTED BY IDOCK:   -5.16 KCAL/MOL
REMARK 923 INTER-LIGAND FREE ENERGY PREDICTED BY IDOCK:   -4.13 KCAL/MOL
REMARK 924 INTRA-LIGAND FREE ENERGY PREDICTED BY IDOCK:   -1.03 KCAL/MOL
REMARK 927      BINDING AFFINITY PREDICTED BY RF-SCORE:    0.00 PKD
ROOT
HETATM    1  O   UNL     1     -13.771   7.028  72.124  1.00  0.00    -0.543 OA 
HETATM    2  N   UNL     1     -13.061   7.558  71.035  1.00  0.00    -0.583 N  
HETATM    3  H   UNL     1     -14.629   7.372  72.345  1.00  0.00     0.000 HD 
HETATM    4  C   UNL     1     -11.828   7.064  70.717  1.00  0.00    -0.355 C  
HETATM    5  H   UNL     1     -13.466   8.313  70.482  1.00  0.00     0.000 HD 
HETATM    6  O   UNL     1     -11.212   7.514  69.753  1.00  0.00    -0.182 OA 
ENDROOT
BRANCH   4   7
HETATM    7  C   UNL     1     -11.300   5.964  71.616  1.00  0.00    -0.272 C  
BRANCH   7   8
HETATM    8  C   UNL     1     -10.159   6.450  72.506  1.00  0.00    -0.191 C  
BRANCH   8   9
HETATM    9  C   UNL     1      -8.810   5.981  71.973  1.00  0.00    -0.137 C  
BRANCH   9  10
HETATM   10  C   UNL     1      -8.975   4.858  70.945  1.00  0.00    -0.167 C  
BRANCH  10  11
HETATM   11  C   UNL     1      -8.063   5.120  69.757  1.00  0.00    -0.082 C  
BRANCH  11  12
HETATM   12  C   UNL     1      -7.539   6.556  69.674  1.00  0.00    -0.098 C  
BRANCH  12  13
HETATM   13  C   UNL     1      -8.067   7.186  68.394  1.00  0.00    -0.124 C  
HETATM   14  N   UNL     1      -8.197   8.563  68.452  1.00  0.00    -0.122 N  
HETATM   15  O   UNL     1      -8.320   6.488  67.413  1.00  0.00    -0.119 OA 
HETATM   16  H   UNL     1      -7.959   9.028  69.328  1.00  0.00     0.000 HD 
BRANCH  14  17
HETATM   17  C   UNL     1      -8.639   9.366  67.372  1.00  0.00    -0.125 A  
HETATM   18  C   UNL     1      -9.988   9.662  67.150  1.00  0.00    -0.249 A  
HETATM   19  C   UNL     1     -10.394  10.363  66.015  1.00  0.00    -0.262 A  
HETATM   20  C   UNL     1      -9.448  10.802  65.097  1.00  0.00    -0.271 A  
HETATM   21  C   UNL     1      -8.095  10.568  65.336  1.00  0.00    -0.141 A  
HETATM   22  C   UNL     1      -7.688   9.863  66.476  1.00  0.00    -0.107 A  
ENDBRANCH  14  17
ENDBRANCH  12  13
ENDBRANCH  11  12
ENDBRANCH  10  11
ENDBRANCH   9  10
ENDBRANCH   8   9
ENDBRANCH   7   8
ENDBRANCH   4   7
TORSDOF 8
ENDMDL
MODEL      269
REMARK 921   NORMALIZED FREE ENERGY PREDICTED BY IDOCK:   -2.97 KCAL/MOL
REMARK 922        TOTAL FREE ENERGY PREDICTED BY IDOCK:   -5.14 KCAL/MOL
REMARK 923 INTER-LIGAND FREE ENERGY PREDICTED BY IDOCK:   -3.90 KCAL/MOL
REMARK 924 INTRA-LIGAND FREE ENERGY PREDICTED BY IDOCK:   -1.24 KCAL/MOL
REMARK 927      BINDING AFFINITY PREDICTED BY RF-SCORE:    0.00 PKD
ROOT
HETATM    1  O   UNL     1      -7.490  10.385  70.687  1.00  0.00    -0.425 OA 
HETATM    2  N   UNL     1      -7.024   9.109  71.040  1.00  0.00    -0.100 N  
HETATM    3  H   UNL     1      -6.882  11.042  70.370  1.00  0.00     0.000 HD 
HETATM    4  C   UNL     1      -7.897   8.163  71.496  1.00  0.00    -0.108 C  
HETATM    5  H   UNL     1      -6.031   8.888  70.956  1.00  0.00     0.000 HD 
HETATM    6  O   UNL     1      -7.494   7.038  71.788  1.00  0.00    -0.085 OA 
ENDROOT
BRANCH   4   7
HETATM    7  C   UNL     1      -9.345   8.596  71.613  1.00  0.00    -0.333 C  
BRANCH   7   8
HETATM    8  C   UNL     1     -10.303   7.409  71.566  1.00  0.00    -0.216 C  
BRANCH   8   9
HETATM    9  C   UNL     1     -11.196   7.473  70.332  1.00  0.00    -0.270 C  
BRANCH   9  10
HETATM   10  C   UNL     1     -10.510   6.848  69.113  1.00  0.00    -0.224 C  
BRANCH  10  11
HETATM   11  C   UNL     1     -10.472   7.860  67.979  1.00  0.00    -0.245 C  
BRANCH  11  12
HETATM   12  C   UNL     1      -9.099   8.500  67.755  1.00  0.00    -0.143 C  
BRANCH  12  13
HETATM   13  C   UNL     1      -9.306   9.947  67.336  1.00  0.00    -0.137 C  
HETATM   14  N   UNL     1      -9.498  10.820  68.393  1.00  0.00    -0.166 N  
HETATM   15  O   UNL     1      -9.276  10.264  66.148  1.00  0.00    -0.151 OA 
HETATM   16  H   UNL     1      -9.508  10.433  69.336  1.00  0.00     0.000 HD 
BRANCH  14  17
HETATM   17  C   UNL     1      -9.680  12.218  68.246  1.00  0.00    -0.219 A  
HETATM   18  C   UNL     1     -10.919  12.793  67.945  1.00  0.00    -0.262 A  
HETATM   19  C   UNL     1     -11.037  14.161  67.699  1.00  0.00    -0.296 A  
HETATM   20  C   UNL     1      -9.916  14.978  67.780  1.00  0.00    -0.229 A  
HETATM   21  C   UNL     1      -8.686  14.428  68.139  1.00  0.00    -0.175 A  
HETATM   22  C   UNL     1      -8.568  13.054  68.384  1.00  0.00    -0.116 A  
ENDBRANCH  14  17
ENDBRANCH  12  13
ENDBRANCH  11  12
ENDBRANCH  10  11
ENDBRANCH   9  10
ENDBRANCH   8   9
ENDBRANCH   7   8
ENDBRANCH   4   7
TORSDOF 8
ENDMDL
MODEL      270
REMARK 921   NORMALIZED FREE ENERGY PREDICTED BY IDOCK:   -2.92 KCAL/MOL
REMARK 922        TOTAL FREE ENERGY PREDICTED BY IDOCK:   -5.07 KCAL/MOL
REMARK 923 INTER-LIGAND FREE ENERGY PREDICTED BY IDOCK:   -4.39 KCAL/MOL
REMARK 924 INTRA-LIGAND FREE ENERGY PREDICTED BY IDOCK:   -0.68 KCAL/MOL
REMARK 927      BINDING AFFINITY PREDICTED BY RF-SCORE:    0.00 PKD
ROOT
HETATM    1  O   UNL     1      -7.654   9.707  70.199  1.00  0.00    -0.122 OA 
HETATM    2  N   UNL     1      -7.445   8.861  71.300  1.00  0.00    -0.115 N  
HETATM    3  H   UNL     1      -6.917   9.988  69.669  1.00  0.00     0.000 HD 
HETATM    4  C   UNL     1      -8.504   8.456  72.062  1.00  0.00    -0.183 C  
HETATM    5  H   UNL     1      -6.502   8.549  71.530  1.00  0.00     0.000 HD 
HETATM    6  O   UNL     1      -8.327   7.700  73.015  1.00  0.00    -0.113 OA 
ENDROOT
BRANCH   4   7
HETATM    7  C   UNL     1      -9.861   8.996  71.656  1.00  0.00    -0.366 C  
BRANCH   7   8
HETATM    8  C   UNL     1     -11.002   8.127  72.176  1.00  0.00    -0.372 C  
BRANCH   8   9
HETATM    9  C   UNL     1     -11.784   7.502  71.026  1.00  0.00    -0.317 C  
BRANCH   9  10
HETATM   10  C   UNL     1     -11.242   6.115  70.670  1.00  0.00    -0.387 C  
BRANCH  10  11
HETATM   11  C   UNL     1     -11.017   6.029  69.169  1.00  0.00    -0.429 C  
BRANCH  11  12
HETATM   12  C   UNL     1      -9.570   6.281  68.737  1.00  0.00    -0.128 C  
BRANCH  12  13
HETATM   13  C   UNL     1      -9.575   6.737  67.286  1.00  0.00    -0.137 C  
HETATM   14  N   UNL     1      -8.993   7.976  67.080  1.00  0.00    -0.134 N  
HETATM   15  O   UNL     1     -10.048   6.018  66.407  1.00  0.00    -0.157 OA 
HETATM   16  H   UNL     1      -8.641   8.479  67.894  1.00  0.00     0.000 HD 
BRANCH  14  17
HETATM   17  C   UNL     1      -8.857   8.589  65.810  1.00  0.00    -0.190 A  
HETATM   18  C   UNL     1      -9.609   9.703  65.421  1.00  0.00    -0.361 A  
HETATM   19  C   UNL     1      -9.527  10.210  64.125  1.00  0.00    -0.353 A  
HETATM   20  C   UNL     1      -8.667   9.623  63.205  1.00  0.00    -0.239 A  
HETATM   21  C   UNL     1      -7.866   8.551  63.596  1.00  0.00    -0.151 A  
HETATM   22  C   UNL     1      -7.950   8.041  64.897  1.00  0.00    -0.138 A  
ENDBRANCH  14  17
ENDBRANCH  12  13
ENDBRANCH  11  12
ENDBRANCH  10  11
ENDBRANCH   9  10
ENDBRANCH   8   9
ENDBRANCH   7   8
ENDBRANCH   4   7
TORSDOF 8
ENDMDL
MODEL      271
REMARK 921   NORMALIZED FREE ENERGY PREDICTED BY IDOCK:   -2.90 KCAL/MOL
REMARK 922        TOTAL FREE ENERGY PREDICTED BY IDOCK:   -5.05 KCAL/MOL
REMARK 923 INTER-LIGAND FREE ENERGY PREDICTED BY IDOCK:   -4.96 KCAL/MOL
REMARK 924 INTRA-LIGAND FREE ENERGY PREDICTED BY IDOCK:   -0.09 KCAL/MOL
REMARK 927      BINDING AFFINITY PREDICTED BY RF-SCORE:    0.00 PKD
ROOT
HETATM    1  O   UNL     1      -6.290   6.203  72.919  1.00  0.00    -0.060 OA 
HETATM    2  N   UNL     1      -6.220   7.445  73.570  1.00  0.00    -0.060 N  
HETATM    3  H   UNL     1      -5.493   5.730  72.710  1.00  0.00     0.000 HD 
HETATM    4  C   UNL     1      -7.366   8.125  73.871  1.00  0.00    -0.162 C  
HETATM    5  H   UNL     1      -5.313   7.839  73.819  1.00  0.00     0.000 HD 
HETATM    6  O   UNL     1      -7.309   9.204  74.458  1.00  0.00    -0.408 OA 
ENDROOT
BRANCH   4   7
HETATM    7  C   UNL     1      -8.662   7.470  73.435  1.00  0.00    -0.229 C  
BRANCH   7   8
HETATM    8  C   UNL     1      -9.615   8.466  72.781  1.00  0.00    -0.308 C  
BRANCH   8   9
HETATM    9  C   UNL     1     -10.727   7.747  72.026  1.00  0.00    -0.282 C  
BRANCH   9  10
HETATM   10  C   UNL     1     -12.058   8.496  72.144  1.00  0.00    -0.449 C  
BRANCH  10  11
HETATM   11  C   UNL     1     -11.869   9.938  71.703  1.00  0.00    -0.374 C  
BRANCH  11  12
HETATM   12  C   UNL     1     -12.689  10.330  70.471  1.00  0.00    -0.325 C  
BRANCH  12  13
HETATM   13  C   UNL     1     -11.729  10.633  69.331  1.00  0.00    -0.273 C  
HETATM   14  N   UNL     1     -11.278   9.511  68.658  1.00  0.00    -0.472 N  
HETATM   15  O   UNL     1     -11.430  11.795  69.059  1.00  0.00    -0.245 OA 
HETATM   16  H   UNL     1     -11.596   8.599  68.985  1.00  0.00     0.000 HD 
BRANCH  14  17
HETATM   17  C   UNL     1     -10.403   9.551  67.545  1.00  0.00    -0.248 A  
HETATM   18  C   UNL     1      -9.514   8.514  67.242  1.00  0.00    -0.199 A  
HETATM   19  C   UNL     1      -8.591   8.636  66.204  1.00  0.00    -0.158 A  
HETATM   20  C   UNL     1      -8.565   9.793  65.435  1.00  0.00    -0.163 A  
HETATM   21  C   UNL     1      -9.484  10.809  65.685  1.00  0.00    -0.250 A  
HETATM   22  C   UNL     1     -10.410  10.686  66.729  1.00  0.00    -0.299 A  
ENDBRANCH  14  17
ENDBRANCH  12  13
ENDBRANCH  11  12
ENDBRANCH  10  11
ENDBRANCH   9  10
ENDBRANCH   8   9
ENDBRANCH   7   8
ENDBRANCH   4   7
TORSDOF 8
ENDMDL
MODEL      272
REMARK 921   NORMALIZED FREE ENERGY PREDICTED BY IDOCK:   -2.90 KCAL/MOL
REMARK 922        TOTAL FREE ENERGY PREDICTED BY IDOCK:   -5.04 KCAL/MOL
REMARK 923 INTER-LIGAND FREE ENERGY PREDICTED BY IDOCK:   -5.34 KCAL/MOL
REMARK 924 INTRA-LIGAND FREE ENERGY PREDICTED BY IDOCK:    0.30 KCAL/MOL
REMARK 927      BINDING AFFINITY PREDICTED BY RF-SCORE:    0.00 PKD
ROOT
HETATM    1  O   UNL     1     -13.634  14.989  70.360  1.00  0.00    -0.630 OA 
HETATM    2  N   UNL     1     -13.338  15.616  71.581  1.00  0.00    -0.492 N  
HETATM    3  H   UNL     1     -13.634  15.492  69.554  1.00  0.00     0.000 HD 
HETATM    4  C   UNL     1     -13.339  14.894  72.739  1.00  0.00    -0.480 C  
HETATM    5  H   UNL     1     -13.123  16.613  71.601  1.00  0.00     0.000 HD 
HETATM    6  O   UNL     1     -13.062  15.437  73.807  1.00  0.00    -0.470 OA 
ENDROOT
BRANCH   4   7
HETATM    7  C   UNL     1     -13.699  13.427  72.609  1.00  0.00    -0.512 C  
BRANCH   7   8
HETATM    8  C   UNL     1     -12.549  12.604  72.036  1.00  0.00     0.044 C  
BRANCH   8   9
HETATM    9  C   UNL     1     -12.968  11.155  71.814  1.00  0.00    -0.526 C  
BRANCH   9  10
HETATM   10  C   UNL     1     -12.568  10.664  70.419  1.00  0.00    -0.395 C  
BRANCH  10  11
HETATM   11  C   UNL     1     -11.056  10.726  70.276  1.00  0.00    -0.248 C  
BRANCH  11  12
HETATM   12  C   UNL     1     -10.325   9.482  70.789  1.00  0.00    -0.377 C  
BRANCH  12  13
HETATM   13  C   UNL     1     -10.095   8.543  69.616  1.00  0.00    -0.202 C  
HETATM   14  N   UNL     1      -9.120   8.970  68.731  1.00  0.00    -0.136 N  
HETATM   15  O   UNL     1     -10.732   7.494  69.520  1.00  0.00    -0.237 OA 
HETATM   16  H   UNL     1      -8.666   9.864  68.918  1.00  0.00     0.000 HD 
BRANCH  14  17
HETATM   17  C   UNL     1      -8.714   8.245  67.584  1.00  0.00    -0.133 A  
HETATM   18  C   UNL     1      -9.173   6.954  67.301  1.00  0.00    -0.137 A  
HETATM   19  C   UNL     1      -8.667   6.230  66.222  1.00  0.00    -0.143 A  
HETATM   20  C   UNL     1      -7.708   6.801  65.394  1.00  0.00    -0.100 A  
HETATM   21  C   UNL     1      -7.285   8.108  65.628  1.00  0.00    -0.071 A  
HETATM   22  C   UNL     1      -7.793   8.835  66.712  1.00  0.00    -0.097 A  
ENDBRANCH  14  17
ENDBRANCH  12  13
ENDBRANCH  11  12
ENDBRANCH  10  11
ENDBRANCH   9  10
ENDBRANCH   8   9
ENDBRANCH   7   8
ENDBRANCH   4   7
TORSDOF 8
ENDMDL
MODEL      273
REMARK 921   NORMALIZED FREE ENERGY PREDICTED BY IDOCK:   -2.90 KCAL/MOL
REMARK 922        TOTAL FREE ENERGY PREDICTED BY IDOCK:   -5.04 KCAL/MOL
REMARK 923 INTER-LIGAND FREE ENERGY PREDICTED BY IDOCK:   -4.52 KCAL/MOL
REMARK 924 INTRA-LIGAND FREE ENERGY PREDICTED BY IDOCK:   -0.52 KCAL/MOL
REMARK 927      BINDING AFFINITY PREDICTED BY RF-SCORE:    0.00 PKD
ROOT
HETATM    1  O   UNL     1     -10.531   7.151  66.555  1.00  0.00    -0.487 OA 
HETATM    2  N   UNL     1     -10.930   8.184  67.417  1.00  0.00    -0.480 N  
HETATM    3  H   UNL     1     -11.090   6.892  65.832  1.00  0.00     0.000 HD 
HETATM    4  C   UNL     1     -10.125   8.556  68.456  1.00  0.00    -0.194 C  
HETATM    5  H   UNL     1     -11.821   8.656  67.268  1.00  0.00     0.000 HD 
HETATM    6  O   UNL     1     -10.464   9.473  69.203  1.00  0.00    -0.199 OA 
ENDROOT
BRANCH   4   7
HETATM    7  C   UNL     1      -8.835   7.776  68.612  1.00  0.00    -0.131 C  
BRANCH   7   8
HETATM    8  C   UNL     1      -7.734   8.301  67.695  1.00  0.00    -0.099 C  
BRANCH   8   9
HETATM    9  C   UNL     1      -7.197   9.638  68.193  1.00  0.00    -0.080 C  
BRANCH   9  10
HETATM   10  C   UNL     1      -7.509  10.768  67.208  1.00  0.00    -0.101 C  
BRANCH  10  11
HETATM   11  C   UNL     1      -7.633  12.080  67.966  1.00  0.00    -0.120 C  
BRANCH  11  12
HETATM   12  C   UNL     1      -6.486  13.061  67.714  1.00  0.00    -0.148 C  
BRANCH  12  13
HETATM   13  C   UNL     1      -7.077  14.444  67.488  1.00  0.00    -0.175 C  
HETATM   14  N   UNL     1      -8.460  14.483  67.535  1.00  0.00    -0.177 N  
HETATM   15  O   UNL     1      -6.344  15.415  67.305  1.00  0.00    -0.305 OA 
HETATM   16  H   UNL     1      -8.956  13.606  67.688  1.00  0.00     0.000 HD 
BRANCH  14  17
HETATM   17  C   UNL     1      -9.228  15.664  67.384  1.00  0.00    -0.198 A  
HETATM   18  C   UNL     1      -9.753  16.075  66.154  1.00  0.00    -0.353 A  
HETATM   19  C   UNL     1     -10.409  17.298  66.023  1.00  0.00    -0.312 A  
HETATM   20  C   UNL     1     -10.571  18.118  67.132  1.00  0.00    -0.362 A  
HETATM   21  C   UNL     1     -10.107  17.695  68.377  1.00  0.00    -0.368 A  
HETATM   22  C   UNL     1      -9.447  16.467  68.507  1.00  0.00    -0.227 A  
ENDBRANCH  14  17
ENDBRANCH  12  13
ENDBRANCH  11  12
ENDBRANCH  10  11
ENDBRANCH   9  10
ENDBRANCH   8   9
ENDBRANCH   7   8
ENDBRANCH   4   7
TORSDOF 8
ENDMDL
MODEL      274
REMARK 921   NORMALIZED FREE ENERGY PREDICTED BY IDOCK:   -2.88 KCAL/MOL
REMARK 922        TOTAL FREE ENERGY PREDICTED BY IDOCK:   -5.01 KCAL/MOL
REMARK 923 INTER-LIGAND FREE ENERGY PREDICTED BY IDOCK:   -4.38 KCAL/MOL
REMARK 924 INTRA-LIGAND FREE ENERGY PREDICTED BY IDOCK:   -0.63 KCAL/MOL
REMARK 927      BINDING AFFINITY PREDICTED BY RF-SCORE:    0.00 PKD
ROOT
HETATM    1  O   UNL     1     -11.027   5.639  70.645  1.00  0.00    -0.262 OA 
HETATM    2  N   UNL     1     -11.377   6.952  70.995  1.00  0.00    -0.282 N  
HETATM    3  H   UNL     1     -11.330   4.909  71.173  1.00  0.00     0.000 HD 
HETATM    4  C   UNL     1     -10.942   8.001  70.236  1.00  0.00    -0.242 C  
HETATM    5  H   UNL     1     -11.957   7.123  71.816  1.00  0.00     0.000 HD 
HETATM    6  O   UNL     1     -11.262   9.151  70.529  1.00  0.00    -0.252 OA 
ENDROOT
BRANCH   4   7
HETATM    7  C   UNL     1     -10.063   7.647  69.053  1.00  0.00    -0.199 C  
BRANCH   7   8
HETATM    8  C   UNL     1     -10.875   7.437  67.778  1.00  0.00    -0.186 C  
BRANCH   8   9
HETATM    9  C   UNL     1     -10.306   8.254  66.624  1.00  0.00    -0.293 C  
BRANCH   9  10
HETATM   10  C   UNL     1     -10.338   9.754  66.933  1.00  0.00    -0.301 C  
BRANCH  10  11
HETATM   11  C   UNL     1     -10.151  10.540  65.645  1.00  0.00    -0.333 C  
BRANCH  11  12
HETATM   12  C   UNL     1     -10.665  11.981  65.709  1.00  0.00    -0.319 C  
BRANCH  12  13
HETATM   13  C   UNL     1      -9.927  12.705  66.823  1.00  0.00    -0.234 C  
HETATM   14  N   UNL     1      -8.561  12.807  66.625  1.00  0.00    -0.420 N  
HETATM   15  O   UNL     1     -10.542  13.162  67.786  1.00  0.00    -0.228 OA 
HETATM   16  H   UNL     1      -8.168  12.380  65.786  1.00  0.00     0.000 HD 
BRANCH  14  17
HETATM   17  C   UNL     1      -7.675  13.465  67.513  1.00  0.00    -0.176 A  
HETATM   18  C   UNL     1      -7.302  14.805  67.358  1.00  0.00    -0.214 A  
HETATM   19  C   UNL     1      -6.343  15.386  68.186  1.00  0.00    -0.132 A  
HETATM   20  C   UNL     1      -5.761  14.638  69.202  1.00  0.00    -0.095 A  
HETATM   21  C   UNL     1      -6.167  13.321  69.408  1.00  0.00    -0.110 A  
HETATM   22  C   UNL     1      -7.129  12.737  68.575  1.00  0.00    -0.101 A  
ENDBRANCH  14  17
ENDBRANCH  12  13
ENDBRANCH  11  12
ENDBRANCH  10  11
ENDBRANCH   9  10
ENDBRANCH   8   9
ENDBRANCH   7   8
ENDBRANCH   4   7
TORSDOF 8
ENDMDL
MODEL      275
REMARK 921   NORMALIZED FREE ENERGY PREDICTED BY IDOCK:   -2.87 KCAL/MOL
REMARK 922        TOTAL FREE ENERGY PREDICTED BY IDOCK:   -5.00 KCAL/MOL
REMARK 923 INTER-LIGAND FREE ENERGY PREDICTED BY IDOCK:   -4.44 KCAL/MOL
REMARK 924 INTRA-LIGAND FREE ENERGY PREDICTED BY IDOCK:   -0.56 KCAL/MOL
REMARK 927      BINDING AFFINITY PREDICTED BY RF-SCORE:    0.00 PKD
ROOT
HETATM    1  O   UNL     1     -11.843   5.811  71.317  1.00  0.00     0.058 OA 
HETATM    2  N   UNL     1     -12.087   7.137  71.709  1.00  0.00    -0.312 N  
HETATM    3  H   UNL     1     -12.294   5.096  71.751  1.00  0.00     0.000 HD 
HETATM    4  C   UNL     1     -11.440   8.165  71.086  1.00  0.00    -0.276 C  
HETATM    5  H   UNL     1     -12.750   7.332  72.459  1.00  0.00     0.000 HD 
HETATM    6  O   UNL     1     -11.666   9.328  71.414  1.00  0.00    -0.306 OA 
ENDROOT
BRANCH   4   7
HETATM    7  C   UNL     1     -10.454   7.771  70.003  1.00  0.00    -0.230 C  
BRANCH   7   8
HETATM    8  C   UNL     1     -11.016   8.007  68.604  1.00  0.00     0.157 C  
BRANCH   8   9
HETATM    9  C   UNL     1     -10.272   9.135  67.897  1.00  0.00    -0.266 C  
BRANCH   9  10
HETATM   10  C   UNL     1     -10.782  10.508  68.345  1.00  0.00    -0.262 C  
BRANCH  10  11
HETATM   11  C   UNL     1     -10.964  11.402  67.129  1.00  0.00    -0.340 C  
BRANCH  11  12
HETATM   12  C   UNL     1     -11.992  12.520  67.320  1.00  0.00    -0.286 C  
BRANCH  12  13
HETATM   13  C   UNL     1     -11.329  13.657  68.082  1.00  0.00    -0.288 C  
HETATM   14  N   UNL     1     -10.530  14.472  67.299  1.00  0.00    -0.264 N  
HETATM   15  O   UNL     1     -11.536  13.808  69.285  1.00  0.00    -0.262 OA 
HETATM   16  H   UNL     1     -10.433  14.239  66.311  1.00  0.00     0.000 HD 
BRANCH  14  17
HETATM   17  C   UNL     1      -9.838  15.610  67.783  1.00  0.00    -0.220 A  
HETATM   18  C   UNL     1     -10.434  16.871  67.889  1.00  0.00    -0.344 A  
HETATM   19  C   UNL     1      -9.690  17.990  68.265  1.00  0.00    -0.332 A  
HETATM   20  C   UNL     1      -8.341  17.854  68.567  1.00  0.00    -0.305 A  
HETATM   21  C   UNL     1      -7.748  16.594  68.525  1.00  0.00    -0.215 A  
HETATM   22  C   UNL     1      -8.495  15.471  68.146  1.00  0.00    -0.147 A  
ENDBRANCH  14  17
ENDBRANCH  12  13
ENDBRANCH  11  12
ENDBRANCH  10  11
ENDBRANCH   9  10
ENDBRANCH   8   9
ENDBRANCH   7   8
ENDBRANCH   4   7
TORSDOF 8
ENDMDL
MODEL      276
REMARK 921   NORMALIZED FREE ENERGY PREDICTED BY IDOCK:   -2.87 KCAL/MOL
REMARK 922        TOTAL FREE ENERGY PREDICTED BY IDOCK:   -5.00 KCAL/MOL
REMARK 923 INTER-LIGAND FREE ENERGY PREDICTED BY IDOCK:   -3.81 KCAL/MOL
REMARK 924 INTRA-LIGAND FREE ENERGY PREDICTED BY IDOCK:   -1.18 KCAL/MOL
REMARK 927      BINDING AFFINITY PREDICTED BY RF-SCORE:    0.00 PKD
ROOT
HETATM    1  O   UNL     1      -9.647   5.836  74.195  1.00  0.00    -0.141 OA 
HETATM    2  N   UNL     1      -8.899   6.845  73.569  1.00  0.00    -0.131 N  
HETATM    3  H   UNL     1      -9.258   5.316  74.888  1.00  0.00     0.000 HD 
HETATM    4  C   UNL     1      -9.459   7.593  72.573  1.00  0.00    -0.169 C  
HETATM    5  H   UNL     1      -7.937   7.020  73.858  1.00  0.00     0.000 HD 
HETATM    6  O   UNL     1      -8.813   8.491  72.035  1.00  0.00    -0.191 OA 
ENDROOT
BRANCH   4   7
HETATM    7  C   UNL     1     -10.884   7.239  72.195  1.00  0.00    -0.263 C  
BRANCH   7   8
HETATM    8  C   UNL     1     -11.848   8.393  72.453  1.00  0.00    -0.452 C  
BRANCH   8   9
HETATM    9  C   UNL     1     -12.324   9.013  71.144  1.00  0.00    -0.306 C  
BRANCH   9  10
HETATM   10  C   UNL     1     -11.591  10.325  70.848  1.00  0.00    -0.454 C  
BRANCH  10  11
HETATM   11  C   UNL     1     -10.465  10.064  69.860  1.00  0.00    -0.317 C  
BRANCH  11  12
HETATM   12  C   UNL     1     -10.940   9.721  68.445  1.00  0.00    -0.200 C  
BRANCH  12  13
HETATM   13  C   UNL     1     -10.352   8.373  68.056  1.00  0.00    -0.215 C  
HETATM   14  N   UNL     1      -9.236   8.009  68.788  1.00  0.00    -0.144 N  
HETATM   15  O   UNL     1     -10.876   7.695  67.173  1.00  0.00    -0.317 OA 
HETATM   16  H   UNL     1      -8.893   8.663  69.491  1.00  0.00     0.000 HD 
BRANCH  14  17
HETATM   17  C   UNL     1      -8.540   6.786  68.622  1.00  0.00    -0.122 A  
HETATM   18  C   UNL     1      -8.681   5.708  69.503  1.00  0.00    -0.109 A  
HETATM   19  C   UNL     1      -7.897   4.563  69.371  1.00  0.00    -0.062 A  
HETATM   20  C   UNL     1      -6.976   4.470  68.334  1.00  0.00    -0.052 A  
HETATM   21  C   UNL     1      -6.868   5.511  67.413  1.00  0.00    -0.060 A  
HETATM   22  C   UNL     1      -7.654   6.662  67.547  1.00  0.00    -0.105 A  
ENDBRANCH  14  17
ENDBRANCH  12  13
ENDBRANCH  11  12
ENDBRANCH  10  11
ENDBRANCH   9  10
ENDBRANCH   8   9
ENDBRANCH   7   8
ENDBRANCH   4   7
TORSDOF 8
ENDMDL
MODEL      277
REMARK 921   NORMALIZED FREE ENERGY PREDICTED BY IDOCK:   -2.85 KCAL/MOL
REMARK 922        TOTAL FREE ENERGY PREDICTED BY IDOCK:   -4.97 KCAL/MOL
REMARK 923 INTER-LIGAND FREE ENERGY PREDICTED BY IDOCK:   -4.42 KCAL/MOL
REMARK 924 INTRA-LIGAND FREE ENERGY PREDICTED BY IDOCK:   -0.55 KCAL/MOL
REMARK 927      BINDING AFFINITY PREDICTED BY RF-SCORE:    0.00 PKD
ROOT
HETATM    1  O   UNL     1      -7.460  13.012  66.953  1.00  0.00    -0.379 OA 
HETATM    2  N   UNL     1      -8.726  13.216  66.382  1.00  0.00    -0.422 N  
HETATM    3  H   UNL     1      -6.806  13.701  66.920  1.00  0.00     0.000 HD 
HETATM    4  C   UNL     1      -9.665  12.226  66.430  1.00  0.00    -0.234 C  
HETATM    5  H   UNL     1      -8.944  14.105  65.931  1.00  0.00     0.000 HD 
HETATM    6  O   UNL     1     -10.781  12.409  65.947  1.00  0.00    -0.254 OA 
ENDROOT
BRANCH   4   7
HETATM    7  C   UNL     1      -9.237  10.933  67.096  1.00  0.00    -0.159 C  
BRANCH   7   8
HETATM    8  C   UNL     1      -8.773   9.893  66.080  1.00  0.00    -0.150 C  
BRANCH   8   9
HETATM    9  C   UNL     1      -9.656   8.651  66.125  1.00  0.00    -0.305 C  
BRANCH   9  10
HETATM   10  C   UNL     1     -10.271   8.452  67.513  1.00  0.00    -0.308 C  
BRANCH  10  11
HETATM   11  C   UNL     1     -11.008   7.123  67.555  1.00  0.00    -0.261 C  
BRANCH  11  12
HETATM   12  C   UNL     1     -10.177   5.962  68.106  1.00  0.00    -0.225 C  
BRANCH  12  13
HETATM   13  C   UNL     1     -10.506   5.793  69.582  1.00  0.00    -0.293 C  
HETATM   14  N   UNL     1      -9.606   5.005  70.277  1.00  0.00    -0.171 N  
HETATM   15  O   UNL     1     -11.489   6.350  70.069  1.00  0.00    -0.401 OA 
HETATM   16  H   UNL     1      -8.832   4.593  69.756  1.00  0.00     0.000 HD 
BRANCH  14  17
HETATM   17  C   UNL     1      -9.693   4.734  71.665  1.00  0.00    -0.169 A  
HETATM   18  C   UNL     1      -9.043   5.509  72.630  1.00  0.00    -0.140 A  
HETATM   19  C   UNL     1      -9.060   5.147  73.977  1.00  0.00    -0.118 A  
HETATM   20  C   UNL     1      -9.755   4.012  74.379  1.00  0.00    -0.155 A  
HETATM   21  C   UNL     1     -10.458   3.263  73.436  1.00  0.00    -0.262 A  
HETATM   22  C   UNL     1     -10.438   3.627  72.084  1.00  0.00    -0.018 A  
ENDBRANCH  14  17
ENDBRANCH  12  13
ENDBRANCH  11  12
ENDBRANCH  10  11
ENDBRANCH   9  10
ENDBRANCH   8   9
ENDBRANCH   7   8
ENDBRANCH   4   7
TORSDOF 8
ENDMDL
MODEL      278
REMARK 921   NORMALIZED FREE ENERGY PREDICTED BY IDOCK:   -2.85 KCAL/MOL
REMARK 922        TOTAL FREE ENERGY PREDICTED BY IDOCK:   -4.97 KCAL/MOL
REMARK 923 INTER-LIGAND FREE ENERGY PREDICTED BY IDOCK:   -4.96 KCAL/MOL
REMARK 924 INTRA-LIGAND FREE ENERGY PREDICTED BY IDOCK:   -0.00 KCAL/MOL
REMARK 927      BINDING AFFINITY PREDICTED BY RF-SCORE:    0.00 PKD
ROOT
HETATM    1  O   UNL     1     -12.238  14.875  68.554  1.00  0.00    -0.576 OA 
HETATM    2  N   UNL     1     -12.622  14.054  67.483  1.00  0.00    -0.347 N  
HETATM    3  H   UNL     1     -12.779  15.615  68.805  1.00  0.00     0.000 HD 
HETATM    4  C   UNL     1     -11.845  12.991  67.123  1.00  0.00    -0.373 C  
HETATM    5  H   UNL     1     -13.483  14.252  66.973  1.00  0.00     0.000 HD 
HETATM    6  O   UNL     1     -12.188  12.258  66.197  1.00  0.00    -0.647 OA 
ENDROOT
BRANCH   4   7
HETATM    7  C   UNL     1     -10.572  12.796  67.923  1.00  0.00    -0.232 C  
BRANCH   7   8
HETATM    8  C   UNL     1      -9.350  13.358  67.201  1.00  0.00    -0.240 C  
BRANCH   8   9
HETATM    9  C   UNL     1      -8.139  13.404  68.126  1.00  0.00    -0.155 C  
BRANCH   9  10
HETATM   10  C   UNL     1      -7.444  12.042  68.205  1.00  0.00    -0.112 C  
BRANCH  10  11
HETATM   11  C   UNL     1      -6.948  11.807  69.623  1.00  0.00     0.094 C  
BRANCH  11  12
HETATM   12  C   UNL     1      -6.182  10.495  69.811  1.00  0.00    -0.074 C  
BRANCH  12  13
HETATM   13  C   UNL     1      -6.842   9.711  70.935  1.00  0.00    -0.047 C  
HETATM   14  N   UNL     1      -8.215   9.589  70.810  1.00  0.00    -0.132 N  
HETATM   15  O   UNL     1      -6.164   9.229  71.841  1.00  0.00    -0.209 OA 
HETATM   16  H   UNL     1      -8.663  10.041  70.013  1.00  0.00     0.000 HD 
BRANCH  14  17
HETATM   17  C   UNL     1      -9.036   8.877  71.719  1.00  0.00    -0.171 A  
HETATM   18  C   UNL     1      -8.549   8.324  72.907  1.00  0.00    -0.276 A  
HETATM   19  C   UNL     1      -9.361   7.535  73.721  1.00  0.00    -0.331 A  
HETATM   20  C   UNL     1     -10.686   7.313  73.368  1.00  0.00    -0.415 A  
HETATM   21  C   UNL     1     -11.203   7.907  72.218  1.00  0.00    -0.389 A  
HETATM   22  C   UNL     1     -10.386   8.698  71.400  1.00  0.00    -0.331 A  
ENDBRANCH  14  17
ENDBRANCH  12  13
ENDBRANCH  11  12
ENDBRANCH  10  11
ENDBRANCH   9  10
ENDBRANCH   8   9
ENDBRANCH   7   8
ENDBRANCH   4   7
TORSDOF 8
ENDMDL
MODEL      279
REMARK 921   NORMALIZED FREE ENERGY PREDICTED BY IDOCK:   -2.84 KCAL/MOL
REMARK 922        TOTAL FREE ENERGY PREDICTED BY IDOCK:   -4.96 KCAL/MOL
REMARK 923 INTER-LIGAND FREE ENERGY PREDICTED BY IDOCK:   -4.72 KCAL/MOL
REMARK 924 INTRA-LIGAND FREE ENERGY PREDICTED BY IDOCK:   -0.24 KCAL/MOL
REMARK 927      BINDING AFFINITY PREDICTED BY RF-SCORE:    0.00 PKD
ROOT
HETATM    1  O   UNL     1     -11.161   4.614  64.704  1.00  0.00    -0.533 OA 
HETATM    2  N   UNL     1     -10.741   4.078  65.932  1.00  0.00    -0.193 N  
HETATM    3  H   UNL     1     -11.991   4.346  64.327  1.00  0.00     0.000 HD 
HETATM    4  C   UNL     1      -9.548   4.462  66.474  1.00  0.00    -0.197 C  
HETATM    5  H   UNL     1     -11.327   3.401  66.419  1.00  0.00     0.000 HD 
HETATM    6  O   UNL     1      -9.186   4.009  67.558  1.00  0.00    -0.138 OA 
ENDROOT
BRANCH   4   7
HETATM    7  C   UNL     1      -8.735   5.451  65.661  1.00  0.00    -0.152 C  
BRANCH   7   8
HETATM    8  C   UNL     1      -8.462   6.739  66.432  1.00  0.00    -0.126 C  
BRANCH   8   9
HETATM    9  C   UNL     1      -8.493   7.950  65.507  1.00  0.00    -0.153 C  
BRANCH   9  10
HETATM   10  C   UNL     1      -9.701   8.845  65.798  1.00  0.00    -0.193 C  
BRANCH  10  11
HETATM   11  C   UNL     1     -10.374   8.385  67.081  1.00  0.00    -0.381 C  
BRANCH  11  12
HETATM   12  C   UNL     1     -10.371   9.429  68.201  1.00  0.00    -0.255 C  
BRANCH  12  13
HETATM   13  C   UNL     1      -9.857  10.743  67.631  1.00  0.00    -0.171 C  
HETATM   14  N   UNL     1     -10.854  11.617  67.236  1.00  0.00    -0.241 N  
HETATM   15  O   UNL     1      -8.649  10.966  67.570  1.00  0.00    -0.126 OA 
HETATM   16  H   UNL     1     -11.822  11.312  67.332  1.00  0.00     0.000 HD 
BRANCH  14  17
HETATM   17  C   UNL     1     -10.614  12.909  66.706  1.00  0.00    -0.257 A  
HETATM   18  C   UNL     1     -10.651  13.185  65.335  1.00  0.00    -0.311 A  
HETATM   19  C   UNL     1     -10.301  14.443  64.844  1.00  0.00    -0.419 A  
HETATM   20  C   UNL     1      -9.934  15.452  65.725  1.00  0.00    -0.393 A  
HETATM   21  C   UNL     1      -9.952  15.210  67.098  1.00  0.00    -0.237 A  
HETATM   22  C   UNL     1     -10.302  13.946  67.590  1.00  0.00    -0.242 A  
ENDBRANCH  14  17
ENDBRANCH  12  13
ENDBRANCH  11  12
ENDBRANCH  10  11
ENDBRANCH   9  10
ENDBRANCH   8   9
ENDBRANCH   7   8
ENDBRANCH   4   7
TORSDOF 8
ENDMDL
MODEL      280
REMARK 921   NORMALIZED FREE ENERGY PREDICTED BY IDOCK:   -2.84 KCAL/MOL
REMARK 922        TOTAL FREE ENERGY PREDICTED BY IDOCK:   -4.95 KCAL/MOL
REMARK 923 INTER-LIGAND FREE ENERGY PREDICTED BY IDOCK:   -4.70 KCAL/MOL
REMARK 924 INTRA-LIGAND FREE ENERGY PREDICTED BY IDOCK:   -0.25 KCAL/MOL
REMARK 927      BINDING AFFINITY PREDICTED BY RF-SCORE:    0.00 PKD
ROOT
HETATM    1  O   UNL     1      -7.613  11.028  65.086  1.00  0.00    -0.354 OA 
HETATM    2  N   UNL     1      -8.537  10.896  64.038  1.00  0.00    -0.369 N  
HETATM    3  H   UNL     1      -6.822  10.502  65.093  1.00  0.00     0.000 HD 
HETATM    4  C   UNL     1      -9.674  11.653  64.028  1.00  0.00    -0.202 C  
HETATM    5  H   UNL     1      -8.359  10.235  63.283  1.00  0.00     0.000 HD 
HETATM    6  O   UNL     1     -10.476  11.553  63.102  1.00  0.00    -0.347 OA 
ENDROOT
BRANCH   4   7
HETATM    7  C   UNL     1      -9.862  12.586  65.209  1.00  0.00    -0.157 C  
BRANCH   7   8
HETATM    8  C   UNL     1     -11.241  13.239  65.207  1.00  0.00    -0.315 C  
BRANCH   8   9
HETATM    9  C   UNL     1     -11.417  14.151  66.416  1.00  0.00    -0.362 C  
BRANCH   9  10
HETATM   10  C   UNL     1     -12.285  13.491  67.492  1.00  0.00    -0.247 C  
BRANCH  10  11
HETATM   11  C   UNL     1     -11.469  13.312  68.762  1.00  0.00    -0.346 C  
BRANCH  11  12
HETATM   12  C   UNL     1     -10.272  12.370  68.611  1.00  0.00    -0.169 C  
BRANCH  12  13
HETATM   13  C   UNL     1     -10.613  11.049  69.285  1.00  0.00    -0.201 C  
HETATM   14  N   UNL     1      -9.635  10.078  69.155  1.00  0.00    -0.197 N  
HETATM   15  O   UNL     1     -11.670  10.916  69.900  1.00  0.00    -0.277 OA 
HETATM   16  H   UNL     1      -8.802  10.310  68.614  1.00  0.00     0.000 HD 
BRANCH  14  17
HETATM   17  C   UNL     1      -9.719   8.784  69.725  1.00  0.00    -0.177 A  
HETATM   18  C   UNL     1     -10.880   8.007  69.674  1.00  0.00    -0.172 A  
HETATM   19  C   UNL     1     -10.960   6.785  70.341  1.00  0.00    -0.330 A  
HETATM   20  C   UNL     1      -9.862   6.312  71.050  1.00  0.00    -0.206 A  
HETATM   21  C   UNL     1      -8.678   7.046  71.060  1.00  0.00    -0.139 A  
HETATM   22  C   UNL     1      -8.600   8.274  70.390  1.00  0.00    -0.134 A  
ENDBRANCH  14  17
ENDBRANCH  12  13
ENDBRANCH  11  12
ENDBRANCH  10  11
ENDBRANCH   9  10
ENDBRANCH   8   9
ENDBRANCH   7   8
ENDBRANCH   4   7
TORSDOF 8
ENDMDL
MODEL      281
REMARK 921   NORMALIZED FREE ENERGY PREDICTED BY IDOCK:   -2.79 KCAL/MOL
REMARK 922        TOTAL FREE ENERGY PREDICTED BY IDOCK:   -4.88 KCAL/MOL
REMARK 923 INTER-LIGAND FREE ENERGY PREDICTED BY IDOCK:   -4.26 KCAL/MOL
REMARK 924 INTRA-LIGAND FREE ENERGY PREDICTED BY IDOCK:   -0.61 KCAL/MOL
REMARK 927      BINDING AFFINITY PREDICTED BY RF-SCORE:    0.00 PKD
ROOT
HETATM    1  O   UNL     1      -5.896  14.225  70.519  1.00  0.00    -0.143 OA 
HETATM    2  N   UNL     1      -6.946  13.620  69.810  1.00  0.00    -0.340 N  
HETATM    3  H   UNL     1      -5.982  15.121  70.823  1.00  0.00     0.000 HD 
HETATM    4  C   UNL     1      -6.822  12.332  69.372  1.00  0.00     0.007 C  
HETATM    5  H   UNL     1      -7.802  14.142  69.623  1.00  0.00     0.000 HD 
HETATM    6  O   UNL     1      -7.747  11.792  68.768  1.00  0.00    -0.130 OA 
ENDROOT
BRANCH   4   7
HETATM    7  C   UNL     1      -5.502  11.650  69.674  1.00  0.00    -0.069 C  
BRANCH   7   8
HETATM    8  C   UNL     1      -5.527  10.925  71.017  1.00  0.00    -0.081 C  
BRANCH   8   9
HETATM    9  C   UNL     1      -5.844   9.445  70.836  1.00  0.00    -0.060 C  
BRANCH   9  10
HETATM   10  C   UNL     1      -7.314   9.147  71.144  1.00  0.00    -0.091 C  
BRANCH  10  11
HETATM   11  C   UNL     1      -7.691   7.798  70.554  1.00  0.00    -0.088 C  
BRANCH  11  12
HETATM   12  C   UNL     1      -8.516   7.884  69.267  1.00  0.00    -0.137 C  
BRANCH  12  13
HETATM   13  C   UNL     1      -9.930   8.311  69.631  1.00  0.00    -0.193 C  
HETATM   14  N   UNL     1     -10.492   7.585  70.666  1.00  0.00    -0.214 N  
HETATM   15  O   UNL     1     -10.473   9.242  69.037  1.00  0.00    -0.210 OA 
HETATM   16  H   UNL     1      -9.941   6.831  71.074  1.00  0.00     0.000 HD 
BRANCH  14  17
HETATM   17  C   UNL     1     -11.784   7.825  71.196  1.00  0.00    -0.284 A  
HETATM   18  C   UNL     1     -12.853   6.941  71.015  1.00  0.00    -0.220 A  
HETATM   19  C   UNL     1     -14.137   7.263  71.455  1.00  0.00    -0.515 A  
HETATM   20  C   UNL     1     -14.362   8.469  72.109  1.00  0.00    -0.529 A  
HETATM   21  C   UNL     1     -13.295   9.333  72.350  1.00  0.00    -0.521 A  
HETATM   22  C   UNL     1     -12.006   9.009  71.906  1.00  0.00    -0.445 A  
ENDBRANCH  14  17
ENDBRANCH  12  13
ENDBRANCH  11  12
ENDBRANCH  10  11
ENDBRANCH   9  10
ENDBRANCH   8   9
ENDBRANCH   7   8
ENDBRANCH   4   7
TORSDOF 8
ENDMDL
MODEL      282
REMARK 921   NORMALIZED FREE ENERGY PREDICTED BY IDOCK:   -2.76 KCAL/MOL
REMARK 922        TOTAL FREE ENERGY PREDICTED BY IDOCK:   -4.84 KCAL/MOL
REMARK 923 INTER-LIGAND FREE ENERGY PREDICTED BY IDOCK:   -4.21 KCAL/MOL
REMARK 924 INTRA-LIGAND FREE ENERGY PREDICTED BY IDOCK:   -0.63 KCAL/MOL
REMARK 927      BINDING AFFINITY PREDICTED BY RF-SCORE:    0.00 PKD
ROOT
HETATM    1  O   UNL     1      -6.590   5.683  73.243  1.00  0.00    -0.066 OA 
HETATM    2  N   UNL     1      -6.358   6.971  73.750  1.00  0.00    -0.066 N  
HETATM    3  H   UNL     1      -5.868   5.074  73.142  1.00  0.00     0.000 HD 
HETATM    4  C   UNL     1      -7.395   7.846  73.895  1.00  0.00    -0.144 C  
HETATM    5  H   UNL     1      -5.412   7.253  74.009  1.00  0.00     0.000 HD 
HETATM    6  O   UNL     1      -7.198   8.969  74.356  1.00  0.00    -0.410 OA 
ENDROOT
BRANCH   4   7
HETATM    7  C   UNL     1      -8.757   7.344  73.456  1.00  0.00    -0.220 C  
BRANCH   7   8
HETATM    8  C   UNL     1      -9.504   8.377  72.617  1.00  0.00    -0.335 C  
BRANCH   8   9
HETATM    9  C   UNL     1     -10.703   7.749  71.915  1.00  0.00    -0.272 C  
BRANCH   9  10
HETATM   10  C   UNL     1     -11.878   8.727  71.833  1.00  0.00    -0.437 C  
BRANCH  10  11
HETATM   11  C   UNL     1     -11.395  10.053  71.268  1.00  0.00    -0.336 C  
BRANCH  11  12
HETATM   12  C   UNL     1     -12.032  10.435  69.929  1.00  0.00    -0.289 C  
BRANCH  12  13
HETATM   13  C   UNL     1     -10.939  10.480  68.873  1.00  0.00    -0.246 C  
HETATM   14  N   UNL     1      -9.771  11.091  69.293  1.00  0.00    -0.419 N  
HETATM   15  O   UNL     1     -11.122   9.982  67.763  1.00  0.00    -0.286 OA 
HETATM   16  H   UNL     1      -9.745  11.471  70.238  1.00  0.00     0.000 HD 
BRANCH  14  17
HETATM   17  C   UNL     1      -8.609  11.221  68.492  1.00  0.00    -0.156 A  
HETATM   18  C   UNL     1      -8.189  12.445  67.959  1.00  0.00    -0.168 A  
HETATM   19  C   UNL     1      -7.104  12.515  67.086  1.00  0.00    -0.058 A  
HETATM   20  C   UNL     1      -6.406  11.360  66.754  1.00  0.00    -0.142 A  
HETATM   21  C   UNL     1      -6.775  10.143  67.325  1.00  0.00    -0.073 A  
HETATM   22  C   UNL     1      -7.866  10.073  68.201  1.00  0.00    -0.089 A  
ENDBRANCH  14  17
ENDBRANCH  12  13
ENDBRANCH  11  12
ENDBRANCH  10  11
ENDBRANCH   9  10
ENDBRANCH   8   9
ENDBRANCH   7   8
ENDBRANCH   4   7
TORSDOF 8
ENDMDL
MODEL      283
REMARK 921   NORMALIZED FREE ENERGY PREDICTED BY IDOCK:   -2.76 KCAL/MOL
REMARK 922        TOTAL FREE ENERGY PREDICTED BY IDOCK:   -4.84 KCAL/MOL
REMARK 923 INTER-LIGAND FREE ENERGY PREDICTED BY IDOCK:   -4.44 KCAL/MOL
REMARK 924 INTRA-LIGAND FREE ENERGY PREDICTED BY IDOCK:   -0.40 KCAL/MOL
REMARK 927      BINDING AFFINITY PREDICTED BY RF-SCORE:    0.00 PKD
ROOT
HETATM    1  O   UNL     1      -9.664  14.456  68.510  1.00  0.00    -0.216 OA 
HETATM    2  N   UNL     1      -8.367  14.785  68.087  1.00  0.00    -0.138 N  
HETATM    3  H   UNL     1     -10.288  15.143  68.710  1.00  0.00     0.000 HD 
HETATM    4  C   UNL     1      -7.469  13.797  67.798  1.00  0.00    -0.163 C  
HETATM    5  H   UNL     1      -8.095  15.764  67.994  1.00  0.00     0.000 HD 
HETATM    6  O   UNL     1      -6.338  14.083  67.410  1.00  0.00    -0.323 OA 
ENDROOT
BRANCH   4   7
HETATM    7  C   UNL     1      -7.959  12.376  67.994  1.00  0.00    -0.155 C  
BRANCH   7   8
HETATM    8  C   UNL     1      -8.297  11.699  66.668  1.00  0.00    -0.154 C  
BRANCH   8   9
HETATM    9  C   UNL     1      -9.308  10.576  66.867  1.00  0.00    -0.181 C  
BRANCH   9  10
HETATM   10  C   UNL     1      -9.093   9.445  65.857  1.00  0.00    -0.242 C  
BRANCH  10  11
HETATM   11  C   UNL     1      -9.204   8.105  66.567  1.00  0.00    -0.237 C  
BRANCH  11  12
HETATM   12  C   UNL     1     -10.643   7.657  66.839  1.00  0.00    -0.359 C  
BRANCH  12  13
HETATM   13  C   UNL     1     -10.744   7.226  68.294  1.00  0.00    -0.123 C  
HETATM   14  N   UNL     1     -10.134   8.092  69.184  1.00  0.00    -0.197 N  
HETATM   15  O   UNL     1     -11.348   6.199  68.601  1.00  0.00    -0.319 OA 
HETATM   16  H   UNL     1      -9.659   8.910  68.804  1.00  0.00     0.000 HD 
BRANCH  14  17
HETATM   17  C   UNL     1     -10.127   7.913  70.590  1.00  0.00    -0.194 A  
HETATM   18  C   UNL     1     -11.283   7.626  71.323  1.00  0.00    -0.277 A  
HETATM   19  C   UNL     1     -11.256   7.567  72.716  1.00  0.00    -0.403 A  
HETATM   20  C   UNL     1     -10.061   7.768  73.394  1.00  0.00    -0.327 A  
HETATM   21  C   UNL     1      -8.889   7.995  72.675  1.00  0.00    -0.264 A  
HETATM   22  C   UNL     1      -8.917   8.056  71.276  1.00  0.00    -0.166 A  
ENDBRANCH  14  17
ENDBRANCH  12  13
ENDBRANCH  11  12
ENDBRANCH  10  11
ENDBRANCH   9  10
ENDBRANCH   8   9
ENDBRANCH   7   8
ENDBRANCH   4   7
TORSDOF 8
ENDMDL
MODEL      284
REMARK 921   NORMALIZED FREE ENERGY PREDICTED BY IDOCK:   -2.72 KCAL/MOL
REMARK 922        TOTAL FREE ENERGY PREDICTED BY IDOCK:   -4.78 KCAL/MOL
REMARK 923 INTER-LIGAND FREE ENERGY PREDICTED BY IDOCK:   -4.47 KCAL/MOL
REMARK 924 INTRA-LIGAND FREE ENERGY PREDICTED BY IDOCK:   -0.31 KCAL/MOL
REMARK 927      BINDING AFFINITY PREDICTED BY RF-SCORE:    0.00 PKD
ROOT
HETATM    1  O   UNL     1      -8.239   7.958  64.414  1.00  0.00    -0.250 OA 
HETATM    2  N   UNL     1      -8.473   6.712  65.017  1.00  0.00    -0.322 N  
HETATM    3  H   UNL     1      -7.906   8.001  63.525  1.00  0.00     0.000 HD 
HETATM    4  C   UNL     1      -8.951   6.651  66.295  1.00  0.00    -0.152 C  
HETATM    5  H   UNL     1      -8.286   5.853  64.501  1.00  0.00     0.000 HD 
HETATM    6  O   UNL     1      -9.175   5.561  66.820  1.00  0.00    -0.124 OA 
ENDROOT
BRANCH   4   7
HETATM    7  C   UNL     1      -9.170   7.981  66.989  1.00  0.00    -0.181 C  
BRANCH   7   8
HETATM    8  C   UNL     1     -10.491   8.017  67.753  1.00  0.00    -0.280 C  
BRANCH   8   9
HETATM    9  C   UNL     1     -10.420   8.990  68.924  1.00  0.00    -0.231 C  
BRANCH   9  10
HETATM   10  C   UNL     1     -11.535   8.725  69.940  1.00  0.00     0.126 C  
BRANCH  10  11
HETATM   11  C   UNL     1     -11.351   9.634  71.144  1.00  0.00    -0.456 C  
BRANCH  11  12
HETATM   12  C   UNL     1     -11.908   9.065  72.451  1.00  0.00    -0.212 C  
BRANCH  12  13
HETATM   13  C   UNL     1     -11.086   7.844  72.833  1.00  0.00    -0.379 C  
HETATM   14  N   UNL     1     -11.673   6.637  72.494  1.00  0.00    -0.467 N  
HETATM   15  O   UNL     1      -9.989   7.974  73.375  1.00  0.00    -0.289 OA 
HETATM   16  H   UNL     1     -12.592   6.662  72.052  1.00  0.00     0.000 HD 
BRANCH  14  17
HETATM   17  C   UNL     1     -11.079   5.372  72.723  1.00  0.00    -0.294 A  
HETATM   18  C   UNL     1      -9.832   5.014  72.200  1.00  0.00    -0.220 A  
HETATM   19  C   UNL     1      -9.330   3.722  72.354  1.00  0.00    -0.168 A  
HETATM   20  C   UNL     1     -10.062   2.775  73.060  1.00  0.00    -0.207 A  
HETATM   21  C   UNL     1     -11.278   3.134  73.639  1.00  0.00    -0.288 A  
HETATM   22  C   UNL     1     -11.782   4.431  73.482  1.00  0.00    -0.074 A  
ENDBRANCH  14  17
ENDBRANCH  12  13
ENDBRANCH  11  12
ENDBRANCH  10  11
ENDBRANCH   9  10
ENDBRANCH   8   9
ENDBRANCH   7   8
ENDBRANCH   4   7
TORSDOF 8
ENDMDL
MODEL      285
REMARK 921   NORMALIZED FREE ENERGY PREDICTED BY IDOCK:   -2.68 KCAL/MOL
REMARK 922        TOTAL FREE ENERGY PREDICTED BY IDOCK:   -4.72 KCAL/MOL
REMARK 923 INTER-LIGAND FREE ENERGY PREDICTED BY IDOCK:   -3.94 KCAL/MOL
REMARK 924 INTRA-LIGAND FREE ENERGY PREDICTED BY IDOCK:   -0.78 KCAL/MOL
REMARK 927      BINDING AFFINITY PREDICTED BY RF-SCORE:    0.00 PKD
ROOT
HETATM    1  O   UNL     1     -13.473   7.160  71.956  1.00  0.00    -0.530 OA 
HETATM    2  N   UNL     1     -12.969   7.076  70.649  1.00  0.00    -0.506 N  
HETATM    3  H   UNL     1     -14.317   7.566  72.115  1.00  0.00     0.000 HD 
HETATM    4  C   UNL     1     -11.756   6.492  70.419  1.00  0.00    -0.375 C  
HETATM    5  H   UNL     1     -13.510   7.451  69.869  1.00  0.00     0.000 HD 
HETATM    6  O   UNL     1     -11.320   6.400  69.273  1.00  0.00    -0.379 OA 
ENDROOT
BRANCH   4   7
HETATM    7  C   UNL     1     -11.017   5.990  71.644  1.00  0.00    -0.328 C  
BRANCH   7   8
HETATM    8  C   UNL     1      -9.666   6.679  71.819  1.00  0.00    -0.168 C  
BRANCH   8   9
HETATM    9  C   UNL     1      -8.528   5.780  71.351  1.00  0.00    -0.128 C  
BRANCH   9  10
HETATM   10  C   UNL     1      -8.844   4.302  71.599  1.00  0.00    -0.145 C  
BRANCH  10  11
HETATM   11  C   UNL     1      -8.656   3.521  70.308  1.00  0.00    -0.104 C  
BRANCH  11  12
HETATM   12  C   UNL     1      -8.209   4.373  69.118  1.00  0.00    -0.076 C  
BRANCH  12  13
HETATM   13  C   UNL     1      -8.689   3.703  67.840  1.00  0.00    -0.106 C  
HETATM   14  N   UNL     1      -8.524   4.472  66.701  1.00  0.00    -0.106 N  
HETATM   15  O   UNL     1      -9.155   2.565  67.869  1.00  0.00    -0.149 OA 
HETATM   16  H   UNL     1      -8.130   5.406  66.809  1.00  0.00     0.000 HD 
BRANCH  14  17
HETATM   17  C   UNL     1      -8.870   4.044  65.396  1.00  0.00    -0.123 A  
HETATM   18  C   UNL     1      -7.920   3.610  64.464  1.00  0.00    -0.086 A  
HETATM   19  C   UNL     1      -8.285   3.302  63.154  1.00  0.00    -0.081 A  
HETATM   20  C   UNL     1      -9.616   3.398  62.765  1.00  0.00    -0.099 A  
HETATM   21  C   UNL     1     -10.582   3.770  63.699  1.00  0.00    -0.257 A  
HETATM   22  C   UNL     1     -10.214   4.081  65.014  1.00  0.00    -0.192 A  
ENDBRANCH  14  17
ENDBRANCH  12  13
ENDBRANCH  11  12
ENDBRANCH  10  11
ENDBRANCH   9  10
ENDBRANCH   8   9
ENDBRANCH   7   8
ENDBRANCH   4   7
TORSDOF 8
ENDMDL
MODEL      286
REMARK 921   NORMALIZED FREE ENERGY PREDICTED BY IDOCK:   -2.66 KCAL/MOL
REMARK 922        TOTAL FREE ENERGY PREDICTED BY IDOCK:   -4.69 KCAL/MOL
REMARK 923 INTER-LIGAND FREE ENERGY PREDICTED BY IDOCK:   -3.96 KCAL/MOL
REMARK 924 INTRA-LIGAND FREE ENERGY PREDICTED BY IDOCK:   -0.73 KCAL/MOL
REMARK 927      BINDING AFFINITY PREDICTED BY RF-SCORE:    0.00 PKD
ROOT
HETATM    1  O   UNL     1      -6.955  10.878  65.180  1.00  0.00    -0.360 OA 
HETATM    2  N   UNL     1      -6.591   9.738  64.446  1.00  0.00    -0.112 N  
HETATM    3  H   UNL     1      -6.392  11.643  65.182  1.00  0.00     0.000 HD 
HETATM    4  C   UNL     1      -7.402   8.639  64.442  1.00  0.00    -0.103 C  
HETATM    5  H   UNL     1      -5.721   9.732  63.914  1.00  0.00     0.000 HD 
HETATM    6  O   UNL     1      -7.095   7.646  63.785  1.00  0.00    -0.060 OA 
ENDROOT
BRANCH   4   7
HETATM    7  C   UNL     1      -8.658   8.736  65.286  1.00  0.00    -0.212 C  
BRANCH   7   8
HETATM    8  C   UNL     1      -8.453   8.165  66.686  1.00  0.00    -0.129 C  
BRANCH   8   9
HETATM    9  C   UNL     1      -9.543   8.643  67.638  1.00  0.00    -0.190 C  
BRANCH   9  10
HETATM   10  C   UNL     1      -8.947   9.190  68.939  1.00  0.00    -0.139 C  
BRANCH  10  11
HETATM   11  C   UNL     1      -9.638  10.494  69.303  1.00  0.00    -0.199 C  
BRANCH  11  12
HETATM   12  C   UNL     1     -10.802  10.867  68.381  1.00  0.00    -0.266 C  
BRANCH  12  13
HETATM   13  C   UNL     1     -10.657  12.330  67.993  1.00  0.00    -0.216 C  
HETATM   14  N   UNL     1      -9.776  13.042  68.787  1.00  0.00    -0.418 N  
HETATM   15  O   UNL     1     -11.278  12.785  67.033  1.00  0.00    -0.267 OA 
HETATM   16  H   UNL     1      -9.327  12.551  69.560  1.00  0.00     0.000 HD 
BRANCH  14  17
HETATM   17  C   UNL     1      -9.459  14.410  68.595  1.00  0.00    -0.193 A  
HETATM   18  C   UNL     1     -10.186  15.447  69.189  1.00  0.00    -0.239 A  
HETATM   19  C   UNL     1      -9.914  16.782  68.889  1.00  0.00    -0.271 A  
HETATM   20  C   UNL     1      -8.888  17.097  68.006  1.00  0.00    -0.229 A  
HETATM   21  C   UNL     1      -8.116  16.076  67.453  1.00  0.00    -0.188 A  
HETATM   22  C   UNL     1      -8.391  14.737  67.755  1.00  0.00    -0.166 A  
ENDBRANCH  14  17
ENDBRANCH  12  13
ENDBRANCH  11  12
ENDBRANCH  10  11
ENDBRANCH   9  10
ENDBRANCH   8   9
ENDBRANCH   7   8
ENDBRANCH   4   7
TORSDOF 8
ENDMDL
MODEL      287
REMARK 921   NORMALIZED FREE ENERGY PREDICTED BY IDOCK:   -2.57 KCAL/MOL
REMARK 922        TOTAL FREE ENERGY PREDICTED BY IDOCK:   -4.56 KCAL/MOL
REMARK 923 INTER-LIGAND FREE ENERGY PREDICTED BY IDOCK:   -5.35 KCAL/MOL
REMARK 924 INTRA-LIGAND FREE ENERGY PREDICTED BY IDOCK:    0.79 KCAL/MOL
REMARK 927      BINDING AFFINITY PREDICTED BY RF-SCORE:    0.00 PKD
ROOT
HETATM    1  O   UNL     1     -11.400  11.014  66.515  1.00  0.00    -0.235 OA 
HETATM    2  N   UNL     1     -10.078  10.812  66.941  1.00  0.00    -0.204 N  
HETATM    3  H   UNL     1     -11.573  11.365  65.649  1.00  0.00     0.000 HD 
HETATM    4  C   UNL     1      -9.829  10.308  68.185  1.00  0.00    -0.148 C  
HETATM    5  H   UNL     1      -9.302  11.041  66.319  1.00  0.00     0.000 HD 
HETATM    6  O   UNL     1      -8.673  10.112  68.554  1.00  0.00    -0.116 OA 
ENDROOT
BRANCH   4   7
HETATM    7  C   UNL     1     -11.046  10.026  69.044  1.00  0.00    -0.221 C  
BRANCH   7   8
HETATM    8  C   UNL     1     -12.093  11.132  68.935  1.00  0.00    -0.276 C  
BRANCH   8   9
HETATM    9  C   UNL     1     -11.770  12.287  69.877  1.00  0.00    -0.346 C  
BRANCH   9  10
HETATM   10  C   UNL     1     -12.581  12.194  71.173  1.00  0.00    -0.360 C  
BRANCH  10  11
HETATM   11  C   UNL     1     -13.123  13.569  71.529  1.00  0.00    -0.427 C  
BRANCH  11  12
HETATM   12  C   UNL     1     -12.178  14.414  72.387  1.00  0.00    -0.172 C  
BRANCH  12  13
HETATM   13  C   UNL     1     -11.601  15.521  71.518  1.00  0.00    -0.419 C  
HETATM   14  N   UNL     1     -10.961  15.069  70.377  1.00  0.00    -0.439 N  
HETATM   15  O   UNL     1     -11.738  16.701  71.837  1.00  0.00    -0.383 OA 
HETATM   16  H   UNL     1     -10.908  14.062  70.227  1.00  0.00     0.000 HD 
BRANCH  14  17
HETATM   17  C   UNL     1     -10.375  15.917  69.405  1.00  0.00    -0.265 A  
HETATM   18  C   UNL     1     -11.132  16.716  68.541  1.00  0.00    -0.301 A  
HETATM   19  C   UNL     1     -10.526  17.454  67.525  1.00  0.00    -0.354 A  
HETATM   20  C   UNL     1      -9.145  17.421  67.376  1.00  0.00    -0.236 A  
HETATM   21  C   UNL     1      -8.372  16.677  68.266  1.00  0.00    -0.198 A  
HETATM   22  C   UNL     1      -8.982  15.936  69.286  1.00  0.00    -0.251 A  
ENDBRANCH  14  17
ENDBRANCH  12  13
ENDBRANCH  11  12
ENDBRANCH  10  11
ENDBRANCH   9  10
ENDBRANCH   8   9
ENDBRANCH   7   8
ENDBRANCH   4   7
TORSDOF 8
ENDMDL
MODEL      288
REMARK 921   NORMALIZED FREE ENERGY PREDICTED BY IDOCK:   -2.55 KCAL/MOL
REMARK 922        TOTAL FREE ENERGY PREDICTED BY IDOCK:   -4.52 KCAL/MOL
REMARK 923 INTER-LIGAND FREE ENERGY PREDICTED BY IDOCK:   -3.75 KCAL/MOL
REMARK 924 INTRA-LIGAND FREE ENERGY PREDICTED BY IDOCK:   -0.77 KCAL/MOL
REMARK 927      BINDING AFFINITY PREDICTED BY RF-SCORE:    0.00 PKD
ROOT
HETATM    1  O   UNL     1      -9.274   8.002  65.544  1.00  0.00    -0.402 OA 
HETATM    2  N   UNL     1      -8.956   6.636  65.492  1.00  0.00    -0.364 N  
HETATM    3  H   UNL     1      -9.190   8.540  64.765  1.00  0.00     0.000 HD 
HETATM    4  C   UNL     1      -9.077   5.863  66.611  1.00  0.00    -0.134 C  
HETATM    5  H   UNL     1      -8.634   6.221  64.618  1.00  0.00     0.000 HD 
HETATM    6  O   UNL     1      -8.817   4.662  66.564  1.00  0.00    -0.112 OA 
ENDROOT
BRANCH   4   7
HETATM    7  C   UNL     1      -9.534   6.577  67.867  1.00  0.00    -0.120 C  
BRANCH   7   8
HETATM    8  C   UNL     1     -10.745   5.899  68.503  1.00  0.00    -0.327 C  
BRANCH   8   9
HETATM    9  C   UNL     1     -11.330   6.756  69.619  1.00  0.00    -0.326 C  
BRANCH   9  10
HETATM   10  C   UNL     1     -10.418   7.941  69.951  1.00  0.00    -0.229 C  
BRANCH  10  11
HETATM   11  C   UNL     1     -10.989   8.703  71.136  1.00  0.00    -0.320 C  
BRANCH  11  12
HETATM   12  C   UNL     1     -10.921   7.942  72.463  1.00  0.00    -0.412 C  
BRANCH  12  13
HETATM   13  C   UNL     1      -9.462   7.636  72.767  1.00  0.00    -0.188 C  
HETATM   14  N   UNL     1      -9.154   6.287  72.762  1.00  0.00    -0.132 N  
HETATM   15  O   UNL     1      -8.663   8.549  72.971  1.00  0.00    -0.343 OA 
HETATM   16  H   UNL     1      -9.909   5.626  72.584  1.00  0.00     0.000 HD 
BRANCH  14  17
HETATM   17  C   UNL     1      -7.855   5.768  72.987  1.00  0.00    -0.104 A  
HETATM   18  C   UNL     1      -6.971   5.459  71.948  1.00  0.00    -0.075 A  
HETATM   19  C   UNL     1      -5.745   4.846  72.204  1.00  0.00    -0.012 A  
HETATM   20  C   UNL     1      -5.375   4.558  73.512  1.00  0.00    -0.008 A  
HETATM   21  C   UNL     1      -6.219   4.914  74.562  1.00  0.00    -0.057 A  
HETATM   22  C   UNL     1      -7.451   5.529  74.304  1.00  0.00    -0.089 A  
ENDBRANCH  14  17
ENDBRANCH  12  13
ENDBRANCH  11  12
ENDBRANCH  10  11
ENDBRANCH   9  10
ENDBRANCH   8   9
ENDBRANCH   7   8
ENDBRANCH   4   7
TORSDOF 8
ENDMDL
MODEL      289
REMARK 921   NORMALIZED FREE ENERGY PREDICTED BY IDOCK:   -2.50 KCAL/MOL
REMARK 922        TOTAL FREE ENERGY PREDICTED BY IDOCK:   -4.46 KCAL/MOL
REMARK 923 INTER-LIGAND FREE ENERGY PREDICTED BY IDOCK:   -3.86 KCAL/MOL
REMARK 924 INTRA-LIGAND FREE ENERGY PREDICTED BY IDOCK:   -0.60 KCAL/MOL
REMARK 927      BINDING AFFINITY PREDICTED BY RF-SCORE:    0.00 PKD
ROOT
HETATM    1  O   UNL     1     -10.182  13.774  69.154  1.00  0.00    -0.422 OA 
HETATM    2  N   UNL     1      -9.188  14.749  69.334  1.00  0.00    -0.411 N  
HETATM    3  H   UNL     1     -10.890  13.694  69.782  1.00  0.00     0.000 HD 
HETATM    4  C   UNL     1      -8.170  14.863  68.432  1.00  0.00    -0.151 C  
HETATM    5  H   UNL     1      -9.227  15.373  70.140  1.00  0.00     0.000 HD 
HETATM    6  O   UNL     1      -7.308  15.728  68.577  1.00  0.00    -0.117 OA 
ENDROOT
BRANCH   4   7
HETATM    7  C   UNL     1      -8.184  13.872  67.284  1.00  0.00    -0.176 C  
BRANCH   7   8
HETATM    8  C   UNL     1      -7.184  12.738  67.494  1.00  0.00    -0.154 C  
BRANCH   8   9
HETATM    9  C   UNL     1      -7.708  11.430  66.915  1.00  0.00    -0.155 C  
BRANCH   9  10
HETATM   10  C   UNL     1      -8.975  10.965  67.640  1.00  0.00    -0.140 C  
BRANCH  10  11
HETATM   11  C   UNL     1      -9.860  10.197  66.672  1.00  0.00    -0.253 C  
BRANCH  11  12
HETATM   12  C   UNL     1     -10.898   9.298  67.348  1.00  0.00    -0.165 C  
BRANCH  12  13
HETATM   13  C   UNL     1     -10.276   7.928  67.571  1.00  0.00    -0.242 C  
HETATM   14  N   UNL     1     -10.083   7.199  66.410  1.00  0.00    -0.459 N  
HETATM   15  O   UNL     1      -9.969   7.558  68.703  1.00  0.00    -0.162 OA 
HETATM   16  H   UNL     1     -10.385   7.615  65.530  1.00  0.00     0.000 HD 
BRANCH  14  17
HETATM   17  C   UNL     1      -9.491   5.912  66.368  1.00  0.00    -0.155 A  
HETATM   18  C   UNL     1     -10.208   4.740  66.629  1.00  0.00    -0.274 A  
HETATM   19  C   UNL     1      -9.568   3.502  66.687  1.00  0.00    -0.132 A  
HETATM   20  C   UNL     1      -8.201   3.419  66.458  1.00  0.00    -0.096 A  
HETATM   21  C   UNL     1      -7.483   4.571  66.137  1.00  0.00    -0.085 A  
HETATM   22  C   UNL     1      -8.127   5.813  66.080  1.00  0.00    -0.110 A  
ENDBRANCH  14  17
ENDBRANCH  12  13
ENDBRANCH  11  12
ENDBRANCH  10  11
ENDBRANCH   9  10
ENDBRANCH   8   9
ENDBRANCH   7   8
ENDBRANCH   4   7
TORSDOF 8
ENDMDL
MODEL      290
REMARK 921   NORMALIZED FREE ENERGY PREDICTED BY IDOCK:   -2.49 KCAL/MOL
REMARK 922        TOTAL FREE ENERGY PREDICTED BY IDOCK:   -4.44 KCAL/MOL
REMARK 923 INTER-LIGAND FREE ENERGY PREDICTED BY IDOCK:   -4.69 KCAL/MOL
REMARK 924 INTRA-LIGAND FREE ENERGY PREDICTED BY IDOCK:    0.25 KCAL/MOL
REMARK 927      BINDING AFFINITY PREDICTED BY RF-SCORE:    0.00 PKD
ROOT
HETATM    1  O   UNL     1      -6.333   5.656  73.113  1.00  0.00    -0.058 OA 
HETATM    2  N   UNL     1      -6.360   7.035  73.374  1.00  0.00    -0.065 N  
HETATM    3  H   UNL     1      -5.501   5.209  73.006  1.00  0.00     0.000 HD 
HETATM    4  C   UNL     1      -7.554   7.679  73.527  1.00  0.00    -0.114 C  
HETATM    5  H   UNL     1      -5.486   7.557  73.449  1.00  0.00     0.000 HD 
HETATM    6  O   UNL     1      -7.581   8.883  73.774  1.00  0.00    -0.400 OA 
ENDROOT
BRANCH   4   7
HETATM    7  C   UNL     1      -8.796   6.824  73.369  1.00  0.00    -0.143 C  
BRANCH   7   8
HETATM    8  C   UNL     1      -9.175   6.630  71.904  1.00  0.00    -0.147 C  
BRANCH   8   9
HETATM    9  C   UNL     1     -10.206   5.518  71.747  1.00  0.00    -0.256 C  
BRANCH   9  10
HETATM   10  C   UNL     1     -11.461   6.018  71.024  1.00  0.00    -0.236 C  
BRANCH  10  11
HETATM   11  C   UNL     1     -11.064   7.027  69.959  1.00  0.00    -0.316 C  
BRANCH  11  12
HETATM   12  C   UNL     1     -11.127   6.486  68.528  1.00  0.00    -0.347 C  
BRANCH  12  13
HETATM   13  C   UNL     1     -10.642   7.574  67.582  1.00  0.00    -0.233 C  
HETATM   14  N   UNL     1     -11.155   8.830  67.853  1.00  0.00    -0.435 N  
HETATM   15  O   UNL     1      -9.845   7.309  66.683  1.00  0.00    -0.208 OA 
HETATM   16  H   UNL     1     -11.815   8.919  68.625  1.00  0.00     0.000 HD 
BRANCH  14  17
HETATM   17  C   UNL     1     -10.822  10.000  67.126  1.00  0.00    -0.170 A  
HETATM   18  C   UNL     1     -11.457  11.229  67.333  1.00  0.00    -0.300 A  
HETATM   19  C   UNL     1     -11.179  12.329  66.523  1.00  0.00    -0.373 A  
HETATM   20  C   UNL     1     -10.238  12.219  65.506  1.00  0.00    -0.296 A  
HETATM   21  C   UNL     1      -9.553  11.019  65.326  1.00  0.00    -0.270 A  
HETATM   22  C   UNL     1      -9.834   9.914  66.140  1.00  0.00    -0.324 A  
ENDBRANCH  14  17
ENDBRANCH  12  13
ENDBRANCH  11  12
ENDBRANCH  10  11
ENDBRANCH   9  10
ENDBRANCH   8   9
ENDBRANCH   7   8
ENDBRANCH   4   7
TORSDOF 8
ENDMDL
MODEL      291
REMARK 921   NORMALIZED FREE ENERGY PREDICTED BY IDOCK:   -2.48 KCAL/MOL
REMARK 922        TOTAL FREE ENERGY PREDICTED BY IDOCK:   -4.43 KCAL/MOL
REMARK 923 INTER-LIGAND FREE ENERGY PREDICTED BY IDOCK:   -4.45 KCAL/MOL
REMARK 924 INTRA-LIGAND FREE ENERGY PREDICTED BY IDOCK:    0.03 KCAL/MOL
REMARK 927      BINDING AFFINITY PREDICTED BY RF-SCORE:    0.00 PKD
ROOT
HETATM    1  O   UNL     1     -14.244  15.268  70.670  1.00  0.00    -0.702 OA 
HETATM    2  N   UNL     1     -12.962  15.616  71.126  1.00  0.00    -0.496 N  
HETATM    3  H   UNL     1     -14.970  15.869  70.790  1.00  0.00     0.000 HD 
HETATM    4  C   UNL     1     -11.918  14.754  70.955  1.00  0.00    -0.324 C  
HETATM    5  H   UNL     1     -12.812  16.514  71.586  1.00  0.00     0.000 HD 
HETATM    6  O   UNL     1     -10.790  15.063  71.336  1.00  0.00    -0.141 OA 
ENDROOT
BRANCH   4   7
HETATM    7  C   UNL     1     -12.248  13.433  70.287  1.00  0.00    -0.405 C  
BRANCH   7   8
HETATM    8  C   UNL     1     -13.253  12.618  71.095  1.00  0.00    -0.010 C  
BRANCH   8   9
HETATM    9  C   UNL     1     -12.584  11.417  71.753  1.00  0.00    -0.241 C  
BRANCH   9  10
HETATM   10  C   UNL     1     -12.910  10.119  71.009  1.00  0.00    -0.474 C  
BRANCH  10  11
HETATM   11  C   UNL     1     -11.681   9.225  70.988  1.00  0.00    -0.378 C  
BRANCH  11  12
HETATM   12  C   UNL     1     -10.880   9.287  69.685  1.00  0.00    -0.228 C  
BRANCH  12  13
HETATM   13  C   UNL     1      -9.700   8.336  69.800  1.00  0.00    -0.180 C  
HETATM   14  N   UNL     1     -10.030   7.078  70.273  1.00  0.00    -0.179 N  
HETATM   15  O   UNL     1      -8.572   8.697  69.467  1.00  0.00    -0.126 OA 
HETATM   16  H   UNL     1     -11.003   6.903  70.521  1.00  0.00     0.000 HD 
BRANCH  14  17
HETATM   17  C   UNL     1      -9.102   6.019  70.433  1.00  0.00    -0.149 A  
HETATM   18  C   UNL     1      -8.728   5.523  71.686  1.00  0.00    -0.137 A  
HETATM   19  C   UNL     1      -7.730   4.556  71.810  1.00  0.00    -0.091 A  
HETATM   20  C   UNL     1      -7.110   4.053  70.672  1.00  0.00    -0.037 A  
HETATM   21  C   UNL     1      -7.515   4.494  69.413  1.00  0.00    -0.055 A  
HETATM   22  C   UNL     1      -8.516   5.466  69.291  1.00  0.00    -0.099 A  
ENDBRANCH  14  17
ENDBRANCH  12  13
ENDBRANCH  11  12
ENDBRANCH  10  11
ENDBRANCH   9  10
ENDBRANCH   8   9
ENDBRANCH   7   8
ENDBRANCH   4   7
TORSDOF 8
ENDMDL
MODEL      292
REMARK 921   NORMALIZED FREE ENERGY PREDICTED BY IDOCK:   -2.47 KCAL/MOL
REMARK 922        TOTAL FREE ENERGY PREDICTED BY IDOCK:   -4.41 KCAL/MOL
REMARK 923 INTER-LIGAND FREE ENERGY PREDICTED BY IDOCK:   -4.79 KCAL/MOL
REMARK 924 INTRA-LIGAND FREE ENERGY PREDICTED BY IDOCK:    0.37 KCAL/MOL
REMARK 927      BINDING AFFINITY PREDICTED BY RF-SCORE:    0.00 PKD
ROOT
HETATM    1  O   UNL     1     -13.654  14.915  70.306  1.00  0.00    -0.495 OA 
HETATM    2  N   UNL     1     -13.375  15.148  71.662  1.00  0.00    -0.393 N  
HETATM    3  H   UNL     1     -13.777  15.646  69.713  1.00  0.00     0.000 HD 
HETATM    4  C   UNL     1     -13.198  14.096  72.515  1.00  0.00    -0.502 C  
HETATM    5  H   UNL     1     -13.305  16.104  72.010  1.00  0.00     0.000 HD 
HETATM    6  O   UNL     1     -12.935  14.298  73.699  1.00  0.00    -0.456 OA 
ENDROOT
BRANCH   4   7
HETATM    7  C   UNL     1     -13.350  12.715  71.909  1.00  0.00    -0.485 C  
BRANCH   7   8
HETATM    8  C   UNL     1     -12.222  12.391  70.933  1.00  0.00    -0.290 C  
BRANCH   8   9
HETATM    9  C   UNL     1     -12.602  11.229  70.023  1.00  0.00    -0.169 C  
BRANCH   9  10
HETATM   10  C   UNL     1     -11.393  10.338  69.719  1.00  0.00    -0.334 C  
BRANCH  10  11
HETATM   11  C   UNL     1     -10.793   9.837  71.023  1.00  0.00    -0.378 C  
BRANCH  11  12
HETATM   12  C   UNL     1     -11.366   8.502  71.505  1.00  0.00    -0.348 C  
BRANCH  12  13
HETATM   13  C   UNL     1     -10.334   7.415  71.246  1.00  0.00    -0.192 C  
HETATM   14  N   UNL     1      -9.260   7.435  72.118  1.00  0.00    -0.131 N  
HETATM   15  O   UNL     1     -10.499   6.601  70.339  1.00  0.00    -0.201 OA 
HETATM   16  H   UNL     1      -9.234   8.167  72.827  1.00  0.00     0.000 HD 
BRANCH  14  17
HETATM   17  C   UNL     1      -8.193   6.502  72.088  1.00  0.00    -0.107 A  
HETATM   18  C   UNL     1      -8.196   5.374  71.261  1.00  0.00    -0.120 A  
HETATM   19  C   UNL     1      -7.181   4.421  71.340  1.00  0.00    -0.044 A  
HETATM   20  C   UNL     1      -6.132   4.599  72.233  1.00  0.00    -0.017 A  
HETATM   21  C   UNL     1      -6.084   5.748  73.020  1.00  0.00    -0.048 A  
HETATM   22  C   UNL     1      -7.105   6.705  72.942  1.00  0.00    -0.076 A  
ENDBRANCH  14  17
ENDBRANCH  12  13
ENDBRANCH  11  12
ENDBRANCH  10  11
ENDBRANCH   9  10
ENDBRANCH   8   9
ENDBRANCH   7   8
ENDBRANCH   4   7
TORSDOF 8
ENDMDL
MODEL      293
REMARK 921   NORMALIZED FREE ENERGY PREDICTED BY IDOCK:   -2.43 KCAL/MOL
REMARK 922        TOTAL FREE ENERGY PREDICTED BY IDOCK:   -4.36 KCAL/MOL
REMARK 923 INTER-LIGAND FREE ENERGY PREDICTED BY IDOCK:   -3.62 KCAL/MOL
REMARK 924 INTRA-LIGAND FREE ENERGY PREDICTED BY IDOCK:   -0.73 KCAL/MOL
REMARK 927      BINDING AFFINITY PREDICTED BY RF-SCORE:    0.00 PKD
ROOT
HETATM    1  O   UNL     1      -6.300   4.586  73.731  1.00  0.00    -0.042 OA 
HETATM    2  N   UNL     1      -6.955   5.826  73.675  1.00  0.00    -0.081 N  
HETATM    3  H   UNL     1      -5.416   4.530  74.074  1.00  0.00     0.000 HD 
HETATM    4  C   UNL     1      -8.226   5.906  73.181  1.00  0.00    -0.117 C  
HETATM    5  H   UNL     1      -6.482   6.668  74.003  1.00  0.00     0.000 HD 
HETATM    6  O   UNL     1      -8.810   6.988  73.148  1.00  0.00    -0.123 OA 
ENDROOT
BRANCH   4   7
HETATM    7  C   UNL     1      -8.833   4.606  72.692  1.00  0.00    -0.120 C  
BRANCH   7   8
HETATM    8  C   UNL     1      -8.765   4.479  71.172  1.00  0.00    -0.141 C  
BRANCH   8   9
HETATM    9  C   UNL     1     -10.131   4.721  70.540  1.00  0.00    -0.291 C  
BRANCH   9  10
HETATM   10  C   UNL     1     -10.307   6.188  70.136  1.00  0.00    -0.269 C  
BRANCH  10  11
HETATM   11  C   UNL     1      -9.027   6.693  69.491  1.00  0.00    -0.138 C  
BRANCH  11  12
HETATM   12  C   UNL     1      -9.087   6.785  67.964  1.00  0.00    -0.119 C  
BRANCH  12  13
HETATM   13  C   UNL     1      -9.956   7.975  67.589  1.00  0.00    -0.180 C  
HETATM   14  N   UNL     1      -9.454   9.197  68.004  1.00  0.00    -0.141 N  
HETATM   15  O   UNL     1     -10.997   7.813  66.953  1.00  0.00    -0.217 OA 
HETATM   16  H   UNL     1      -8.582   9.199  68.531  1.00  0.00     0.000 HD 
BRANCH  14  17
HETATM   17  C   UNL     1     -10.076  10.443  67.741  1.00  0.00    -0.181 A  
HETATM   18  C   UNL     1      -9.539  11.387  66.859  1.00  0.00    -0.203 A  
HETATM   19  C   UNL     1     -10.120  12.646  66.710  1.00  0.00    -0.243 A  
HETATM   20  C   UNL     1     -11.266  12.967  67.426  1.00  0.00    -0.325 A  
HETATM   21  C   UNL     1     -11.848  12.016  68.263  1.00  0.00    -0.351 A  
HETATM   22  C   UNL     1     -11.263  10.752  68.412  1.00  0.00    -0.345 A  
ENDBRANCH  14  17
ENDBRANCH  12  13
ENDBRANCH  11  12
ENDBRANCH  10  11
ENDBRANCH   9  10
ENDBRANCH   8   9
ENDBRANCH   7   8
ENDBRANCH   4   7
TORSDOF 8
ENDMDL
MODEL      294
REMARK 921   NORMALIZED FREE ENERGY PREDICTED BY IDOCK:   -2.40 KCAL/MOL
REMARK 922        TOTAL FREE ENERGY PREDICTED BY IDOCK:   -4.31 KCAL/MOL
REMARK 923 INTER-LIGAND FREE ENERGY PREDICTED BY IDOCK:   -4.26 KCAL/MOL
REMARK 924 INTRA-LIGAND FREE ENERGY PREDICTED BY IDOCK:   -0.05 KCAL/MOL
REMARK 927      BINDING AFFINITY PREDICTED BY RF-SCORE:    0.00 PKD
ROOT
HETATM    1  O   UNL     1     -14.182  15.204  70.623  1.00  0.00    -0.595 OA 
HETATM    2  N   UNL     1     -12.922  15.672  71.029  1.00  0.00    -0.491 N  
HETATM    3  H   UNL     1     -14.972  15.620  70.948  1.00  0.00     0.000 HD 
HETATM    4  C   UNL     1     -11.787  15.074  70.562  1.00  0.00    -0.297 C  
HETATM    5  H   UNL     1     -12.856  16.460  71.674  1.00  0.00     0.000 HD 
HETATM    6  O   UNL     1     -10.682  15.494  70.901  1.00  0.00    -0.299 OA 
ENDROOT
BRANCH   4   7
HETATM    7  C   UNL     1     -11.990  13.895  69.632  1.00  0.00    -0.399 C  
BRANCH   7   8
HETATM    8  C   UNL     1     -12.566  12.684  70.360  1.00  0.00    -0.115 C  
BRANCH   8   9
HETATM    9  C   UNL     1     -11.514  11.593  70.528  1.00  0.00     0.168 C  
BRANCH   9  10
HETATM   10  C   UNL     1     -11.668  10.500  69.467  1.00  0.00    -0.313 C  
BRANCH  10  11
HETATM   11  C   UNL     1     -10.303  10.153  68.896  1.00  0.00    -0.223 C  
BRANCH  11  12
HETATM   12  C   UNL     1     -10.346   9.196  67.702  1.00  0.00    -0.314 C  
BRANCH  12  13
HETATM   13  C   UNL     1      -9.617   9.849  66.537  1.00  0.00    -0.190 C  
HETATM   14  N   UNL     1      -8.743   9.007  65.873  1.00  0.00    -0.155 N  
HETATM   15  O   UNL     1      -9.839  11.022  66.240  1.00  0.00    -0.202 OA 
HETATM   16  H   UNL     1      -8.642   8.054  66.221  1.00  0.00     0.000 HD 
BRANCH  14  17
HETATM   17  C   UNL     1      -7.979   9.385  64.741  1.00  0.00    -0.122 A  
HETATM   18  C   UNL     1      -6.584   9.485  64.766  1.00  0.00    -0.088 A  
HETATM   19  C   UNL     1      -5.876   9.967  63.666  1.00  0.00    -0.117 A  
HETATM   20  C   UNL     1      -6.558  10.332  62.511  1.00  0.00    -0.137 A  
HETATM   21  C   UNL     1      -7.942  10.181  62.449  1.00  0.00    -0.153 A  
HETATM   22  C   UNL     1      -8.652   9.698  63.556  1.00  0.00    -0.215 A  
ENDBRANCH  14  17
ENDBRANCH  12  13
ENDBRANCH  11  12
ENDBRANCH  10  11
ENDBRANCH   9  10
ENDBRANCH   8   9
ENDBRANCH   7   8
ENDBRANCH   4   7
TORSDOF 8
ENDMDL
MODEL      295
REMARK 921   NORMALIZED FREE ENERGY PREDICTED BY IDOCK:   -2.37 KCAL/MOL
REMARK 922        TOTAL FREE ENERGY PREDICTED BY IDOCK:   -4.26 KCAL/MOL
REMARK 923 INTER-LIGAND FREE ENERGY PREDICTED BY IDOCK:   -3.83 KCAL/MOL
REMARK 924 INTRA-LIGAND FREE ENERGY PREDICTED BY IDOCK:   -0.43 KCAL/MOL
REMARK 927      BINDING AFFINITY PREDICTED BY RF-SCORE:    0.00 PKD
ROOT
HETATM    1  O   UNL     1      -9.009  13.086  68.660  1.00  0.00    -0.363 OA 
HETATM    2  N   UNL     1      -7.993  13.976  68.277  1.00  0.00    -0.137 N  
HETATM    3  H   UNL     1      -9.782  13.411  69.106  1.00  0.00     0.000 HD 
HETATM    4  C   UNL     1      -6.881  13.510  67.636  1.00  0.00    -0.170 C  
HETATM    5  H   UNL     1      -8.086  14.971  68.478  1.00  0.00     0.000 HD 
HETATM    6  O   UNL     1      -5.998  14.289  67.282  1.00  0.00    -0.300 OA 
ENDROOT
BRANCH   4   7
HETATM    7  C   UNL     1      -6.823  12.012  67.408  1.00  0.00    -0.142 C  
BRANCH   7   8
HETATM    8  C   UNL     1      -6.350  11.262  68.650  1.00  0.00    -0.045 C  
BRANCH   8   9
HETATM    9  C   UNL     1      -7.187  10.010  68.887  1.00  0.00    -0.077 C  
BRANCH   9  10
HETATM   10  C   UNL     1      -7.798  10.003  70.291  1.00  0.00    -0.065 C  
BRANCH  10  11
HETATM   11  C   UNL     1      -9.216   9.459  70.224  1.00  0.00    -0.285 C  
BRANCH  11  12
HETATM   12  C   UNL     1      -9.755   8.946  71.562  1.00  0.00    -0.372 C  
BRANCH  12  13
HETATM   13  C   UNL     1      -9.362   7.484  71.709  1.00  0.00    -0.144 C  
HETATM   14  N   UNL     1     -10.322   6.592  71.262  1.00  0.00    -0.204 N  
HETATM   15  O   UNL     1      -8.265   7.176  72.173  1.00  0.00    -0.099 OA 
HETATM   16  H   UNL     1     -11.197   6.974  70.903  1.00  0.00     0.000 HD 
BRANCH  14  17
HETATM   17  C   UNL     1     -10.164   5.184  71.271  1.00  0.00    -0.222 A  
HETATM   18  C   UNL     1     -10.325   4.411  72.426  1.00  0.00    -0.241 A  
HETATM   19  C   UNL     1     -10.054   3.043  72.420  1.00  0.00    -0.229 A  
HETATM   20  C   UNL     1      -9.642   2.424  71.246  1.00  0.00    -0.222 A  
HETATM   21  C   UNL     1      -9.536   3.170  70.074  1.00  0.00    -0.219 A  
HETATM   22  C   UNL     1      -9.807   4.544  70.081  1.00  0.00    -0.296 A  
ENDBRANCH  14  17
ENDBRANCH  12  13
ENDBRANCH  11  12
ENDBRANCH  10  11
ENDBRANCH   9  10
ENDBRANCH   8   9
ENDBRANCH   7   8
ENDBRANCH   4   7
TORSDOF 8
ENDMDL
MODEL      296
REMARK 921   NORMALIZED FREE ENERGY PREDICTED BY IDOCK:   -2.32 KCAL/MOL
REMARK 922        TOTAL FREE ENERGY PREDICTED BY IDOCK:   -4.20 KCAL/MOL
REMARK 923 INTER-LIGAND FREE ENERGY PREDICTED BY IDOCK:   -4.27 KCAL/MOL
REMARK 924 INTRA-LIGAND FREE ENERGY PREDICTED BY IDOCK:    0.07 KCAL/MOL
REMARK 927      BINDING AFFINITY PREDICTED BY RF-SCORE:    0.00 PKD
ROOT
HETATM    1  O   UNL     1     -11.736   6.472  71.989  1.00  0.00    -0.295 OA 
HETATM    2  N   UNL     1     -11.988   6.560  70.611  1.00  0.00    -0.355 N  
HETATM    3  H   UNL     1     -12.459   6.481  72.606  1.00  0.00     0.000 HD 
HETATM    4  C   UNL     1     -10.950   6.548  69.724  1.00  0.00    -0.338 C  
HETATM    5  H   UNL     1     -12.948   6.632  70.272  1.00  0.00     0.000 HD 
HETATM    6  O   UNL     1     -11.169   6.605  68.515  1.00  0.00    -0.235 OA 
ENDROOT
BRANCH   4   7
HETATM    7  C   UNL     1      -9.561   6.466  70.326  1.00  0.00    -0.177 C  
BRANCH   7   8
HETATM    8  C   UNL     1      -9.061   7.829  70.797  1.00  0.00    -0.149 C  
BRANCH   8   9
HETATM    9  C   UNL     1      -7.829   8.262  70.011  1.00  0.00    -0.104 C  
BRANCH   9  10
HETATM   10  C   UNL     1      -7.977   7.946  68.519  1.00  0.00    -0.121 C  
BRANCH  10  11
HETATM   11  C   UNL     1      -7.657   9.188  67.704  1.00  0.00    -0.085 C  
BRANCH  11  12
HETATM   12  C   UNL     1      -7.219  10.392  68.541  1.00  0.00    -0.084 C  
BRANCH  12  13
HETATM   13  C   UNL     1      -7.942  11.626  68.022  1.00  0.00    -0.132 C  
HETATM   14  N   UNL     1      -9.163  11.864  68.629  1.00  0.00    -0.371 N  
HETATM   15  O   UNL     1      -7.432  12.329  67.151  1.00  0.00    -0.151 OA 
HETATM   16  H   UNL     1      -9.481  11.202  69.336  1.00  0.00     0.000 HD 
BRANCH  14  17
HETATM   17  C   UNL     1      -9.998  12.969  68.331  1.00  0.00    -0.216 A  
HETATM   18  C   UNL     1      -9.572  14.053  67.555  1.00  0.00    -0.228 A  
HETATM   19  C   UNL     1     -10.384  15.173  67.375  1.00  0.00    -0.244 A  
HETATM   20  C   UNL     1     -11.648  15.210  67.950  1.00  0.00    -0.326 A  
HETATM   21  C   UNL     1     -12.109  14.113  68.675  1.00  0.00    -0.320 A  
HETATM   22  C   UNL     1     -11.293  12.989  68.857  1.00  0.00    -0.333 A  
ENDBRANCH  14  17
ENDBRANCH  12  13
ENDBRANCH  11  12
ENDBRANCH  10  11
ENDBRANCH   9  10
ENDBRANCH   8   9
ENDBRANCH   7   8
ENDBRANCH   4   7
TORSDOF 8
ENDMDL
MODEL      297
REMARK 921   NORMALIZED FREE ENERGY PREDICTED BY IDOCK:   -2.31 KCAL/MOL
REMARK 922        TOTAL FREE ENERGY PREDICTED BY IDOCK:   -4.18 KCAL/MOL
REMARK 923 INTER-LIGAND FREE ENERGY PREDICTED BY IDOCK:   -3.73 KCAL/MOL
REMARK 924 INTRA-LIGAND FREE ENERGY PREDICTED BY IDOCK:   -0.45 KCAL/MOL
REMARK 927      BINDING AFFINITY PREDICTED BY RF-SCORE:    0.00 PKD
ROOT
HETATM    1  O   UNL     1     -12.158  11.560  67.386  1.00  0.00    -0.593 OA 
HETATM    2  N   UNL     1     -11.554  10.613  68.227  1.00  0.00    -0.459 N  
HETATM    3  H   UNL     1     -13.083  11.492  67.180  1.00  0.00     0.000 HD 
HETATM    4  C   UNL     1     -10.225  10.710  68.524  1.00  0.00    -0.175 C  
HETATM    5  H   UNL     1     -12.109   9.852  68.618  1.00  0.00     0.000 HD 
HETATM    6  O   UNL     1      -9.697   9.893  69.276  1.00  0.00    -0.184 OA 
ENDROOT
BRANCH   4   7
HETATM    7  C   UNL     1      -9.480  11.859  67.872  1.00  0.00    -0.194 C  
BRANCH   7   8
HETATM    8  C   UNL     1      -8.458  11.372  66.849  1.00  0.00    -0.157 C  
BRANCH   8   9
HETATM    9  C   UNL     1      -9.142  10.925  65.561  1.00  0.00    -0.221 C  
BRANCH   9  10
HETATM   10  C   UNL     1      -9.090   9.403  65.400  1.00  0.00    -0.280 C  
BRANCH  10  11
HETATM   11  C   UNL     1      -7.836   9.018  64.633  1.00  0.00    -0.121 C  
BRANCH  11  12
HETATM   12  C   UNL     1      -8.104   8.235  63.344  1.00  0.00    -0.133 C  
BRANCH  12  13
HETATM   13  C   UNL     1      -7.864   6.759  63.621  1.00  0.00    -0.106 C  
HETATM   14  N   UNL     1      -8.631   6.244  64.652  1.00  0.00    -0.347 N  
HETATM   15  O   UNL     1      -7.063   6.118  62.942  1.00  0.00    -0.046 OA 
HETATM   16  H   UNL     1      -9.257   6.881  65.144  1.00  0.00     0.000 HD 
BRANCH  14  17
HETATM   17  C   UNL     1      -8.600   4.890  65.067  1.00  0.00    -0.147 A  
HETATM   18  C   UNL     1      -9.043   3.839  64.257  1.00  0.00    -0.128 A  
HETATM   19  C   UNL     1      -9.101   2.532  64.740  1.00  0.00    -0.132 A  
HETATM   20  C   UNL     1      -8.688   2.256  66.038  1.00  0.00    -0.119 A  
HETATM   21  C   UNL     1      -8.187   3.282  66.836  1.00  0.00    -0.085 A  
HETATM   22  C   UNL     1      -8.131   4.595  66.351  1.00  0.00    -0.103 A  
ENDBRANCH  14  17
ENDBRANCH  12  13
ENDBRANCH  11  12
ENDBRANCH  10  11
ENDBRANCH   9  10
ENDBRANCH   8   9
ENDBRANCH   7   8
ENDBRANCH   4   7
TORSDOF 8
ENDMDL
MODEL      298
REMARK 921   NORMALIZED FREE ENERGY PREDICTED BY IDOCK:   -2.29 KCAL/MOL
REMARK 922        TOTAL FREE ENERGY PREDICTED BY IDOCK:   -4.15 KCAL/MOL
REMARK 923 INTER-LIGAND FREE ENERGY PREDICTED BY IDOCK:   -4.31 KCAL/MOL
REMARK 924 INTRA-LIGAND FREE ENERGY PREDICTED BY IDOCK:    0.16 KCAL/MOL
REMARK 927      BINDING AFFINITY PREDICTED BY RF-SCORE:    0.00 PKD
ROOT
HETATM    1  O   UNL     1      -9.070   2.038  67.225  1.00  0.00    -0.137 OA 
HETATM    2  N   UNL     1      -8.783   1.810  68.581  1.00  0.00    -0.064 N  
HETATM    3  H   UNL     1      -9.387   1.328  66.680  1.00  0.00     0.000 HD 
HETATM    4  C   UNL     1      -8.327   2.831  69.364  1.00  0.00    -0.059 C  
HETATM    5  H   UNL     1      -8.917   0.881  68.980  1.00  0.00     0.000 HD 
HETATM    6  O   UNL     1      -8.093   2.639  70.556  1.00  0.00    -0.042 OA 
ENDROOT
BRANCH   4   7
HETATM    7  C   UNL     1      -8.134   4.166  68.672  1.00  0.00    -0.074 C  
BRANCH   7   8
HETATM    8  C   UNL     1      -9.453   4.914  68.493  1.00  0.00    -0.194 C  
BRANCH   8   9
HETATM    9  C   UNL     1      -9.570   6.064  69.486  1.00  0.00    -0.171 C  
BRANCH   9  10
HETATM   10  C   UNL     1      -8.810   7.302  68.999  1.00  0.00    -0.132 C  
BRANCH  10  11
HETATM   11  C   UNL     1      -9.554   7.926  67.830  1.00  0.00    -0.174 C  
BRANCH  11  12
HETATM   12  C   UNL     1      -9.111   9.352  67.492  1.00  0.00    -0.136 C  
BRANCH  12  13
HETATM   13  C   UNL     1      -9.760  10.304  68.486  1.00  0.00    -0.161 C  
HETATM   14  N   UNL     1     -10.884   9.792  69.109  1.00  0.00    -0.259 N  
HETATM   15  O   UNL     1      -9.273  11.414  68.695  1.00  0.00    -0.183 OA 
HETATM   16  H   UNL     1     -11.192   8.857  68.844  1.00  0.00     0.000 HD 
BRANCH  14  17
HETATM   17  C   UNL     1     -11.633  10.484  70.092  1.00  0.00    -0.326 A  
HETATM   18  C   UNL     1     -12.215   9.845  71.192  1.00  0.00    -0.468 A  
HETATM   19  C   UNL     1     -13.038  10.541  72.077  1.00  0.00    -0.511 A  
HETATM   20  C   UNL     1     -13.267  11.898  71.887  1.00  0.00    -0.467 A  
HETATM   21  C   UNL     1     -12.646  12.562  70.831  1.00  0.00    -0.331 A  
HETATM   22  C   UNL     1     -11.821  11.862  69.941  1.00  0.00    -0.418 A  
ENDBRANCH  14  17
ENDBRANCH  12  13
ENDBRANCH  11  12
ENDBRANCH  10  11
ENDBRANCH   9  10
ENDBRANCH   8   9
ENDBRANCH   7   8
ENDBRANCH   4   7
TORSDOF 8
ENDMDL
MODEL      299
REMARK 921   NORMALIZED FREE ENERGY PREDICTED BY IDOCK:   -2.28 KCAL/MOL
REMARK 922        TOTAL FREE ENERGY PREDICTED BY IDOCK:   -4.14 KCAL/MOL
REMARK 923 INTER-LIGAND FREE ENERGY PREDICTED BY IDOCK:   -4.28 KCAL/MOL
REMARK 924 INTRA-LIGAND FREE ENERGY PREDICTED BY IDOCK:    0.14 KCAL/MOL
REMARK 927      BINDING AFFINITY PREDICTED BY RF-SCORE:    0.00 PKD
ROOT
HETATM    1  O   UNL     1      -8.910   6.881  64.722  1.00  0.00    -0.333 OA 
HETATM    2  N   UNL     1      -8.984   5.521  65.063  1.00  0.00    -0.340 N  
HETATM    3  H   UNL     1      -8.601   7.139  63.861  1.00  0.00     0.000 HD 
HETATM    4  C   UNL     1      -9.429   5.150  66.300  1.00  0.00    -0.156 C  
HETATM    5  H   UNL     1      -8.706   4.811  64.387  1.00  0.00     0.000 HD 
HETATM    6  O   UNL     1      -9.512   3.959  66.595  1.00  0.00    -0.178 OA 
ENDROOT
BRANCH   4   7
HETATM    7  C   UNL     1      -9.792   6.279  67.243  1.00  0.00    -0.165 C  
BRANCH   7   8
HETATM    8  C   UNL     1     -10.963   5.913  68.151  1.00  0.00    -0.258 C  
BRANCH   8   9
HETATM    9  C   UNL     1     -11.135   6.939  69.265  1.00  0.00    -0.229 C  
BRANCH   9  10
HETATM   10  C   UNL     1     -10.187   8.128  69.081  1.00  0.00    -0.219 C  
BRANCH  10  11
HETATM   11  C   UNL     1     -10.629   9.271  69.981  1.00  0.00    -0.256 C  
BRANCH  11  12
HETATM   12  C   UNL     1     -10.257  10.661  69.458  1.00  0.00    -0.190 C  
BRANCH  12  13
HETATM   13  C   UNL     1     -10.238  10.613  67.938  1.00  0.00    -0.177 C  
HETATM   14  N   UNL     1      -8.992  10.353  67.395  1.00  0.00    -0.135 N  
HETATM   15  O   UNL     1     -11.275  10.776  67.295  1.00  0.00    -0.324 OA 
HETATM   16  H   UNL     1      -8.207  10.241  68.036  1.00  0.00     0.000 HD 
BRANCH  14  17
HETATM   17  C   UNL     1      -8.739  10.231  66.007  1.00  0.00    -0.150 A  
HETATM   18  C   UNL     1      -7.452  10.078  65.481  1.00  0.00    -0.137 A  
HETATM   19  C   UNL     1      -7.232  10.073  64.104  1.00  0.00    -0.132 A  
HETATM   20  C   UNL     1      -8.306  10.195  63.231  1.00  0.00    -0.170 A  
HETATM   21  C   UNL     1      -9.601  10.287  63.739  1.00  0.00    -0.344 A  
HETATM   22  C   UNL     1      -9.821  10.294  65.123  1.00  0.00    -0.389 A  
ENDBRANCH  14  17
ENDBRANCH  12  13
ENDBRANCH  11  12
ENDBRANCH  10  11
ENDBRANCH   9  10
ENDBRANCH   8   9
ENDBRANCH   7   8
ENDBRANCH   4   7
TORSDOF 8
ENDMDL
MODEL      300
REMARK 921   NORMALIZED FREE ENERGY PREDICTED BY IDOCK:   -2.25 KCAL/MOL
REMARK 922        TOTAL FREE ENERGY PREDICTED BY IDOCK:   -4.10 KCAL/MOL
REMARK 923 INTER-LIGAND FREE ENERGY PREDICTED BY IDOCK:   -3.17 KCAL/MOL
REMARK 924 INTRA-LIGAND FREE ENERGY PREDICTED BY IDOCK:   -0.93 KCAL/MOL
REMARK 927      BINDING AFFINITY PREDICTED BY RF-SCORE:    0.00 PKD
ROOT
HETATM    1  O   UNL     1      -8.381  11.848  68.713  1.00  0.00    -0.312 OA 
HETATM    2  N   UNL     1      -7.741  11.094  69.710  1.00  0.00    -0.307 N  
HETATM    3  H   UNL     1      -8.044  12.704  68.474  1.00  0.00     0.000 HD 
HETATM    4  C   UNL     1      -8.226   9.865  70.054  1.00  0.00    -0.168 C  
HETATM    5  H   UNL     1      -6.914  11.465  70.176  1.00  0.00     0.000 HD 
HETATM    6  O   UNL     1      -7.656   9.194  70.913  1.00  0.00    -0.117 OA 
ENDROOT
BRANCH   4   7
HETATM    7  C   UNL     1      -9.476   9.414  69.324  1.00  0.00    -0.164 C  
BRANCH   7   8
HETATM    8  C   UNL     1      -9.666   7.901  69.396  1.00  0.00    -0.170 C  
BRANCH   8   9
HETATM    9  C   UNL     1     -10.552   7.405  68.259  1.00  0.00    -0.204 C  
BRANCH   9  10
HETATM   10  C   UNL     1      -9.720   6.780  67.135  1.00  0.00    -0.191 C  
BRANCH  10  11
HETATM   11  C   UNL     1      -8.447   6.187  67.717  1.00  0.00    -0.115 C  
BRANCH  11  12
HETATM   12  C   UNL     1      -8.336   4.668  67.564  1.00  0.00    -0.104 C  
BRANCH  12  13
HETATM   13  C   UNL     1      -8.923   4.016  68.807  1.00  0.00    -0.117 C  
HETATM   14  N   UNL     1      -8.678   4.709  69.979  1.00  0.00    -0.080 N  
HETATM   15  O   UNL     1      -9.569   2.973  68.719  1.00  0.00    -0.155 OA 
HETATM   16  H   UNL     1      -8.122   5.562  69.921  1.00  0.00     0.000 HD 
BRANCH  14  17
HETATM   17  C   UNL     1      -9.152   4.310  71.253  1.00  0.00    -0.127 A  
HETATM   18  C   UNL     1      -8.460   3.412  72.073  1.00  0.00    -0.093 A  
HETATM   19  C   UNL     1      -9.011   2.958  73.270  1.00  0.00    -0.089 A  
HETATM   20  C   UNL     1     -10.256   3.419  73.677  1.00  0.00    -0.211 A  
HETATM   21  C   UNL     1     -10.932   4.359  72.902  1.00  0.00    -0.231 A  
HETATM   22  C   UNL     1     -10.378   4.814  71.698  1.00  0.00    -0.215 A  
ENDBRANCH  14  17
ENDBRANCH  12  13
ENDBRANCH  11  12
ENDBRANCH  10  11
ENDBRANCH   9  10
ENDBRANCH   8   9
ENDBRANCH   7   8
ENDBRANCH   4   7
TORSDOF 8
ENDMDL
MODEL      301
REMARK 921   NORMALIZED FREE ENERGY PREDICTED BY IDOCK:   -2.25 KCAL/MOL
REMARK 922        TOTAL FREE ENERGY PREDICTED BY IDOCK:   -4.09 KCAL/MOL
REMARK 923 INTER-LIGAND FREE ENERGY PREDICTED BY IDOCK:   -3.67 KCAL/MOL
REMARK 924 INTRA-LIGAND FREE ENERGY PREDICTED BY IDOCK:   -0.42 KCAL/MOL
REMARK 927      BINDING AFFINITY PREDICTED BY RF-SCORE:    0.00 PKD
ROOT
HETATM    1  O   UNL     1      -6.220   4.412  73.549  1.00  0.00    -0.035 OA 
HETATM    2  N   UNL     1      -6.640   5.734  73.766  1.00  0.00    -0.077 N  
HETATM    3  H   UNL     1      -5.441   4.084  73.982  1.00  0.00     0.000 HD 
HETATM    4  C   UNL     1      -7.761   6.206  73.144  1.00  0.00    -0.097 C  
HETATM    5  H   UNL     1      -6.108   6.342  74.388  1.00  0.00     0.000 HD 
HETATM    6  O   UNL     1      -8.142   7.358  73.346  1.00  0.00    -0.102 OA 
ENDROOT
BRANCH   4   7
HETATM    7  C   UNL     1      -8.466   5.236  72.217  1.00  0.00    -0.125 C  
BRANCH   7   8
HETATM    8  C   UNL     1      -8.271   5.602  70.749  1.00  0.00    -0.118 C  
BRANCH   8   9
HETATM    9  C   UNL     1      -9.541   6.205  70.160  1.00  0.00    -0.187 C  
BRANCH   9  10
HETATM   10  C   UNL     1      -9.540   7.732  70.275  1.00  0.00    -0.175 C  
BRANCH  10  11
HETATM   11  C   UNL     1     -10.660   8.304  69.421  1.00  0.00    -0.203 C  
BRANCH  11  12
HETATM   12  C   UNL     1     -10.705   9.834  69.388  1.00  0.00    -0.250 C  
BRANCH  12  13
HETATM   13  C   UNL     1      -9.933  10.311  68.167  1.00  0.00    -0.146 C  
HETATM   14  N   UNL     1     -10.684  10.356  67.005  1.00  0.00    -0.256 N  
HETATM   15  O   UNL     1      -8.751  10.637  68.264  1.00  0.00    -0.125 OA 
HETATM   16  H   UNL     1     -11.656  10.053  67.054  1.00  0.00     0.000 HD 
BRANCH  14  17
HETATM   17  C   UNL     1     -10.187  10.796  65.754  1.00  0.00    -0.257 A  
HETATM   18  C   UNL     1     -10.630  11.968  65.132  1.00  0.00    -0.330 A  
HETATM   19  C   UNL     1     -10.199  12.311  63.850  1.00  0.00    -0.421 A  
HETATM   20  C   UNL     1      -9.294  11.495  63.183  1.00  0.00    -0.271 A  
HETATM   21  C   UNL     1      -8.797  10.356  63.814  1.00  0.00    -0.222 A  
HETATM   22  C   UNL     1      -9.231  10.012  65.101  1.00  0.00    -0.273 A  
ENDBRANCH  14  17
ENDBRANCH  12  13
ENDBRANCH  11  12
ENDBRANCH  10  11
ENDBRANCH   9  10
ENDBRANCH   8   9
ENDBRANCH   7   8
ENDBRANCH   4   7
TORSDOF 8
ENDMDL
MODEL      302
REMARK 921   NORMALIZED FREE ENERGY PREDICTED BY IDOCK:   -2.21 KCAL/MOL
REMARK 922        TOTAL FREE ENERGY PREDICTED BY IDOCK:   -4.03 KCAL/MOL
REMARK 923 INTER-LIGAND FREE ENERGY PREDICTED BY IDOCK:   -3.79 KCAL/MOL
REMARK 924 INTRA-LIGAND FREE ENERGY PREDICTED BY IDOCK:   -0.24 KCAL/MOL
REMARK 927      BINDING AFFINITY PREDICTED BY RF-SCORE:    0.00 PKD
ROOT
HETATM    1  O   UNL     1      -7.916  11.959  69.084  1.00  0.00    -0.347 OA 
HETATM    2  N   UNL     1      -7.045  11.650  68.028  1.00  0.00    -0.076 N  
HETATM    3  H   UNL     1      -7.578  12.060  69.966  1.00  0.00     0.000 HD 
HETATM    4  C   UNL     1      -7.530  11.505  66.760  1.00  0.00    -0.118 C  
HETATM    5  H   UNL     1      -6.048  11.533  68.209  1.00  0.00     0.000 HD 
HETATM    6  O   UNL     1      -6.767  11.253  65.830  1.00  0.00     0.032 OA 
ENDROOT
BRANCH   4   7
HETATM    7  C   UNL     1      -9.029  11.669  66.599  1.00  0.00    -0.189 C  
BRANCH   7   8
HETATM    8  C   UNL     1      -9.417  13.113  66.292  1.00  0.00    -0.194 C  
BRANCH   8   9
HETATM    9  C   UNL     1     -10.923  13.314  66.416  1.00  0.00    -0.301 C  
BRANCH   9  10
HETATM   10  C   UNL     1     -11.560  12.235  67.297  1.00  0.00    -0.427 C  
BRANCH  10  11
HETATM   11  C   UNL     1     -10.968  12.308  68.695  1.00  0.00    -0.276 C  
BRANCH  11  12
HETATM   12  C   UNL     1     -11.534  11.274  69.671  1.00  0.00    -0.380 C  
BRANCH  12  13
HETATM   13  C   UNL     1     -10.651  10.037  69.626  1.00  0.00    -0.252 C  
HETATM   14  N   UNL     1      -9.768   9.933  70.686  1.00  0.00    -0.334 N  
HETATM   15  O   UNL     1     -10.768   9.219  68.714  1.00  0.00    -0.217 OA 
HETATM   16  H   UNL     1      -9.762  10.682  71.378  1.00  0.00     0.000 HD 
BRANCH  14  17
HETATM   17  C   UNL     1      -8.870   8.852  70.870  1.00  0.00    -0.219 A  
HETATM   18  C   UNL     1      -7.561   8.860  70.377  1.00  0.00    -0.088 A  
HETATM   19  C   UNL     1      -6.744   7.735  70.482  1.00  0.00    -0.038 A  
HETATM   20  C   UNL     1      -7.221   6.590  71.108  1.00  0.00    -0.078 A  
HETATM   21  C   UNL     1      -8.502   6.587  71.658  1.00  0.00    -0.124 A  
HETATM   22  C   UNL     1      -9.322   7.717  71.551  1.00  0.00    -0.165 A  
ENDBRANCH  14  17
ENDBRANCH  12  13
ENDBRANCH  11  12
ENDBRANCH  10  11
ENDBRANCH   9  10
ENDBRANCH   8   9
ENDBRANCH   7   8
ENDBRANCH   4   7
TORSDOF 8
ENDMDL
MODEL      303
REMARK 921   NORMALIZED FREE ENERGY PREDICTED BY IDOCK:   -2.17 KCAL/MOL
REMARK 922        TOTAL FREE ENERGY PREDICTED BY IDOCK:   -3.97 KCAL/MOL
REMARK 923 INTER-LIGAND FREE ENERGY PREDICTED BY IDOCK:   -3.18 KCAL/MOL
REMARK 924 INTRA-LIGAND FREE ENERGY PREDICTED BY IDOCK:   -0.79 KCAL/MOL
REMARK 927      BINDING AFFINITY PREDICTED BY RF-SCORE:    0.00 PKD
ROOT
HETATM    1  O   UNL     1     -12.004  10.426  67.905  1.00  0.00    -0.627 OA 
HETATM    2  N   UNL     1     -11.059   9.675  68.621  1.00  0.00    -0.457 N  
HETATM    3  H   UNL     1     -12.887  10.095  67.791  1.00  0.00     0.000 HD 
HETATM    4  C   UNL     1      -9.789  10.150  68.784  1.00  0.00    -0.175 C  
HETATM    5  H   UNL     1     -11.321   8.773  69.019  1.00  0.00     0.000 HD 
HETATM    6  O   UNL     1      -8.964   9.503  69.427  1.00  0.00    -0.150 OA 
ENDROOT
BRANCH   4   7
HETATM    7  C   UNL     1      -9.488  11.484  68.131  1.00  0.00    -0.184 C  
BRANCH   7   8
HETATM    8  C   UNL     1      -8.736  11.320  66.813  1.00  0.00    -0.166 C  
BRANCH   8   9
HETATM    9  C   UNL     1      -9.632  11.653  65.626  1.00  0.00    -0.252 C  
BRANCH   9  10
HETATM   10  C   UNL     1      -9.945  10.404  64.795  1.00  0.00    -0.409 C  
BRANCH  10  11
HETATM   11  C   UNL     1      -8.783   9.429  64.889  1.00  0.00    -0.220 C  
BRANCH  11  12
HETATM   12  C   UNL     1      -7.782   9.532  63.735  1.00  0.00    -0.126 C  
BRANCH  12  13
HETATM   13  C   UNL     1      -6.902   8.292  63.751  1.00  0.00    -0.076 C  
HETATM   14  N   UNL     1      -7.597   7.106  63.912  1.00  0.00    -0.103 N  
HETATM   15  O   UNL     1      -5.684   8.389  63.606  1.00  0.00    -0.068 OA 
HETATM   16  H   UNL     1      -8.609   7.159  64.029  1.00  0.00     0.000 HD 
BRANCH  14  17
HETATM   17  C   UNL     1      -6.992   5.825  63.927  1.00  0.00    -0.050 A  
HETATM   18  C   UNL     1      -6.303   5.324  65.036  1.00  0.00    -0.034 A  
HETATM   19  C   UNL     1      -5.626   4.106  64.975  1.00  0.00    -0.014 A  
HETATM   20  C   UNL     1      -5.654   3.358  63.804  1.00  0.00    -0.009 A  
HETATM   21  C   UNL     1      -6.387   3.815  62.710  1.00  0.00    -0.022 A  
HETATM   22  C   UNL     1      -7.065   5.039  62.773  1.00  0.00    -0.038 A  
ENDBRANCH  14  17
ENDBRANCH  12  13
ENDBRANCH  11  12
ENDBRANCH  10  11
ENDBRANCH   9  10
ENDBRANCH   8   9
ENDBRANCH   7   8
ENDBRANCH   4   7
TORSDOF 8
ENDMDL
MODEL      304
REMARK 921   NORMALIZED FREE ENERGY PREDICTED BY IDOCK:   -2.16 KCAL/MOL
REMARK 922        TOTAL FREE ENERGY PREDICTED BY IDOCK:   -3.95 KCAL/MOL
REMARK 923 INTER-LIGAND FREE ENERGY PREDICTED BY IDOCK:   -3.52 KCAL/MOL
REMARK 924 INTRA-LIGAND FREE ENERGY PREDICTED BY IDOCK:   -0.44 KCAL/MOL
REMARK 927      BINDING AFFINITY PREDICTED BY RF-SCORE:    0.00 PKD
ROOT
HETATM    1  O   UNL     1      -5.678  12.903  70.844  1.00  0.00    -0.219 OA 
HETATM    2  N   UNL     1      -6.573  13.754  70.177  1.00  0.00    -0.378 N  
HETATM    3  H   UNL     1      -5.230  13.203  71.626  1.00  0.00     0.000 HD 
HETATM    4  C   UNL     1      -7.218  13.324  69.053  1.00  0.00    -0.007 C  
HETATM    5  H   UNL     1      -6.742  14.695  70.532  1.00  0.00     0.000 HD 
HETATM    6  O   UNL     1      -8.016  14.060  68.477  1.00  0.00    -0.135 OA 
ENDROOT
BRANCH   4   7
HETATM    7  C   UNL     1      -6.879  11.921  68.587  1.00  0.00    -0.086 C  
BRANCH   7   8
HETATM    8  C   UNL     1      -7.539  10.854  69.457  1.00  0.00    -0.057 C  
BRANCH   8   9
HETATM    9  C   UNL     1      -8.865  10.402  68.858  1.00  0.00    -0.161 C  
BRANCH   9  10
HETATM   10  C   UNL     1      -8.723  10.070  67.370  1.00  0.00    -0.125 C  
BRANCH  10  11
HETATM   11  C   UNL     1     -10.014   9.448  66.864  1.00  0.00    -0.293 C  
BRANCH  11  12
HETATM   12  C   UNL     1      -9.842   8.055  66.252  1.00  0.00    -0.162 C  
BRANCH  12  13
HETATM   13  C   UNL     1     -10.239   7.021  67.294  1.00  0.00    -0.234 C  
HETATM   14  N   UNL     1      -9.276   6.795  68.262  1.00  0.00    -0.124 N  
HETATM   15  O   UNL     1     -11.342   6.478  67.247  1.00  0.00    -0.316 OA 
HETATM   16  H   UNL     1      -8.396   7.305  68.188  1.00  0.00     0.000 HD 
BRANCH  14  17
HETATM   17  C   UNL     1      -9.435   5.899  69.349  1.00  0.00    -0.130 A  
HETATM   18  C   UNL     1      -9.003   4.570  69.305  1.00  0.00    -0.142 A  
HETATM   19  C   UNL     1      -9.276   3.688  70.351  1.00  0.00    -0.216 A  
HETATM   20  C   UNL     1      -9.966   4.136  71.470  1.00  0.00    -0.230 A  
HETATM   21  C   UNL     1     -10.351   5.473  71.555  1.00  0.00    -0.282 A  
HETATM   22  C   UNL     1     -10.077   6.357  70.503  1.00  0.00    -0.221 A  
ENDBRANCH  14  17
ENDBRANCH  12  13
ENDBRANCH  11  12
ENDBRANCH  10  11
ENDBRANCH   9  10
ENDBRANCH   8   9
ENDBRANCH   7   8
ENDBRANCH   4   7
TORSDOF 8
ENDMDL
MODEL      305
REMARK 921   NORMALIZED FREE ENERGY PREDICTED BY IDOCK:   -2.14 KCAL/MOL
REMARK 922        TOTAL FREE ENERGY PREDICTED BY IDOCK:   -3.93 KCAL/MOL
REMARK 923 INTER-LIGAND FREE ENERGY PREDICTED BY IDOCK:   -3.50 KCAL/MOL
REMARK 924 INTRA-LIGAND FREE ENERGY PREDICTED BY IDOCK:   -0.42 KCAL/MOL
REMARK 927      BINDING AFFINITY PREDICTED BY RF-SCORE:    0.00 PKD
ROOT
HETATM    1  O   UNL     1      -5.316  13.095  71.004  1.00  0.00    -0.155 OA 
HETATM    2  N   UNL     1      -6.346  13.216  70.058  1.00  0.00    -0.342 N  
HETATM    3  H   UNL     1      -5.177  13.781  71.646  1.00  0.00     0.000 HD 
HETATM    4  C   UNL     1      -6.546  12.230  69.134  1.00  0.00    -0.105 C  
HETATM    5  H   UNL     1      -6.945  14.042  70.060  1.00  0.00     0.000 HD 
HETATM    6  O   UNL     1      -7.460  12.325  68.316  1.00  0.00    -0.102 OA 
ENDROOT
BRANCH   4   7
HETATM    7  C   UNL     1      -5.587  11.058  69.194  1.00  0.00    -0.040 C  
BRANCH   7   8
HETATM    8  C   UNL     1      -6.048   9.990  70.181  1.00  0.00    -0.070 C  
BRANCH   8   9
HETATM    9  C   UNL     1      -7.273   9.250  69.656  1.00  0.00    -0.063 C  
BRANCH   9  10
HETATM   10  C   UNL     1      -8.519   9.570  70.489  1.00  0.00    -0.213 C  
BRANCH  10  11
HETATM   11  C   UNL     1      -9.551   8.471  70.297  1.00  0.00    -0.177 C  
BRANCH  11  12
HETATM   12  C   UNL     1     -10.919   8.971  69.823  1.00  0.00    -0.177 C  
BRANCH  12  13
HETATM   13  C   UNL     1     -10.882   9.107  68.309  1.00  0.00    -0.051 C  
HETATM   14  N   UNL     1     -10.467  10.349  67.862  1.00  0.00    -0.194 N  
HETATM   15  O   UNL     1     -11.184   8.156  67.589  1.00  0.00     0.208 OA 
HETATM   16  H   UNL     1     -10.250  11.059  68.560  1.00  0.00     0.000 HD 
BRANCH  14  17
HETATM   17  C   UNL     1     -10.326  10.697  66.495  1.00  0.00    -0.241 A  
HETATM   18  C   UNL     1     -11.046  11.738  65.899  1.00  0.00    -0.355 A  
HETATM   19  C   UNL     1     -10.963  11.978  64.528  1.00  0.00    -0.369 A  
HETATM   20  C   UNL     1     -10.134  11.193  63.737  1.00  0.00    -0.416 A  
HETATM   21  C   UNL     1      -9.364  10.191  64.326  1.00  0.00    -0.349 A  
HETATM   22  C   UNL     1      -9.450   9.949  65.703  1.00  0.00    -0.295 A  
ENDBRANCH  14  17
ENDBRANCH  12  13
ENDBRANCH  11  12
ENDBRANCH  10  11
ENDBRANCH   9  10
ENDBRANCH   8   9
ENDBRANCH   7   8
ENDBRANCH   4   7
TORSDOF 8
ENDMDL
MODEL      306
REMARK 921   NORMALIZED FREE ENERGY PREDICTED BY IDOCK:   -2.11 KCAL/MOL
REMARK 922        TOTAL FREE ENERGY PREDICTED BY IDOCK:   -3.88 KCAL/MOL
REMARK 923 INTER-LIGAND FREE ENERGY PREDICTED BY IDOCK:   -3.14 KCAL/MOL
REMARK 924 INTRA-LIGAND FREE ENERGY PREDICTED BY IDOCK:   -0.74 KCAL/MOL
REMARK 927      BINDING AFFINITY PREDICTED BY RF-SCORE:    0.00 PKD
ROOT
HETATM    1  O   UNL     1      -7.886  12.279  69.027  1.00  0.00    -0.331 OA 
HETATM    2  N   UNL     1      -7.319  11.319  69.880  1.00  0.00    -0.306 N  
HETATM    3  H   UNL     1      -7.429  13.095  68.858  1.00  0.00     0.000 HD 
HETATM    4  C   UNL     1      -7.976  10.146  70.122  1.00  0.00    -0.004 C  
HETATM    5  H   UNL     1      -6.415  11.497  70.317  1.00  0.00     0.000 HD 
HETATM    6  O   UNL     1      -7.473   9.295  70.854  1.00  0.00    -0.120 OA 
ENDROOT
BRANCH   4   7
HETATM    7  C   UNL     1      -9.325   9.987  69.449  1.00  0.00    -0.237 C  
BRANCH   7   8
HETATM    8  C   UNL     1      -9.265   9.020  68.269  1.00  0.00    -0.139 C  
BRANCH   8   9
HETATM    9  C   UNL     1     -10.513   9.136  67.402  1.00  0.00    -0.339 C  
BRANCH   9  10
HETATM   10  C   UNL     1     -10.285  10.080  66.217  1.00  0.00    -0.285 C  
BRANCH  10  11
HETATM   11  C   UNL     1      -8.792  10.283  66.012  1.00  0.00    -0.166 C  
BRANCH  11  12
HETATM   12  C   UNL     1      -8.209   9.506  64.829  1.00  0.00    -0.143 C  
BRANCH  12  13
HETATM   13  C   UNL     1      -7.720   8.157  65.335  1.00  0.00    -0.101 C  
HETATM   14  N   UNL     1      -8.622   7.124  65.156  1.00  0.00    -0.344 N  
HETATM   15  O   UNL     1      -6.600   8.046  65.834  1.00  0.00    -0.045 OA 
HETATM   16  H   UNL     1      -9.524   7.346  64.735  1.00  0.00     0.000 HD 
BRANCH  14  17
HETATM   17  C   UNL     1      -8.372   5.778  65.521  1.00  0.00    -0.140 A  
HETATM   18  C   UNL     1      -8.624   5.281  66.804  1.00  0.00    -0.106 A  
HETATM   19  C   UNL     1      -8.263   3.981  67.157  1.00  0.00    -0.099 A  
HETATM   20  C   UNL     1      -7.666   3.150  66.217  1.00  0.00    -0.077 A  
HETATM   21  C   UNL     1      -7.464   3.611  64.917  1.00  0.00    -0.073 A  
HETATM   22  C   UNL     1      -7.826   4.917  64.564  1.00  0.00    -0.087 A  
ENDBRANCH  14  17
ENDBRANCH  12  13
ENDBRANCH  11  12
ENDBRANCH  10  11
ENDBRANCH   9  10
ENDBRANCH   8   9
ENDBRANCH   7   8
ENDBRANCH   4   7
TORSDOF 8
ENDMDL
MODEL      307
REMARK 921   NORMALIZED FREE ENERGY PREDICTED BY IDOCK:   -1.95 KCAL/MOL
REMARK 922        TOTAL FREE ENERGY PREDICTED BY IDOCK:   -3.65 KCAL/MOL
REMARK 923 INTER-LIGAND FREE ENERGY PREDICTED BY IDOCK:   -4.25 KCAL/MOL
REMARK 924 INTRA-LIGAND FREE ENERGY PREDICTED BY IDOCK:    0.60 KCAL/MOL
REMARK 927      BINDING AFFINITY PREDICTED BY RF-SCORE:    0.00 PKD
ROOT
HETATM    1  O   UNL     1     -11.895   6.495  68.965  1.00  0.00    -0.523 OA 
HETATM    2  N   UNL     1     -11.969   6.923  70.300  1.00  0.00    -0.613 N  
HETATM    3  H   UNL     1     -12.477   6.868  68.313  1.00  0.00     0.000 HD 
HETATM    4  C   UNL     1     -11.132   6.387  71.237  1.00  0.00    -0.282 C  
HETATM    5  H   UNL     1     -12.648   7.634  70.570  1.00  0.00     0.000 HD 
HETATM    6  O   UNL     1     -11.181   6.773  72.403  1.00  0.00    -0.247 OA 
ENDROOT
BRANCH   4   7
HETATM    7  C   UNL     1     -10.178   5.317  70.743  1.00  0.00    -0.317 C  
BRANCH   7   8
HETATM    8  C   UNL     1      -9.603   5.652  69.370  1.00  0.00    -0.187 C  
BRANCH   8   9
HETATM    9  C   UNL     1      -8.108   5.937  69.457  1.00  0.00    -0.106 C  
BRANCH   9  10
HETATM   10  C   UNL     1      -7.837   7.327  70.042  1.00  0.00    -0.111 C  
BRANCH  10  11
HETATM   11  C   UNL     1      -6.342   7.601  70.024  1.00  0.00    -0.034 C  
BRANCH  11  12
HETATM   12  C   UNL     1      -5.956   8.942  69.394  1.00  0.00    -0.037 C  
BRANCH  12  13
HETATM   13  C   UNL     1      -7.158   9.871  69.470  1.00  0.00    -0.082 C  
HETATM   14  N   UNL     1      -8.033   9.754  68.404  1.00  0.00    -0.088 N  
HETATM   15  O   UNL     1      -7.303  10.627  70.430  1.00  0.00    -0.140 OA 
HETATM   16  H   UNL     1      -7.797   9.093  67.664  1.00  0.00     0.000 HD 
BRANCH  14  17
HETATM   17  C   UNL     1      -9.234  10.494  68.275  1.00  0.00    -0.152 A  
HETATM   18  C   UNL     1      -9.272  11.794  67.758  1.00  0.00    -0.181 A  
HETATM   19  C   UNL     1     -10.455  12.531  67.750  1.00  0.00    -0.230 A  
HETATM   20  C   UNL     1     -11.627  11.965  68.238  1.00  0.00    -0.390 A  
HETATM   21  C   UNL     1     -11.618  10.650  68.700  1.00  0.00    -0.297 A  
HETATM   22  C   UNL     1     -10.428   9.910  68.709  1.00  0.00    -0.234 A  
ENDBRANCH  14  17
ENDBRANCH  12  13
ENDBRANCH  11  12
ENDBRANCH  10  11
ENDBRANCH   9  10
ENDBRANCH   8   9
ENDBRANCH   7   8
ENDBRANCH   4   7
TORSDOF 8
ENDMDL
MODEL      308
REMARK 921   NORMALIZED FREE ENERGY PREDICTED BY IDOCK:   -1.91 KCAL/MOL
REMARK 922        TOTAL FREE ENERGY PREDICTED BY IDOCK:   -3.60 KCAL/MOL
REMARK 923 INTER-LIGAND FREE ENERGY PREDICTED BY IDOCK:   -4.21 KCAL/MOL
REMARK 924 INTRA-LIGAND FREE ENERGY PREDICTED BY IDOCK:    0.61 KCAL/MOL
REMARK 927      BINDING AFFINITY PREDICTED BY RF-SCORE:    0.00 PKD
ROOT
HETATM    1  O   UNL     1     -12.291  15.399  68.770  1.00  0.00    -0.593 OA 
HETATM    2  N   UNL     1     -12.595  14.326  67.918  1.00  0.00    -0.323 N  
HETATM    3  H   UNL     1     -12.949  16.057  68.960  1.00  0.00     0.000 HD 
HETATM    4  C   UNL     1     -11.649  13.380  67.645  1.00  0.00    -0.340 C  
HETATM    5  H   UNL     1     -13.524  14.252  67.503  1.00  0.00     0.000 HD 
HETATM    6  O   UNL     1     -11.918  12.428  66.914  1.00  0.00    -0.550 OA 
ENDROOT
BRANCH   4   7
HETATM    7  C   UNL     1     -10.291  13.592  68.287  1.00  0.00    -0.253 C  
BRANCH   7   8
HETATM    8  C   UNL     1      -9.750  14.995  68.031  1.00  0.00    -0.213 C  
BRANCH   8   9
HETATM    9  C   UNL     1      -8.250  15.061  68.292  1.00  0.00    -0.146 C  
BRANCH   9  10
HETATM   10  C   UNL     1      -7.499  13.977  67.512  1.00  0.00    -0.186 C  
BRANCH  10  11
HETATM   11  C   UNL     1      -6.231  13.601  68.262  1.00  0.00    -0.107 C  
BRANCH  11  12
HETATM   12  C   UNL     1      -5.491  12.395  67.678  1.00  0.00    -0.114 C  
BRANCH  12  13
HETATM   13  C   UNL     1      -6.257  11.135  68.050  1.00  0.00    -0.049 C  
HETATM   14  N   UNL     1      -7.633  11.273  68.001  1.00  0.00    -0.101 N  
HETATM   15  O   UNL     1      -5.655  10.102  68.341  1.00  0.00    -0.039 OA 
HETATM   16  H   UNL     1      -8.011  12.186  67.751  1.00  0.00     0.000 HD 
BRANCH  14  17
HETATM   17  C   UNL     1      -8.548  10.227  68.277  1.00  0.00    -0.122 A  
HETATM   18  C   UNL     1      -9.403   9.693  67.307  1.00  0.00    -0.163 A  
HETATM   19  C   UNL     1     -10.366   8.741  67.641  1.00  0.00    -0.317 A  
HETATM   20  C   UNL     1     -10.468   8.292  68.952  1.00  0.00    -0.209 A  
HETATM   21  C   UNL     1      -9.584   8.771  69.917  1.00  0.00    -0.182 A  
HETATM   22  C   UNL     1      -8.618   9.727  69.581  1.00  0.00    -0.201 A  
ENDBRANCH  14  17
ENDBRANCH  12  13
ENDBRANCH  11  12
ENDBRANCH  10  11
ENDBRANCH   9  10
ENDBRANCH   8   9
ENDBRANCH   7   8
ENDBRANCH   4   7
TORSDOF 8
ENDMDL
MODEL      309
REMARK 921   NORMALIZED FREE ENERGY PREDICTED BY IDOCK:   -1.85 KCAL/MOL
REMARK 922        TOTAL FREE ENERGY PREDICTED BY IDOCK:   -3.51 KCAL/MOL
REMARK 923 INTER-LIGAND FREE ENERGY PREDICTED BY IDOCK:   -2.47 KCAL/MOL
REMARK 924 INTRA-LIGAND FREE ENERGY PREDICTED BY IDOCK:   -1.04 KCAL/MOL
REMARK 927      BINDING AFFINITY PREDICTED BY RF-SCORE:    0.00 PKD
ROOT
HETATM    1  O   UNL     1     -11.645  11.505  65.186  1.00  0.00    -0.122 OA 
HETATM    2  N   UNL     1     -10.372  10.969  64.937  1.00  0.00    -0.305 N  
HETATM    3  H   UNL     1     -12.275  11.583  64.478  1.00  0.00     0.000 HD 
HETATM    4  C   UNL     1      -9.467  10.858  65.954  1.00  0.00    -0.207 C  
HETATM    5  H   UNL     1     -10.123  10.663  63.997  1.00  0.00     0.000 HD 
HETATM    6  O   UNL     1      -8.357  10.371  65.743  1.00  0.00    -0.146 OA 
ENDROOT
BRANCH   4   7
HETATM    7  C   UNL     1      -9.920  11.367  67.308  1.00  0.00    -0.217 C  
BRANCH   7   8
HETATM    8  C   UNL     1      -9.034  10.853  68.439  1.00  0.00    -0.154 C  
BRANCH   8   9
HETATM    9  C   UNL     1      -9.808   9.918  69.361  1.00  0.00    -0.231 C  
BRANCH   9  10
HETATM   10  C   UNL     1      -8.921   8.781  69.878  1.00  0.00    -0.152 C  
BRANCH  10  11
HETATM   11  C   UNL     1      -8.471   7.920  68.709  1.00  0.00    -0.128 C  
BRANCH  11  12
HETATM   12  C   UNL     1      -6.993   8.084  68.342  1.00  0.00    -0.072 C  
BRANCH  12  13
HETATM   13  C   UNL     1      -6.718   7.273  67.085  1.00  0.00    -0.068 C  
HETATM   14  N   UNL     1      -7.747   7.297  66.159  1.00  0.00    -0.097 N  
HETATM   15  O   UNL     1      -5.648   6.682  66.944  1.00  0.00    -0.013 OA 
HETATM   16  H   UNL     1      -8.589   7.820  66.396  1.00  0.00     0.000 HD 
BRANCH  14  17
HETATM   17  C   UNL     1      -7.703   6.642  64.903  1.00  0.00    -0.109 A  
HETATM   18  C   UNL     1      -7.277   7.277  63.732  1.00  0.00    -0.075 A  
HETATM   19  C   UNL     1      -7.353   6.634  62.496  1.00  0.00    -0.063 A  
HETATM   20  C   UNL     1      -7.832   5.332  62.422  1.00  0.00    -0.074 A  
HETATM   21  C   UNL     1      -8.202   4.665  63.589  1.00  0.00    -0.107 A  
HETATM   22  C   UNL     1      -8.128   5.312  64.829  1.00  0.00    -0.124 A  
ENDBRANCH  14  17
ENDBRANCH  12  13
ENDBRANCH  11  12
ENDBRANCH  10  11
ENDBRANCH   9  10
ENDBRANCH   8   9
ENDBRANCH   7   8
ENDBRANCH   4   7
TORSDOF 8
ENDMDL
MODEL      310
REMARK 921   NORMALIZED FREE ENERGY PREDICTED BY IDOCK:   -1.82 KCAL/MOL
REMARK 922        TOTAL FREE ENERGY PREDICTED BY IDOCK:   -3.46 KCAL/MOL
REMARK 923 INTER-LIGAND FREE ENERGY PREDICTED BY IDOCK:   -3.47 KCAL/MOL
REMARK 924 INTRA-LIGAND FREE ENERGY PREDICTED BY IDOCK:    0.01 KCAL/MOL
REMARK 927      BINDING AFFINITY PREDICTED BY RF-SCORE:    0.00 PKD
ROOT
HETATM    1  O   UNL     1     -13.944  15.219  70.001  1.00  0.00     0.161 OA 
HETATM    2  N   UNL     1     -13.849  15.835  71.259  1.00  0.00    -0.536 N  
HETATM    3  H   UNL     1     -14.153  15.737  69.233  1.00  0.00     0.000 HD 
HETATM    4  C   UNL     1     -13.549  15.091  72.364  1.00  0.00    -0.460 C  
HETATM    5  H   UNL     1     -14.004  16.839  71.347  1.00  0.00     0.000 HD 
HETATM    6  O   UNL     1     -13.446  15.631  73.464  1.00  0.00    -0.423 OA 
ENDROOT
BRANCH   4   7
HETATM    7  C   UNL     1     -13.364  13.604  72.135  1.00  0.00    -0.587 C  
BRANCH   7   8
HETATM    8  C   UNL     1     -12.198  13.309  71.197  1.00  0.00    -0.206 C  
BRANCH   8   9
HETATM    9  C   UNL     1     -12.407  11.992  70.458  1.00  0.00    -0.369 C  
BRANCH   9  10
HETATM   10  C   UNL     1     -12.124  12.139  68.960  1.00  0.00    -0.208 C  
BRANCH  10  11
HETATM   11  C   UNL     1     -10.725  12.699  68.762  1.00  0.00    -0.240 C  
BRANCH  11  12
HETATM   12  C   UNL     1      -9.604  11.776  69.247  1.00  0.00     0.454 C  
BRANCH  12  13
HETATM   13  C   UNL     1      -9.425  10.662  68.227  1.00  0.00    -0.159 C  
HETATM   14  N   UNL     1      -8.620  11.001  67.154  1.00  0.00    -0.134 N  
HETATM   15  O   UNL     1      -9.955   9.565  68.400  1.00  0.00    -0.155 OA 
HETATM   16  H   UNL     1      -8.243  11.948  67.122  1.00  0.00     0.000 HD 
BRANCH  14  17
HETATM   17  C   UNL     1      -8.286  10.116  66.099  1.00  0.00    -0.131 A  
HETATM   18  C   UNL     1      -9.246   9.550  65.253  1.00  0.00    -0.307 A  
HETATM   19  C   UNL     1      -8.892   8.599  64.297  1.00  0.00     0.127 A  
HETATM   20  C   UNL     1      -7.562   8.220  64.157  1.00  0.00    -0.127 A  
HETATM   21  C   UNL     1      -6.587   8.820  64.952  1.00  0.00    -0.069 A  
HETATM   22  C   UNL     1      -6.944   9.774  65.913  1.00  0.00    -0.101 A  
ENDBRANCH  14  17
ENDBRANCH  12  13
ENDBRANCH  11  12
ENDBRANCH  10  11
ENDBRANCH   9  10
ENDBRANCH   8   9
ENDBRANCH   7   8
ENDBRANCH   4   7
TORSDOF 8
ENDMDL
MODEL      311
REMARK 921   NORMALIZED FREE ENERGY PREDICTED BY IDOCK:   -1.80 KCAL/MOL
REMARK 922        TOTAL FREE ENERGY PREDICTED BY IDOCK:   -3.43 KCAL/MOL
REMARK 923 INTER-LIGAND FREE ENERGY PREDICTED BY IDOCK:   -3.90 KCAL/MOL
REMARK 924 INTRA-LIGAND FREE ENERGY PREDICTED BY IDOCK:    0.47 KCAL/MOL
REMARK 927      BINDING AFFINITY PREDICTED BY RF-SCORE:    0.00 PKD
ROOT
HETATM    1  O   UNL     1     -11.301   4.808  65.284  1.00  0.00    -0.928 OA 
HETATM    2  N   UNL     1     -11.007   4.621  66.644  1.00  0.00    -0.147 N  
HETATM    3  H   UNL     1     -12.110   4.466  64.921  1.00  0.00     0.000 HD 
HETATM    4  C   UNL     1      -9.845   5.113  67.166  1.00  0.00    -0.170 C  
HETATM    5  H   UNL     1     -11.661   4.118  67.242  1.00  0.00     0.000 HD 
HETATM    6  O   UNL     1      -9.593   4.967  68.361  1.00  0.00    -0.130 OA 
ENDROOT
BRANCH   4   7
HETATM    7  C   UNL     1      -8.924   5.821  66.192  1.00  0.00    -0.154 C  
BRANCH   7   8
HETATM    8  C   UNL     1      -9.340   7.272  65.963  1.00  0.00    -0.030 C  
BRANCH   8   9
HETATM    9  C   UNL     1     -10.459   7.678  66.914  1.00  0.00    -0.388 C  
BRANCH   9  10
HETATM   10  C   UNL     1      -9.926   8.519  68.078  1.00  0.00    -0.221 C  
BRANCH  10  11
HETATM   11  C   UNL     1      -8.460   8.842  67.839  1.00  0.00    -0.125 C  
BRANCH  11  12
HETATM   12  C   UNL     1      -7.542   8.505  69.017  1.00  0.00    -0.094 C  
BRANCH  12  13
HETATM   13  C   UNL     1      -8.391   8.415  70.276  1.00  0.00    -0.124 C  
HETATM   14  N   UNL     1      -8.889   7.150  70.535  1.00  0.00    -0.153 N  
HETATM   15  O   UNL     1      -8.570   9.408  70.981  1.00  0.00    -0.274 OA 
HETATM   16  H   UNL     1      -8.674   6.408  69.869  1.00  0.00     0.000 HD 
BRANCH  14  17
HETATM   17  C   UNL     1      -9.677   6.821  71.665  1.00  0.00    -0.162 A  
HETATM   18  C   UNL     1      -9.696   7.598  72.828  1.00  0.00    -0.261 A  
HETATM   19  C   UNL     1     -10.398   7.184  73.960  1.00  0.00    -0.243 A  
HETATM   20  C   UNL     1     -11.115   5.994  73.932  1.00  0.00     0.335 A  
HETATM   21  C   UNL     1     -11.155   5.240  72.761  1.00  0.00    -0.346 A  
HETATM   22  C   UNL     1     -10.449   5.656  71.626  1.00  0.00    -0.286 A  
ENDBRANCH  14  17
ENDBRANCH  12  13
ENDBRANCH  11  12
ENDBRANCH  10  11
ENDBRANCH   9  10
ENDBRANCH   8   9
ENDBRANCH   7   8
ENDBRANCH   4   7
TORSDOF 8
ENDMDL
MODEL      312
REMARK 921   NORMALIZED FREE ENERGY PREDICTED BY IDOCK:   -1.77 KCAL/MOL
REMARK 922        TOTAL FREE ENERGY PREDICTED BY IDOCK:   -3.39 KCAL/MOL
REMARK 923 INTER-LIGAND FREE ENERGY PREDICTED BY IDOCK:   -4.11 KCAL/MOL
REMARK 924 INTRA-LIGAND FREE ENERGY PREDICTED BY IDOCK:    0.72 KCAL/MOL
REMARK 927      BINDING AFFINITY PREDICTED BY RF-SCORE:    0.00 PKD
ROOT
HETATM    1  O   UNL     1      -7.087   8.119  67.139  1.00  0.00    -0.076 OA 
HETATM    2  N   UNL     1      -8.133   7.255  66.779  1.00  0.00    -0.117 N  
HETATM    3  H   UNL     1      -6.674   8.666  66.481  1.00  0.00     0.000 HD 
HETATM    4  C   UNL     1      -8.727   6.469  67.725  1.00  0.00    -0.115 C  
HETATM    5  H   UNL     1      -8.451   7.215  65.811  1.00  0.00     0.000 HD 
HETATM    6  O   UNL     1      -9.656   5.725  67.417  1.00  0.00    -0.111 OA 
ENDROOT
BRANCH   4   7
HETATM    7  C   UNL     1      -8.166   6.578  69.129  1.00  0.00    -0.116 C  
BRANCH   7   8
HETATM    8  C   UNL     1      -7.516   7.936  69.382  1.00  0.00    -0.091 C  
BRANCH   8   9
HETATM    9  C   UNL     1      -7.675   8.357  70.838  1.00  0.00    -0.088 C  
BRANCH   9  10
HETATM   10  C   UNL     1      -9.143   8.625  71.186  1.00  0.00    -0.263 C  
BRANCH  10  11
HETATM   11  C   UNL     1      -9.598   9.906  70.507  1.00  0.00    -0.035 C  
BRANCH  11  12
HETATM   12  C   UNL     1     -11.118  10.041  70.375  1.00  0.00    -0.393 C  
BRANCH  12  13
HETATM   13  C   UNL     1     -11.423  10.799  69.092  1.00  0.00    -0.298 C  
HETATM   14  N   UNL     1     -10.382  10.811  68.181  1.00  0.00    -0.164 N  
HETATM   15  O   UNL     1     -12.525  11.319  68.922  1.00  0.00    -0.433 OA 
HETATM   16  H   UNL     1      -9.513  10.347  68.443  1.00  0.00     0.000 HD 
BRANCH  14  17
HETATM   17  C   UNL     1     -10.448  11.428  66.907  1.00  0.00    -0.240 A  
HETATM   18  C   UNL     1     -10.495  10.700  65.713  1.00  0.00    -0.235 A  
HETATM   19  C   UNL     1     -10.447  11.341  64.476  1.00  0.00    -0.396 A  
HETATM   20  C   UNL     1     -10.379  12.727  64.417  1.00  0.00    -0.388 A  
HETATM   21  C   UNL     1     -10.394  13.470  65.597  1.00  0.00    -0.303 A  
HETATM   22  C   UNL     1     -10.440  12.825  66.839  1.00  0.00    -0.250 A  
ENDBRANCH  14  17
ENDBRANCH  12  13
ENDBRANCH  11  12
ENDBRANCH  10  11
ENDBRANCH   9  10
ENDBRANCH   8   9
ENDBRANCH   7   8
ENDBRANCH   4   7
TORSDOF 8
ENDMDL
MODEL      313
REMARK 921   NORMALIZED FREE ENERGY PREDICTED BY IDOCK:    0.51 KCAL/MOL
REMARK 922        TOTAL FREE ENERGY PREDICTED BY IDOCK:   -0.04 KCAL/MOL
REMARK 923 INTER-LIGAND FREE ENERGY PREDICTED BY IDOCK:   -1.78 KCAL/MOL
REMARK 924 INTRA-LIGAND FREE ENERGY PREDICTED BY IDOCK:    1.74 KCAL/MOL
REMARK 927      BINDING AFFINITY PREDICTED BY RF-SCORE:    0.00 PKD
ROOT
HETATM    1  O   UNL     1      -9.677   1.981  66.506  1.00  0.00    -0.290 OA 
HETATM    2  N   UNL     1      -8.649   2.483  67.319  1.00  0.00    -0.099 N  
HETATM    3  H   UNL     1     -10.282   1.333  66.850  1.00  0.00     0.000 HD 
HETATM    4  C   UNL     1      -7.780   3.414  66.826  1.00  0.00    -0.080 C  
HETATM    5  H   UNL     1      -8.551   2.152  68.279  1.00  0.00     0.000 HD 
HETATM    6  O   UNL     1      -6.890   3.870  67.542  1.00  0.00    -0.052 OA 
ENDROOT
BRANCH   4   7
HETATM    7  C   UNL     1      -7.991   3.821  65.381  1.00  0.00    -0.093 C  
BRANCH   7   8
HETATM    8  C   UNL     1      -9.413   4.310  65.125  1.00  0.00    -0.172 C  
BRANCH   8   9
HETATM    9  C   UNL     1      -9.707   5.580  65.915  1.00  0.00    -0.058 C  
BRANCH   9  10
HETATM   10  C   UNL     1      -8.440   6.415  66.123  1.00  0.00    -0.140 C  
BRANCH  10  11
HETATM   11  C   UNL     1      -8.151   7.217  64.864  1.00  0.00    -0.107 C  
BRANCH  11  12
HETATM   12  C   UNL     1      -6.791   7.921  64.868  1.00  0.00    -0.054 C  
BRANCH  12  13
HETATM   13  C   UNL     1      -6.502   8.400  66.282  1.00  0.00    -0.054 C  
HETATM   14  N   UNL     1      -6.591   9.771  66.444  1.00  0.00    -0.070 N  
HETATM   15  O   UNL     1      -6.238   7.594  67.173  1.00  0.00    -0.049 OA 
HETATM   16  H   UNL     1      -6.812  10.335  65.624  1.00  0.00     0.000 HD 
BRANCH  14  17
HETATM   17  C   UNL     1      -6.394  10.441  67.677  1.00  0.00    -0.057 A  
HETATM   18  C   UNL     1      -6.929  11.705  67.948  1.00  0.00    -0.080 A  
HETATM   19  C   UNL     1      -6.622  12.379  69.129  1.00  0.00    -0.099 A  
HETATM   20  C   UNL     1      -5.793  11.783  70.071  1.00  0.00    -0.148 A  
HETATM   21  C   UNL     1      -5.301  10.499  69.842  1.00  0.00    -0.040 A  
HETATM   22  C   UNL     1      -5.608   9.823  68.655  1.00  0.00    -0.036 A  
ENDBRANCH  14  17
ENDBRANCH  12  13
ENDBRANCH  11  12
ENDBRANCH  10  11
ENDBRANCH   9  10
ENDBRANCH   8   9
ENDBRANCH   7   8
ENDBRANCH   4   7
TORSDOF 8
ENDMDL
MODEL      314
REMARK 921   NORMALIZED FREE ENERGY PREDICTED BY IDOCK:    4.07 KCAL/MOL
REMARK 922        TOTAL FREE ENERGY PREDICTED BY IDOCK:    5.19 KCAL/MOL
REMARK 923 INTER-LIGAND FREE ENERGY PREDICTED BY IDOCK:   -2.05 KCAL/MOL
REMARK 924 INTRA-LIGAND FREE ENERGY PREDICTED BY IDOCK:    7.25 KCAL/MOL
REMARK 927      BINDING AFFINITY PREDICTED BY RF-SCORE:    0.00 PKD
ROOT
HETATM    1  O   UNL     1     -10.621   5.113  65.649  1.00  0.00    -0.468 OA 
HETATM    2  N   UNL     1     -10.495   6.082  66.657  1.00  0.00    -0.377 N  
HETATM    3  H   UNL     1     -11.404   4.578  65.598  1.00  0.00     0.000 HD 
HETATM    4  C   UNL     1      -9.370   6.851  66.731  1.00  0.00    -0.158 C  
HETATM    5  H   UNL     1     -11.246   6.211  67.336  1.00  0.00     0.000 HD 
HETATM    6  O   UNL     1      -9.265   7.713  67.601  1.00  0.00    -0.135 OA 
ENDROOT
BRANCH   4   7
HETATM    7  C   UNL     1      -8.299   6.565  65.696  1.00  0.00    -0.144 C  
BRANCH   7   8
HETATM    8  C   UNL     1      -8.094   7.740  64.744  1.00  0.00    -0.131 C  
BRANCH   8   9
HETATM    9  C   UNL     1      -9.254   8.724  64.830  1.00  0.00     0.209 C  
BRANCH   9  10
HETATM   10  C   UNL     1      -9.036   9.750  65.946  1.00  0.00    -0.189 C  
BRANCH  10  11
HETATM   11  C   UNL     1      -9.115  11.153  65.367  1.00  0.00    -0.193 C  
BRANCH  11  12
HETATM   12  C   UNL     1      -8.242  12.182  66.092  1.00  0.00     0.390 C  
BRANCH  12  13
HETATM   13  C   UNL     1      -7.950  11.662  67.491  1.00  0.00    -0.141 C  
HETATM   14  N   UNL     1      -7.966  10.282  67.597  1.00  0.00    -0.102 N  
HETATM   15  O   UNL     1      -7.706  12.444  68.409  1.00  0.00    -0.133 OA 
HETATM   16  H   UNL     1      -8.189   9.742  66.762  1.00  0.00     0.000 HD 
BRANCH  14  17
HETATM   17  C   UNL     1      -7.692   9.574  68.793  1.00  0.00    -0.080 A  
HETATM   18  C   UNL     1      -6.573   9.837  69.591  1.00  0.00    -0.052 A  
HETATM   19  C   UNL     1      -6.277   9.046  70.701  1.00  0.00    -0.043 A  
HETATM   20  C   UNL     1      -7.117   7.993  71.043  1.00  0.00    -0.050 A  
HETATM   21  C   UNL     1      -8.268   7.756  70.293  1.00  0.00    -0.125 A  
HETATM   22  C   UNL     1      -8.563   8.551  69.178  1.00  0.00    -0.133 A  
ENDBRANCH  14  17
ENDBRANCH  12  13
ENDBRANCH  11  12
ENDBRANCH  10  11
ENDBRANCH   9  10
ENDBRANCH   8   9
ENDBRANCH   7   8
ENDBRANCH   4   7
TORSDOF 8
ENDMDL
MODEL      315
REMARK 921   NORMALIZED FREE ENERGY PREDICTED BY IDOCK:   11.32 KCAL/MOL
REMARK 922        TOTAL FREE ENERGY PREDICTED BY IDOCK:   15.82 KCAL/MOL
REMARK 923 INTER-LIGAND FREE ENERGY PREDICTED BY IDOCK:    4.87 KCAL/MOL
REMARK 924 INTRA-LIGAND FREE ENERGY PREDICTED BY IDOCK:   10.95 KCAL/MOL
REMARK 927      BINDING AFFINITY PREDICTED BY RF-SCORE:    0.00 PKD
ROOT
HETATM    1  O   UNL     1     -11.079   4.925  65.924  1.00  0.00    -0.753 OA 
HETATM    2  N   UNL     1     -12.022   5.754  66.551  1.00  0.00     1.210 N  
HETATM    3  H   UNL     1     -11.254   4.576  65.058  1.00  0.00     0.000 HD 
HETATM    4  C   UNL     1     -11.772   6.256  67.796  1.00  0.00     1.287 C  
HETATM    5  H   UNL     1     -12.895   5.982  66.076  1.00  0.00     0.000 HD 
HETATM    6  O   UNL     1     -12.587   6.998  68.340  1.00  0.00     3.393 OA 
ENDROOT
BRANCH   4   7
HETATM    7  C   UNL     1     -10.460   5.837  68.431  1.00  0.00    -0.283 C  
BRANCH   7   8
HETATM    8  C   UNL     1      -9.520   7.022  68.638  1.00  0.00    -0.135 C  
BRANCH   8   9
HETATM    9  C   UNL     1      -9.588   7.988  67.462  1.00  0.00    -0.191 C  
BRANCH   9  10
HETATM   10  C   UNL     1     -11.032   8.210  67.002  1.00  0.00     0.149 C  
BRANCH  10  11
HETATM   11  C   UNL     1     -11.355   9.694  67.047  1.00  0.00     0.807 C  
BRANCH  11  12
HETATM   12  C   UNL     1     -11.174  10.417  65.709  1.00  0.00     0.679 C  
BRANCH  12  13
HETATM   13  C   UNL     1      -9.911   9.888  65.046  1.00  0.00    -0.165 C  
HETATM   14  N   UNL     1      -9.388   8.756  65.646  1.00  0.00    -0.401 N  
HETATM   15  O   UNL     1      -9.450  10.443  64.049  1.00  0.00    -0.252 OA 
HETATM   16  H   UNL     1      -9.860   8.393  66.473  1.00  0.00     0.000 HD 
BRANCH  14  17
HETATM   17  C   UNL     1      -8.237   8.071  65.184  1.00  0.00    -0.144 A  
HETATM   18  C   UNL     1      -7.948   7.904  63.826  1.00  0.00    -0.119 A  
HETATM   19  C   UNL     1      -6.866   7.129  63.409  1.00  0.00    -0.053 A  
HETATM   20  C   UNL     1      -6.040   6.531  64.352  1.00  0.00    -0.034 A  
HETATM   21  C   UNL     1      -6.279   6.738  65.710  1.00  0.00    -0.039 A  
HETATM   22  C   UNL     1      -7.367   7.515  66.127  1.00  0.00    -0.082 A  
ENDBRANCH  14  17
ENDBRANCH  12  13
ENDBRANCH  11  12
ENDBRANCH  10  11
ENDBRANCH   9  10
ENDBRANCH   8   9
ENDBRANCH   7   8
ENDBRANCH   4   7
TORSDOF 8
ENDMDL
MODEL      316
REMARK 921   NORMALIZED FREE ENERGY PREDICTED BY IDOCK:   18.86 KCAL/MOL
REMARK 922        TOTAL FREE ENERGY PREDICTED BY IDOCK:   26.89 KCAL/MOL
REMARK 923 INTER-LIGAND FREE ENERGY PREDICTED BY IDOCK:   17.30 KCAL/MOL
REMARK 924 INTRA-LIGAND FREE ENERGY PREDICTED BY IDOCK:    9.59 KCAL/MOL
REMARK 927      BINDING AFFINITY PREDICTED BY RF-SCORE:    0.00 PKD
ROOT
HETATM    1  O   UNL     1     -11.196   4.900  65.925  1.00  0.00    -0.785 OA 
HETATM    2  N   UNL     1     -12.347   5.548  66.401  1.00  0.00     3.384 N  
HETATM    3  H   UNL     1     -11.171   4.570  65.034  1.00  0.00     0.000 HD 
HETATM    4  C   UNL     1     -12.384   6.024  67.681  1.00  0.00     5.699 C  
HETATM    5  H   UNL     1     -13.155   5.665  65.790  1.00  0.00     0.000 HD 
HETATM    6  O   UNL     1     -13.383   6.608  68.095  1.00  0.00     9.371 OA 
ENDROOT
BRANCH   4   7
HETATM    7  C   UNL     1     -11.145   5.777  68.518  1.00  0.00    -0.038 C  
BRANCH   7   8
HETATM    8  C   UNL     1     -10.337   7.053  68.735  1.00  0.00    -0.196 C  
BRANCH   8   9
HETATM    9  C   UNL     1      -9.212   7.171  67.714  1.00  0.00    -0.125 C  
BRANCH   9  10
HETATM   10  C   UNL     1      -9.669   6.715  66.324  1.00  0.00    -0.057 C  
BRANCH  10  11
HETATM   11  C   UNL     1      -9.306   7.777  65.299  1.00  0.00     0.606 C  
BRANCH  11  12
HETATM   12  C   UNL     1      -7.940   7.571  64.638  1.00  0.00    -0.133 C  
BRANCH  12  13
HETATM   13  C   UNL     1      -6.985   7.003  65.677  1.00  0.00    -0.056 C  
HETATM   14  N   UNL     1      -7.599   6.602  66.851  1.00  0.00    -0.093 N  
HETATM   15  O   UNL     1      -5.783   6.910  65.435  1.00  0.00    -0.030 OA 
HETATM   16  H   UNL     1      -8.606   6.738  66.933  1.00  0.00     0.000 HD 
BRANCH  14  17
HETATM   17  C   UNL     1      -6.916   6.016  67.945  1.00  0.00    -0.072 A  
HETATM   18  C   UNL     1      -5.857   5.117  67.784  1.00  0.00    -0.018 A  
HETATM   19  C   UNL     1      -5.283   4.476  68.882  1.00  0.00    -0.004 A  
HETATM   20  C   UNL     1      -5.746   4.749  70.163  1.00  0.00    -0.016 A  
HETATM   21  C   UNL     1      -6.760   5.688  70.344  1.00  0.00    -0.048 A  
HETATM   22  C   UNL     1      -7.337   6.330  69.241  1.00  0.00    -0.092 A  
ENDBRANCH  14  17
ENDBRANCH  12  13
ENDBRANCH  11  12
ENDBRANCH  10  11
ENDBRANCH   9  10
ENDBRANCH   8   9
ENDBRANCH   7   8
ENDBRANCH   4   7
TORSDOF 8
ENDMDL
