MODEL        1
REMARK 921   NORMALIZED FREE ENERGY PREDICTED BY IDOCK:   -7.30 KCAL/MOL
REMARK 922        TOTAL FREE ENERGY PREDICTED BY IDOCK:   -7.33 KCAL/MOL
REMARK 923 INTER-LIGAND FREE ENERGY PREDICTED BY IDOCK:   -7.73 KCAL/MOL
REMARK 924 INTRA-LIGAND FREE ENERGY PREDICTED BY IDOCK:    0.40 KCAL/MOL
REMARK 927      BINDING AFFINITY PREDICTED BY RF-SCORE:    0.00 PKD
ROOT
HETATM    1  C   UNL     1     -10.949  16.274  64.920  1.00  0.00    -0.321 C  
HETATM    2  C   UNL     1      -9.717  15.877  65.750  1.00  0.00    -0.360 C  
HETATM    3  C   UNL     1      -9.661  14.402  66.343  1.00  0.00    -0.299 C  
HETATM    4  C   UNL     1      -9.425  16.959  66.789  1.00  0.00    -0.255 A  
HETATM    5  O   UNL     1      -8.260  14.270  66.742  1.00  0.00    -0.399 OA 
HETATM    6  N   UNL     1     -10.480  17.642  67.308  1.00  0.00    -0.351 NA 
HETATM    7  C   UNL     1     -10.523  14.037  67.569  1.00  0.00    -0.252 A  
HETATM    8  C   UNL     1      -9.806  13.315  65.226  1.00  0.00    -0.075 C  
HETATM    9  C   UNL     1     -11.627  14.786  67.997  1.00  0.00    -0.367 A  
HETATM   10  C   UNL     1     -10.249  12.862  68.303  1.00  0.00    -0.245 A  
HETATM   11  C   UNL     1     -10.208  18.580  68.232  1.00  0.00    -0.376 A  
HETATM   12  H   UNL     1      -8.227  13.388  67.097  1.00  0.00     0.000 HD 
HETATM   13  F   UNL     1      -7.063  16.637  66.646  1.00  0.00    -0.209 F  
HETATM   14  C   UNL     1     -11.020  12.441  69.381  1.00  0.00    -0.072 A  
HETATM   15  F   UNL     1      -9.197  12.105  67.956  1.00  0.00    -0.166 F  
HETATM   16  N   UNL     1      -8.994  18.889  68.703  1.00  0.00    -0.356 NA 
HETATM   17  C   UNL     1     -12.101  13.210  69.766  1.00  0.00    -0.270 A  
HETATM   18  C   UNL     1     -12.404  14.384  69.092  1.00  0.00    -0.156 A  
HETATM   19  C   UNL     1      -7.971  18.200  68.156  1.00  0.00    -0.283 A  
HETATM   20  F   UNL     1     -12.864  12.819  70.793  1.00  0.00    -0.326 F  
HETATM   21  C   UNL     1      -8.129  17.240  67.183  1.00  0.00    -0.203 A  
ENDROOT
BRANCH   8  22
HETATM   22  N   UNL     1     -11.133  13.001  64.760  1.00  0.00    -0.309 NA 
HETATM   23  C   UNL     1     -12.661  12.436  63.467  1.00  0.00    -0.425 A  
HETATM   24  C   UNL     1     -12.246  12.742  65.501  1.00  0.00    -0.463 A  
HETATM   25  N   UNL     1     -13.242  12.427  64.703  1.00  0.00    -0.731 NA 
HETATM   26  N   UNL     1     -11.358  12.737  63.459  1.00  0.00    -0.462 NA 
ENDBRANCH   8  22
TORSDOF 1
ENDMDL
MODEL        2
REMARK 921   NORMALIZED FREE ENERGY PREDICTED BY IDOCK:   -6.86 KCAL/MOL
REMARK 922        TOTAL FREE ENERGY PREDICTED BY IDOCK:   -6.85 KCAL/MOL
REMARK 923 INTER-LIGAND FREE ENERGY PREDICTED BY IDOCK:   -6.83 KCAL/MOL
REMARK 924 INTRA-LIGAND FREE ENERGY PREDICTED BY IDOCK:   -0.02 KCAL/MOL
REMARK 927      BINDING AFFINITY PREDICTED BY RF-SCORE:    0.00 PKD
ROOT
HETATM    1  C   UNL     1      -7.380  16.318  67.537  1.00  0.00    -0.177 C  
HETATM    2  C   UNL     1      -8.734  16.631  68.197  1.00  0.00    -0.201 C  
HETATM    3  C   UNL     1      -9.836  15.484  68.216  1.00  0.00    -0.213 C  
HETATM    4  C   UNL     1      -9.261  17.970  67.681  1.00  0.00    -0.259 A  
HETATM    5  O   UNL     1     -10.804  15.986  69.192  1.00  0.00    -0.242 OA 
HETATM    6  N   UNL     1      -8.962  18.321  66.403  1.00  0.00    -0.391 NA 
HETATM    7  C   UNL     1     -10.615  15.150  66.928  1.00  0.00    -0.297 A  
HETATM    8  C   UNL     1      -9.309  14.175  68.895  1.00  0.00    -0.012 C  
HETATM    9  C   UNL     1     -10.194  15.519  65.643  1.00  0.00    -0.403 A  
HETATM   10  C   UNL     1     -11.802  14.388  66.996  1.00  0.00    -0.412 A  
HETATM   11  C   UNL     1      -9.446  19.494  65.960  1.00  0.00    -0.253 A  
HETATM   12  H   UNL     1     -11.462  15.301  69.203  1.00  0.00     0.000 HD 
HETATM   13  F   UNL     1     -10.271  18.520  69.775  1.00  0.00    -0.116 F  
HETATM   14  C   UNL     1     -12.523  13.999  65.872  1.00  0.00    -0.513 A  
HETATM   15  F   UNL     1     -12.271  14.012  68.197  1.00  0.00    -0.386 F  
HETATM   16  N   UNL     1     -10.215  20.339  66.658  1.00  0.00    -0.418 NA 
HETATM   17  C   UNL     1     -12.068  14.384  64.626  1.00  0.00    -0.471 A  
HETATM   18  C   UNL     1     -10.918  15.149  64.501  1.00  0.00    -0.208 A  
HETATM   19  C   UNL     1     -10.481  19.963  67.926  1.00  0.00    -0.364 A  
HETATM   20  F   UNL     1     -12.738  14.012  63.529  1.00  0.00    -0.345 F  
HETATM   21  C   UNL     1     -10.013  18.800  68.493  1.00  0.00    -0.400 A  
ENDROOT
BRANCH   8  22
HETATM   22  N   UNL     1      -8.498  13.285  68.102  1.00  0.00    -0.167 NA 
HETATM   23  C   UNL     1      -6.828  12.231  67.452  1.00  0.00    -0.145 A  
HETATM   24  C   UNL     1      -8.910  12.336  67.216  1.00  0.00    -0.190 A  
HETATM   25  N   UNL     1      -7.867  11.685  66.753  1.00  0.00    -0.154 NA 
HETATM   26  N   UNL     1      -7.174  13.183  68.324  1.00  0.00    -0.096 NA 
ENDBRANCH   8  22
TORSDOF 1
ENDMDL
MODEL        3
REMARK 921   NORMALIZED FREE ENERGY PREDICTED BY IDOCK:   -6.81 KCAL/MOL
REMARK 922        TOTAL FREE ENERGY PREDICTED BY IDOCK:   -6.80 KCAL/MOL
REMARK 923 INTER-LIGAND FREE ENERGY PREDICTED BY IDOCK:   -6.78 KCAL/MOL
REMARK 924 INTRA-LIGAND FREE ENERGY PREDICTED BY IDOCK:   -0.02 KCAL/MOL
REMARK 927      BINDING AFFINITY PREDICTED BY RF-SCORE:    0.00 PKD
ROOT
HETATM    1  C   UNL     1     -12.000  13.516  68.653  1.00  0.00    -0.378 C  
HETATM    2  C   UNL     1     -11.767  13.181  67.170  1.00  0.00    -0.430 C  
HETATM    3  C   UNL     1     -10.853  11.925  66.825  1.00  0.00    -0.266 C  
HETATM    4  C   UNL     1     -11.367  14.447  66.413  1.00  0.00    -0.350 A  
HETATM    5  O   UNL     1     -11.136  11.703  65.407  1.00  0.00    -0.294 OA 
HETATM    6  N   UNL     1     -10.650  15.388  67.082  1.00  0.00    -0.299 NA 
HETATM    7  C   UNL     1      -9.322  12.028  66.975  1.00  0.00    -0.191 A  
HETATM    8  C   UNL     1     -11.384  10.612  67.492  1.00  0.00    -0.162 C  
HETATM    9  C   UNL     1      -8.677  13.015  67.733  1.00  0.00    -0.188 A  
HETATM   10  C   UNL     1      -8.484  11.064  66.372  1.00  0.00    -0.164 A  
HETATM   11  C   UNL     1     -10.294  16.489  66.397  1.00  0.00    -0.311 A  
HETATM   12  H   UNL     1     -10.590  10.953  65.201  1.00  0.00     0.000 HD 
HETATM   13  F   UNL     1     -12.492  13.760  64.420  1.00  0.00    -0.413 F  
HETATM   14  C   UNL     1      -7.101  11.061  66.516  1.00  0.00    -0.136 A  
HETATM   15  F   UNL     1      -9.035  10.098  65.621  1.00  0.00    -0.159 F  
HETATM   16  N   UNL     1     -10.564  16.733  65.109  1.00  0.00    -0.682 NA 
HETATM   17  C   UNL     1      -6.509  12.052  67.274  1.00  0.00    -0.149 A  
HETATM   18  C   UNL     1      -7.282  13.035  67.874  1.00  0.00    -0.129 A  
HETATM   19  C   UNL     1     -11.287  15.783  64.481  1.00  0.00    -0.316 A  
HETATM   20  F   UNL     1      -5.181  12.063  67.436  1.00  0.00    -0.059 F  
HETATM   21  C   UNL     1     -11.730  14.632  65.091  1.00  0.00    -0.364 A  
ENDROOT
BRANCH   8  22
HETATM   22  N   UNL     1     -11.056  10.381  68.877  1.00  0.00    -0.239 NA 
HETATM   23  C   UNL     1     -11.310  10.172  70.930  1.00  0.00    -0.340 A  
HETATM   24  C   UNL     1      -9.929   9.817  69.392  1.00  0.00    -0.205 A  
HETATM   25  N   UNL     1     -10.044   9.717  70.697  1.00  0.00    -0.280 NA 
HETATM   26  N   UNL     1     -11.984  10.546  69.838  1.00  0.00    -0.277 NA 
ENDBRANCH   8  22
TORSDOF 1
ENDMDL
MODEL        4
REMARK 921   NORMALIZED FREE ENERGY PREDICTED BY IDOCK:   -6.80 KCAL/MOL
REMARK 922        TOTAL FREE ENERGY PREDICTED BY IDOCK:   -6.79 KCAL/MOL
REMARK 923 INTER-LIGAND FREE ENERGY PREDICTED BY IDOCK:   -6.81 KCAL/MOL
REMARK 924 INTRA-LIGAND FREE ENERGY PREDICTED BY IDOCK:    0.02 KCAL/MOL
REMARK 927      BINDING AFFINITY PREDICTED BY RF-SCORE:    0.00 PKD
ROOT
HETATM    1  C   UNL     1     -11.267  11.100  66.643  1.00  0.00    -0.186 C  
HETATM    2  C   UNL     1     -11.288  11.491  68.130  1.00  0.00    -0.367 C  
HETATM    3  C   UNL     1     -11.096  13.026  68.500  1.00  0.00    -0.266 C  
HETATM    4  C   UNL     1     -10.370  10.558  68.921  1.00  0.00    -0.208 A  
HETATM    5  O   UNL     1     -11.515  13.073  69.901  1.00  0.00    -0.480 OA 
HETATM    6  N   UNL     1      -9.263  10.077  68.297  1.00  0.00    -0.128 NA 
HETATM    7  C   UNL     1      -9.695  13.664  68.420  1.00  0.00    -0.217 A  
HETATM    8  C   UNL     1     -12.156  13.936  67.793  1.00  0.00    -0.293 C  
HETATM    9  C   UNL     1      -8.624  13.108  67.705  1.00  0.00    -0.188 A  
HETATM   10  C   UNL     1      -9.443  14.903  69.048  1.00  0.00    -0.196 A  
HETATM   11  C   UNL     1      -8.459   9.270  69.011  1.00  0.00    -0.132 A  
HETATM   12  H   UNL     1     -11.401  13.990  70.122  1.00  0.00     0.000 HD 
HETATM   13  F   UNL     1     -11.776  10.608  70.852  1.00  0.00    -0.370 F  
HETATM   14  C   UNL     1      -8.222  15.564  68.967  1.00  0.00    -0.227 A  
HETATM   15  F   UNL     1     -10.420  15.485  69.762  1.00  0.00    -0.224 F  
HETATM   16  N   UNL     1      -8.639   8.914  70.288  1.00  0.00    -0.151 NA 
HETATM   17  C   UNL     1      -7.197  14.980  68.248  1.00  0.00    -0.112 A  
HETATM   18  C   UNL     1      -7.382  13.754  67.627  1.00  0.00    -0.182 A  
HETATM   19  C   UNL     1      -9.754   9.401  70.871  1.00  0.00    -0.250 A  
HETATM   20  F   UNL     1      -6.017  15.602  68.147  1.00  0.00    -0.099 F  
HETATM   21  C   UNL     1     -10.662  10.209  70.227  1.00  0.00    -0.293 A  
ENDROOT
BRANCH   8  22
HETATM   22  N   UNL     1     -11.914  14.310  66.422  1.00  0.00    -0.418 NA 
HETATM   23  C   UNL     1     -12.232  14.535  64.379  1.00  0.00    -0.458 A  
HETATM   24  C   UNL     1     -10.985  15.179  65.937  1.00  0.00    -0.339 A  
HETATM   25  N   UNL     1     -11.134  15.303  64.638  1.00  0.00    -0.368 NA 
HETATM   26  N   UNL     1     -12.771  13.944  65.450  1.00  0.00    -0.662 NA 
ENDBRANCH   8  22
TORSDOF 1
ENDMDL
MODEL        5
REMARK 921   NORMALIZED FREE ENERGY PREDICTED BY IDOCK:   -6.79 KCAL/MOL
REMARK 922        TOTAL FREE ENERGY PREDICTED BY IDOCK:   -6.78 KCAL/MOL
REMARK 923 INTER-LIGAND FREE ENERGY PREDICTED BY IDOCK:   -6.76 KCAL/MOL
REMARK 924 INTRA-LIGAND FREE ENERGY PREDICTED BY IDOCK:   -0.03 KCAL/MOL
REMARK 927      BINDING AFFINITY PREDICTED BY RF-SCORE:    0.00 PKD
ROOT
HETATM    1  C   UNL     1      -9.469   9.071  71.820  1.00  0.00    -0.245 C  
HETATM    2  C   UNL     1     -10.341   8.410  70.740  1.00  0.00    -0.228 C  
HETATM    3  C   UNL     1     -10.189   8.922  69.242  1.00  0.00    -0.209 C  
HETATM    4  C   UNL     1     -11.793   8.352  71.216  1.00  0.00    -0.289 A  
HETATM    5  O   UNL     1     -10.866   7.877  68.475  1.00  0.00    -0.403 OA 
HETATM    6  N   UNL     1     -12.239   9.354  72.018  1.00  0.00    -0.352 NA 
HETATM    7  C   UNL     1     -10.812  10.271  68.827  1.00  0.00    -0.265 A  
HETATM    8  C   UNL     1      -8.712   8.820  68.735  1.00  0.00    -0.137 C  
HETATM    9  C   UNL     1     -11.198  11.265  69.737  1.00  0.00    -0.294 A  
HETATM   10  C   UNL     1     -10.977  10.584  67.460  1.00  0.00    -0.303 A  
HETATM   11  C   UNL     1     -13.523   9.296  72.416  1.00  0.00    -0.459 A  
HETATM   12  H   UNL     1     -10.775   8.183  67.580  1.00  0.00     0.000 HD 
HETATM   13  F   UNL     1     -12.201   6.272  70.114  1.00  0.00    -0.383 F  
HETATM   14  C   UNL     1     -11.475  11.804  67.013  1.00  0.00    -0.368 A  
HETATM   15  F   UNL     1     -10.641   9.672  66.535  1.00  0.00    -0.296 F  
HETATM   16  N   UNL     1     -14.407   8.350  72.075  1.00  0.00    -0.457 NA 
HETATM   17  C   UNL     1     -11.840  12.755  67.947  1.00  0.00    -0.339 A  
HETATM   18  C   UNL     1     -11.717  12.493  69.303  1.00  0.00    -0.379 A  
HETATM   19  C   UNL     1     -13.925   7.366  71.287  1.00  0.00    -0.253 A  
HETATM   20  F   UNL     1     -12.311  13.939  67.540  1.00  0.00    -0.404 F  
HETATM   21  C   UNL     1     -12.623   7.309  70.847  1.00  0.00    -0.193 A  
ENDROOT
BRANCH   8  22
HETATM   22  N   UNL     1      -7.796   9.868  69.111  1.00  0.00    -0.096 NA 
HETATM   23  C   UNL     1      -6.172  10.806  70.009  1.00  0.00    -0.119 A  
HETATM   24  C   UNL     1      -7.649  11.100  68.549  1.00  0.00    -0.120 A  
HETATM   25  N   UNL     1      -6.657  11.733  69.132  1.00  0.00    -0.094 NA 
HETATM   26  N   UNL     1      -6.811   9.631  69.997  1.00  0.00    -0.072 NA 
ENDBRANCH   8  22
TORSDOF 1
ENDMDL
MODEL        6
REMARK 921   NORMALIZED FREE ENERGY PREDICTED BY IDOCK:   -6.73 KCAL/MOL
REMARK 922        TOTAL FREE ENERGY PREDICTED BY IDOCK:   -6.72 KCAL/MOL
REMARK 923 INTER-LIGAND FREE ENERGY PREDICTED BY IDOCK:   -6.75 KCAL/MOL
REMARK 924 INTRA-LIGAND FREE ENERGY PREDICTED BY IDOCK:    0.03 KCAL/MOL
REMARK 927      BINDING AFFINITY PREDICTED BY RF-SCORE:    0.00 PKD
ROOT
HETATM    1  C   UNL     1      -9.081  11.230  65.585  1.00  0.00    -0.203 C  
HETATM    2  C   UNL     1      -9.288  11.422  67.097  1.00  0.00    -0.180 C  
HETATM    3  C   UNL     1     -10.321  12.535  67.573  1.00  0.00    -0.220 C  
HETATM    4  C   UNL     1      -7.930  11.519  67.794  1.00  0.00    -0.128 A  
HETATM    5  O   UNL     1     -10.521  12.204  68.984  1.00  0.00    -0.386 OA 
HETATM    6  N   UNL     1      -6.903  12.086  67.108  1.00  0.00    -0.147 NA 
HETATM    7  C   UNL     1      -9.928  14.024  67.503  1.00  0.00    -0.236 A  
HETATM    8  C   UNL     1     -11.745  12.312  66.961  1.00  0.00    -0.329 C  
HETATM    9  C   UNL     1      -8.873  14.517  66.722  1.00  0.00    -0.248 A  
HETATM   10  C   UNL     1     -10.677  14.988  68.212  1.00  0.00    -0.253 A  
HETATM   11  C   UNL     1      -5.720  12.177  67.740  1.00  0.00    -0.085 A  
HETATM   12  H   UNL     1     -11.138  12.869  69.268  1.00  0.00     0.000 HD 
HETATM   13  F   UNL     1      -8.720  10.414  69.759  1.00  0.00    -0.181 F  
HETATM   14  C   UNL     1     -10.416  16.353  68.148  1.00  0.00    -0.302 A  
HETATM   15  F   UNL     1     -11.692  14.584  68.992  1.00  0.00    -0.274 F  
HETATM   16  N   UNL     1      -5.467  11.778  68.992  1.00  0.00    -0.050 NA 
HETATM   17  C   UNL     1      -9.369  16.793  67.362  1.00  0.00    -0.233 A  
HETATM   18  C   UNL     1      -8.588  15.888  66.659  1.00  0.00    -0.320 A  
HETATM   19  C   UNL     1      -6.507  11.210  69.638  1.00  0.00    -0.128 A  
HETATM   20  F   UNL     1      -9.107  18.103  67.276  1.00  0.00    -0.244 F  
HETATM   21  C   UNL     1      -7.752  11.038  69.078  1.00  0.00    -0.132 A  
ENDROOT
BRANCH   8  22
HETATM   22  N   UNL     1     -11.978  12.772  65.615  1.00  0.00    -0.431 NA 
HETATM   23  C   UNL     1     -12.240  12.708  63.553  1.00  0.00    -0.547 A  
HETATM   24  C   UNL     1     -12.474  13.974  65.210  1.00  0.00    -0.475 A  
HETATM   25  N   UNL     1     -12.605  13.977  63.903  1.00  0.00    -0.746 NA 
HETATM   26  N   UNL     1     -11.893  11.920  64.576  1.00  0.00    -0.268 NA 
ENDBRANCH   8  22
TORSDOF 1
ENDMDL
MODEL        7
REMARK 921   NORMALIZED FREE ENERGY PREDICTED BY IDOCK:   -6.69 KCAL/MOL
REMARK 922        TOTAL FREE ENERGY PREDICTED BY IDOCK:   -6.68 KCAL/MOL
REMARK 923 INTER-LIGAND FREE ENERGY PREDICTED BY IDOCK:   -6.66 KCAL/MOL
REMARK 924 INTRA-LIGAND FREE ENERGY PREDICTED BY IDOCK:   -0.02 KCAL/MOL
REMARK 927      BINDING AFFINITY PREDICTED BY RF-SCORE:    0.00 PKD
ROOT
HETATM    1  C   UNL     1     -12.249  14.449  67.039  1.00  0.00    -0.274 C  
HETATM    2  C   UNL     1     -11.067  14.563  68.017  1.00  0.00    -0.289 C  
HETATM    3  C   UNL     1      -9.919  13.465  67.930  1.00  0.00    -0.236 C  
HETATM    4  C   UNL     1     -11.592  14.780  69.436  1.00  0.00    -0.310 A  
HETATM    5  O   UNL     1      -8.841  14.066  68.715  1.00  0.00    -0.319 OA 
HETATM    6  N   UNL     1     -12.777  14.204  69.770  1.00  0.00    -0.098 NA 
HETATM    7  C   UNL     1     -10.167  12.053  68.496  1.00  0.00    -0.218 A  
HETATM    8  C   UNL     1      -9.296  13.381  66.496  1.00  0.00    -0.215 C  
HETATM    9  C   UNL     1     -11.440  11.531  68.764  1.00  0.00    -0.349 A  
HETATM   10  C   UNL     1      -9.079  11.182  68.729  1.00  0.00    -0.139 A  
HETATM   11  C   UNL     1     -13.217  14.392  71.027  1.00  0.00    -0.333 A  
HETATM   12  H   UNL     1      -8.155  13.410  68.664  1.00  0.00     0.000 HD 
HETATM   13  F   UNL     1      -9.752  16.180  70.037  1.00  0.00    -0.184 F  
HETATM   14  C   UNL     1      -9.233   9.876  69.181  1.00  0.00    -0.184 A  
HETATM   15  F   UNL     1      -7.831  11.622  68.508  1.00  0.00    -0.113 F  
HETATM   16  N   UNL     1     -12.583  15.078  71.986  1.00  0.00    -0.316 NA 
HETATM   17  C   UNL     1     -10.508   9.404  69.429  1.00  0.00    -0.220 A  
HETATM   18  C   UNL     1     -11.611  10.222  69.236  1.00  0.00    -0.186 A  
HETATM   19  C   UNL     1     -11.416  15.644  71.614  1.00  0.00    -0.429 A  
HETATM   20  F   UNL     1     -10.681   8.147  69.854  1.00  0.00    -0.233 F  
HETATM   21  C   UNL     1     -10.886  15.543  70.349  1.00  0.00    -0.335 A  
ENDROOT
BRANCH   8  22
HETATM   22  N   UNL     1     -10.003  12.619  65.498  1.00  0.00    -0.253 NA 
HETATM   23  C   UNL     1     -11.126  12.204  63.798  1.00  0.00    -0.436 A  
HETATM   24  C   UNL     1      -9.938  11.280  65.259  1.00  0.00    -0.253 A  
HETATM   25  N   UNL     1     -10.678  10.983  64.215  1.00  0.00    -0.348 NA 
HETATM   26  N   UNL     1     -10.699  13.240  64.527  1.00  0.00    -0.391 NA 
ENDBRANCH   8  22
TORSDOF 1
ENDMDL
MODEL        8
REMARK 921   NORMALIZED FREE ENERGY PREDICTED BY IDOCK:   -6.66 KCAL/MOL
REMARK 922        TOTAL FREE ENERGY PREDICTED BY IDOCK:   -6.64 KCAL/MOL
REMARK 923 INTER-LIGAND FREE ENERGY PREDICTED BY IDOCK:   -6.63 KCAL/MOL
REMARK 924 INTRA-LIGAND FREE ENERGY PREDICTED BY IDOCK:   -0.02 KCAL/MOL
REMARK 927      BINDING AFFINITY PREDICTED BY RF-SCORE:    0.00 PKD
ROOT
HETATM    1  C   UNL     1      -7.486  15.308  67.280  1.00  0.00    -0.236 C  
HETATM    2  C   UNL     1      -8.868  15.441  67.942  1.00  0.00    -0.168 C  
HETATM    3  C   UNL     1      -9.869  14.210  67.832  1.00  0.00    -0.224 C  
HETATM    4  C   UNL     1      -9.502  16.775  67.545  1.00  0.00    -0.237 A  
HETATM    5  O   UNL     1     -10.885  14.533  68.833  1.00  0.00    -0.238 OA 
HETATM    6  N   UNL     1      -9.220  17.270  66.311  1.00  0.00    -0.400 NA 
HETATM    7  C   UNL     1     -10.604  13.937  66.504  1.00  0.00    -0.279 A  
HETATM    8  C   UNL     1      -9.239  12.891  68.394  1.00  0.00    -0.137 C  
HETATM    9  C   UNL     1     -10.202  14.461  65.268  1.00  0.00    -0.416 A  
HETATM   10  C   UNL     1     -11.722  13.075  66.478  1.00  0.00    -0.382 A  
HETATM   11  C   UNL     1      -9.798  18.436  65.973  1.00  0.00    -0.154 A  
HETATM   12  H   UNL     1     -11.484  13.798  68.767  1.00  0.00     0.000 HD 
HETATM   13  F   UNL     1     -10.576  17.036  69.663  1.00  0.00    -0.307 F  
HETATM   14  C   UNL     1     -12.396  12.737  65.309  1.00  0.00    -0.546 A  
HETATM   15  F   UNL     1     -12.169  12.549  67.629  1.00  0.00    -0.389 F  
HETATM   16  N   UNL     1     -10.642  19.144  66.733  1.00  0.00    -0.431 NA 
HETATM   17  C   UNL     1     -11.962  13.276  64.113  1.00  0.00    -0.447 A  
HETATM   18  C   UNL     1     -10.881  14.143  64.083  1.00  0.00     0.151 A  
HETATM   19  C   UNL     1     -10.889  18.627  67.955  1.00  0.00    -0.201 A  
HETATM   20  F   UNL     1     -12.587  12.956  62.974  1.00  0.00    -0.492 F  
HETATM   21  C   UNL     1     -10.330  17.458  68.417  1.00  0.00    -0.379 A  
ENDROOT
BRANCH   8  22
HETATM   22  N   UNL     1      -8.348  12.152  67.535  1.00  0.00    -0.156 NA 
HETATM   23  C   UNL     1      -6.582  11.333  66.803  1.00  0.00    -0.140 A  
HETATM   24  C   UNL     1      -8.666  11.228  66.587  1.00  0.00    -0.174 A  
HETATM   25  N   UNL     1      -7.565  10.728  66.073  1.00  0.00    -0.148 NA 
HETATM   26  N   UNL     1      -7.018  12.179  67.742  1.00  0.00    -0.097 NA 
ENDBRANCH   8  22
TORSDOF 1
ENDMDL
MODEL        9
REMARK 921   NORMALIZED FREE ENERGY PREDICTED BY IDOCK:   -6.54 KCAL/MOL
REMARK 922        TOTAL FREE ENERGY PREDICTED BY IDOCK:   -6.52 KCAL/MOL
REMARK 923 INTER-LIGAND FREE ENERGY PREDICTED BY IDOCK:   -6.49 KCAL/MOL
REMARK 924 INTRA-LIGAND FREE ENERGY PREDICTED BY IDOCK:   -0.03 KCAL/MOL
REMARK 927      BINDING AFFINITY PREDICTED BY RF-SCORE:    0.00 PKD
ROOT
HETATM    1  C   UNL     1      -8.934  11.614  66.050  1.00  0.00    -0.149 C  
HETATM    2  C   UNL     1      -9.172  11.434  67.559  1.00  0.00    -0.160 C  
HETATM    3  C   UNL     1     -10.387  12.220  68.220  1.00  0.00    -0.221 C  
HETATM    4  C   UNL     1      -7.853  11.612  68.312  1.00  0.00    -0.136 A  
HETATM    5  O   UNL     1     -10.525  11.561  69.519  1.00  0.00    -0.441 OA 
HETATM    6  N   UNL     1      -6.943  12.484  67.803  1.00  0.00    -0.107 NA 
HETATM    7  C   UNL     1     -10.266  13.734  68.485  1.00  0.00    -0.235 A  
HETATM    8  C   UNL     1     -11.748  11.891  67.521  1.00  0.00    -0.265 C  
HETATM    9  C   UNL     1      -9.316  14.561  67.869  1.00  0.00    -0.201 A  
HETATM   10  C   UNL     1     -11.174  14.376  69.355  1.00  0.00    -0.281 A  
HETATM   11  C   UNL     1      -5.796  12.640  68.486  1.00  0.00    -0.060 A  
HETATM   12  H   UNL     1     -11.250  12.030  69.915  1.00  0.00     0.000 HD 
HETATM   13  F   UNL     1      -8.434   9.987  69.964  1.00  0.00    -0.182 F  
HETATM   14  C   UNL     1     -11.162  15.746  69.593  1.00  0.00    -0.319 A  
HETATM   15  F   UNL     1     -12.101  13.642  69.990  1.00  0.00    -0.335 F  
HETATM   16  N   UNL     1      -5.476  12.029  69.633  1.00  0.00    -0.072 NA 
HETATM   17  C   UNL     1     -10.209  16.521  68.962  1.00  0.00    -0.285 A  
HETATM   18  C   UNL     1      -9.280  15.941  68.112  1.00  0.00    -0.190 A  
HETATM   19  C   UNL     1      -6.398  11.162  70.101  1.00  0.00    -0.137 A  
HETATM   20  F   UNL     1     -10.185  17.843  69.167  1.00  0.00    -0.358 F  
HETATM   21  C   UNL     1      -7.592  10.902  69.470  1.00  0.00    -0.050 A  
ENDROOT
BRANCH   8  22
HETATM   22  N   UNL     1     -12.060  12.584  66.296  1.00  0.00    -0.605 NA 
HETATM   23  C   UNL     1     -12.450  12.890  64.276  1.00  0.00    -0.349 A  
HETATM   24  C   UNL     1     -12.566  13.839  66.144  1.00  0.00    -0.371 A  
HETATM   25  N   UNL     1     -12.778  14.076  64.869  1.00  0.00    -0.689 NA 
HETATM   26  N   UNL     1     -12.049  11.932  65.118  1.00  0.00    -0.295 NA 
ENDBRANCH   8  22
TORSDOF 1
ENDMDL
MODEL       10
REMARK 921   NORMALIZED FREE ENERGY PREDICTED BY IDOCK:   -6.51 KCAL/MOL
REMARK 922        TOTAL FREE ENERGY PREDICTED BY IDOCK:   -6.48 KCAL/MOL
REMARK 923 INTER-LIGAND FREE ENERGY PREDICTED BY IDOCK:   -6.46 KCAL/MOL
REMARK 924 INTRA-LIGAND FREE ENERGY PREDICTED BY IDOCK:   -0.02 KCAL/MOL
REMARK 927      BINDING AFFINITY PREDICTED BY RF-SCORE:    0.00 PKD
ROOT
HETATM    1  C   UNL     1      -8.699  14.968  66.234  1.00  0.00    -0.063 C  
HETATM    2  C   UNL     1      -8.506  13.945  67.366  1.00  0.00    -0.208 C  
HETATM    3  C   UNL     1      -9.798  13.216  67.941  1.00  0.00    -0.231 C  
HETATM    4  C   UNL     1      -7.614  14.543  68.454  1.00  0.00    -0.122 A  
HETATM    5  O   UNL     1      -9.228  12.108  68.707  1.00  0.00    -0.385 OA 
HETATM    6  N   UNL     1      -7.687  15.883  68.671  1.00  0.00    -0.151 NA 
HETATM    7  C   UNL     1     -10.752  13.980  68.882  1.00  0.00    -0.265 A  
HETATM    8  C   UNL     1     -10.605  12.481  66.819  1.00  0.00    -0.233 C  
HETATM    9  C   UNL     1     -10.782  15.376  68.998  1.00  0.00    -0.242 A  
HETATM   10  C   UNL     1     -11.701  13.274  69.654  1.00  0.00    -0.303 A  
HETATM   11  C   UNL     1      -6.907  16.390  69.641  1.00  0.00    -0.105 A  
HETATM   12  H   UNL     1     -10.000  11.673  69.050  1.00  0.00     0.000 HD 
HETATM   13  F   UNL     1      -6.606  12.437  68.959  1.00  0.00    -0.076 F  
HETATM   14  C   UNL     1     -12.631  13.900  70.477  1.00  0.00    -0.382 A  
HETATM   15  F   UNL     1     -11.719  11.933  69.602  1.00  0.00    -0.317 F  
HETATM   16  N   UNL     1      -6.079  15.692  70.428  1.00  0.00    -0.068 NA 
HETATM   17  C   UNL     1     -12.624  15.279  70.557  1.00  0.00    -0.399 A  
HETATM   18  C   UNL     1     -11.702  16.022  69.836  1.00  0.00    -0.276 A  
HETATM   19  C   UNL     1      -6.024  14.368  70.176  1.00  0.00    -0.151 A  
HETATM   20  F   UNL     1     -13.517  15.904  71.334  1.00  0.00    -0.532 F  
HETATM   21  C   UNL     1      -6.754  13.747  69.189  1.00  0.00    -0.112 A  
ENDROOT
BRANCH   8  22
HETATM   22  N   UNL     1     -11.497  13.268  66.005  1.00  0.00    -0.319 NA 
HETATM   23  C   UNL     1     -12.278  14.214  64.326  1.00  0.00    -0.420 A  
HETATM   24  C   UNL     1     -12.771  13.659  66.288  1.00  0.00    -0.167 A  
HETATM   25  N   UNL     1     -13.272  14.302  65.258  1.00  0.00    -0.598 NA 
HETATM   26  N   UNL     1     -11.189  13.549  64.725  1.00  0.00    -0.337 NA 
ENDBRANCH   8  22
TORSDOF 1
ENDMDL
MODEL       11
REMARK 921   NORMALIZED FREE ENERGY PREDICTED BY IDOCK:   -6.47 KCAL/MOL
REMARK 922        TOTAL FREE ENERGY PREDICTED BY IDOCK:   -6.45 KCAL/MOL
REMARK 923 INTER-LIGAND FREE ENERGY PREDICTED BY IDOCK:   -6.51 KCAL/MOL
REMARK 924 INTRA-LIGAND FREE ENERGY PREDICTED BY IDOCK:    0.06 KCAL/MOL
REMARK 927      BINDING AFFINITY PREDICTED BY RF-SCORE:    0.00 PKD
ROOT
HETATM    1  C   UNL     1     -10.915  16.437  69.807  1.00  0.00    -0.341 C  
HETATM    2  C   UNL     1     -10.791  16.457  68.274  1.00  0.00    -0.347 C  
HETATM    3  C   UNL     1     -10.815  15.063  67.507  1.00  0.00    -0.297 C  
HETATM    4  C   UNL     1      -9.624  17.354  67.863  1.00  0.00    -0.267 A  
HETATM    5  O   UNL     1     -11.032  15.466  66.117  1.00  0.00    -0.323 OA 
HETATM    6  N   UNL     1      -8.550  17.421  68.694  1.00  0.00    -0.274 NA 
HETATM    7  C   UNL     1      -9.569  14.154  67.531  1.00  0.00    -0.223 A  
HETATM    8  C   UNL     1     -12.104  14.237  67.832  1.00  0.00    -0.261 C  
HETATM    9  C   UNL     1      -8.532  14.276  68.467  1.00  0.00    -0.164 A  
HETATM   10  C   UNL     1      -9.447  13.094  66.606  1.00  0.00    -0.260 A  
HETATM   11  C   UNL     1      -7.526  18.204  68.310  1.00  0.00    -0.274 A  
HETATM   12  H   UNL     1     -11.046  14.633  65.659  1.00  0.00     0.000 HD 
HETATM   13  F   UNL     1     -10.728  18.091  65.877  1.00  0.00    -0.381 F  
HETATM   14  C   UNL     1      -8.382  12.200  66.609  1.00  0.00    -0.051 A  
HETATM   15  F   UNL     1     -10.397  12.928  65.673  1.00  0.00    -0.262 F  
HETATM   16  N   UNL     1      -7.459  18.907  67.173  1.00  0.00    -0.227 NA 
HETATM   17  C   UNL     1      -7.385  12.358  67.551  1.00  0.00    -0.146 A  
HETATM   18  C   UNL     1      -7.443  13.393  68.472  1.00  0.00    -0.118 A  
HETATM   19  C   UNL     1      -8.547  18.825  66.379  1.00  0.00    -0.284 A  
HETATM   20  F   UNL     1      -6.355  11.503  67.580  1.00  0.00    -0.053 F  
HETATM   21  C   UNL     1      -9.663  18.080  66.686  1.00  0.00    -0.332 A  
ENDROOT
BRANCH   8  22
HETATM   22  N   UNL     1     -12.128  13.481  69.059  1.00  0.00    -0.330 NA 
HETATM   23  C   UNL     1     -12.547  12.989  71.036  1.00  0.00    -0.299 A  
HETATM   24  C   UNL     1     -11.837  12.163  69.243  1.00  0.00    -0.313 A  
HETATM   25  N   UNL     1     -12.049  11.837  70.497  1.00  0.00    -0.374 NA 
HETATM   26  N   UNL     1     -12.657  14.009  70.179  1.00  0.00    -0.308 NA 
ENDBRANCH   8  22
TORSDOF 1
ENDMDL
MODEL       12
REMARK 921   NORMALIZED FREE ENERGY PREDICTED BY IDOCK:   -6.45 KCAL/MOL
REMARK 922        TOTAL FREE ENERGY PREDICTED BY IDOCK:   -6.42 KCAL/MOL
REMARK 923 INTER-LIGAND FREE ENERGY PREDICTED BY IDOCK:   -6.42 KCAL/MOL
REMARK 924 INTRA-LIGAND FREE ENERGY PREDICTED BY IDOCK:    0.00 KCAL/MOL
REMARK 927      BINDING AFFINITY PREDICTED BY RF-SCORE:    0.00 PKD
ROOT
HETATM    1  C   UNL     1     -11.283  10.311  67.656  1.00  0.00    -0.232 C  
HETATM    2  C   UNL     1     -10.440  10.720  66.436  1.00  0.00    -0.293 C  
HETATM    3  C   UNL     1      -8.893  11.012  66.664  1.00  0.00    -0.164 C  
HETATM    4  C   UNL     1     -11.157  11.825  65.661  1.00  0.00    -0.285 A  
HETATM    5  O   UNL     1      -8.363  11.015  65.301  1.00  0.00    -0.346 OA 
HETATM    6  N   UNL     1     -11.917  12.705  66.366  1.00  0.00    -0.540 NA 
HETATM    7  C   UNL     1      -8.453  12.332  67.329  1.00  0.00    -0.181 A  
HETATM    8  C   UNL     1      -8.156   9.795  67.318  1.00  0.00    -0.117 C  
HETATM    9  C   UNL     1      -9.308  13.150  68.081  1.00  0.00    -0.217 A  
HETATM   10  C   UNL     1      -7.109  12.756  67.242  1.00  0.00    -0.082 A  
HETATM   11  C   UNL     1     -12.529  13.680  65.671  1.00  0.00    -0.496 A  
HETATM   12  H   UNL     1      -7.439  11.190  65.437  1.00  0.00     0.000 HD 
HETATM   13  F   UNL     1     -10.360  11.035  63.552  1.00  0.00    -0.349 F  
HETATM   14  C   UNL     1      -6.630  13.903  67.867  1.00  0.00    -0.167 A  
HETATM   15  F   UNL     1      -6.239  12.027  66.526  1.00  0.00    -0.122 F  
HETATM   16  N   UNL     1     -12.442  13.875  64.350  1.00  0.00    -0.659 NA 
HETATM   17  C   UNL     1      -7.509  14.676  68.599  1.00  0.00    -0.125 A  
HETATM   18  C   UNL     1      -8.844  14.318  68.703  1.00  0.00    -0.150 A  
HETATM   19  C   UNL     1     -11.689  12.976  63.682  1.00  0.00    -0.490 A  
HETATM   20  F   UNL     1      -7.069  15.778  69.218  1.00  0.00    -0.146 F  
HETATM   21  C   UNL     1     -11.043  11.922  64.286  1.00  0.00    -0.356 A  
ENDROOT
BRANCH   8  22
HETATM   22  N   UNL     1      -8.263   9.632  68.746  1.00  0.00    -0.103 NA 
HETATM   23  C   UNL     1      -8.865   8.853  70.578  1.00  0.00    -0.192 A  
HETATM   24  C   UNL     1      -7.456  10.145  69.715  1.00  0.00    -0.163 A  
HETATM   25  N   UNL     1      -7.845   9.705  70.891  1.00  0.00    -0.303 NA 
HETATM   26  N   UNL     1      -9.126   8.742  69.272  1.00  0.00    -0.144 NA 
ENDBRANCH   8  22
TORSDOF 1
ENDMDL
MODEL       13
REMARK 921   NORMALIZED FREE ENERGY PREDICTED BY IDOCK:   -6.41 KCAL/MOL
REMARK 922        TOTAL FREE ENERGY PREDICTED BY IDOCK:   -6.38 KCAL/MOL
REMARK 923 INTER-LIGAND FREE ENERGY PREDICTED BY IDOCK:   -6.60 KCAL/MOL
REMARK 924 INTRA-LIGAND FREE ENERGY PREDICTED BY IDOCK:    0.23 KCAL/MOL
REMARK 927      BINDING AFFINITY PREDICTED BY RF-SCORE:    0.00 PKD
ROOT
HETATM    1  C   UNL     1      -9.061  14.530  69.199  1.00  0.00     0.025 C  
HETATM    2  C   UNL     1     -10.028  15.458  68.445  1.00  0.00    -0.215 C  
HETATM    3  C   UNL     1     -11.273  14.796  67.708  1.00  0.00    -0.313 C  
HETATM    4  C   UNL     1      -9.235  16.414  67.554  1.00  0.00    -0.198 A  
HETATM    5  O   UNL     1     -12.127  15.948  67.423  1.00  0.00     0.265 OA 
HETATM    6  N   UNL     1      -8.070  15.965  67.018  1.00  0.00    -0.206 NA 
HETATM    7  C   UNL     1     -11.063  14.042  66.379  1.00  0.00    -0.316 A  
HETATM    8  C   UNL     1     -12.152  13.949  68.688  1.00  0.00    -0.302 C  
HETATM    9  C   UNL     1      -9.818  13.574  65.935  1.00  0.00    -0.255 A  
HETATM   10  C   UNL     1     -12.168  13.740  65.554  1.00  0.00    -0.442 A  
HETATM   11  C   UNL     1      -7.393  16.813  66.226  1.00  0.00    -0.151 A  
HETATM   12  H   UNL     1     -12.871  15.553  66.982  1.00  0.00     0.000 HD 
HETATM   13  F   UNL     1     -10.792  18.198  67.872  1.00  0.00    -0.403 F  
HETATM   14  C   UNL     1     -12.061  13.012  64.373  1.00  0.00    -0.473 A  
HETATM   15  F   UNL     1     -13.388  14.171  65.911  1.00  0.00    -0.467 F  
HETATM   16  N   UNL     1      -7.772  18.055  65.899  1.00  0.00    -0.534 NA 
HETATM   17  C   UNL     1     -10.814  12.570  63.977  1.00  0.00    -0.406 A  
HETATM   18  C   UNL     1      -9.691  12.853  64.740  1.00  0.00     0.087 A  
HETATM   19  C   UNL     1      -8.928  18.471  66.459  1.00  0.00    -0.293 A  
HETATM   20  F   UNL     1     -10.688  11.858  62.851  1.00  0.00    -0.330 F  
HETATM   21  C   UNL     1      -9.686  17.699  67.309  1.00  0.00    -0.284 A  
ENDROOT
BRANCH   8  22
HETATM   22  N   UNL     1     -11.715  12.611  68.999  1.00  0.00    -0.305 NA 
HETATM   23  C   UNL     1     -11.299  10.908  70.119  1.00  0.00    -0.284 A  
HETATM   24  C   UNL     1     -11.478  11.581  68.140  1.00  0.00    -0.315 A  
HETATM   25  N   UNL     1     -11.166  10.502  68.822  1.00  0.00    -0.257 NA 
HETATM   26  N   UNL     1     -11.680  12.181  70.274  1.00  0.00    -0.232 NA 
ENDBRANCH   8  22
TORSDOF 1
ENDMDL
MODEL       14
REMARK 921   NORMALIZED FREE ENERGY PREDICTED BY IDOCK:   -6.38 KCAL/MOL
REMARK 922        TOTAL FREE ENERGY PREDICTED BY IDOCK:   -6.35 KCAL/MOL
REMARK 923 INTER-LIGAND FREE ENERGY PREDICTED BY IDOCK:   -6.32 KCAL/MOL
REMARK 924 INTRA-LIGAND FREE ENERGY PREDICTED BY IDOCK:   -0.02 KCAL/MOL
REMARK 927      BINDING AFFINITY PREDICTED BY RF-SCORE:    0.00 PKD
ROOT
HETATM    1  C   UNL     1     -10.636  10.730  66.538  1.00  0.00    -0.279 C  
HETATM    2  C   UNL     1      -9.742  11.250  67.676  1.00  0.00    -0.183 C  
HETATM    3  C   UNL     1      -9.452  10.277  68.901  1.00  0.00    -0.188 C  
HETATM    4  C   UNL     1     -10.210  12.641  68.105  1.00  0.00    -0.240 A  
HETATM    5  O   UNL     1      -8.333  10.935  69.576  1.00  0.00    -0.378 OA 
HETATM    6  N   UNL     1     -11.538  12.918  68.021  1.00  0.00    -0.320 NA 
HETATM    7  C   UNL     1     -10.547  10.034  69.960  1.00  0.00    -0.344 A  
HETATM    8  C   UNL     1      -8.825   8.920  68.436  1.00  0.00    -0.134 C  
HETATM    9  C   UNL     1     -11.905  10.311  69.757  1.00  0.00    -0.217 A  
HETATM   10  C   UNL     1     -10.212   9.454  71.204  1.00  0.00    -0.291 A  
HETATM   11  C   UNL     1     -11.936  14.140  68.416  1.00  0.00    -0.331 A  
HETATM   12  H   UNL     1      -8.161  10.353  70.308  1.00  0.00     0.000 HD 
HETATM   13  F   UNL     1      -7.990  13.376  68.591  1.00  0.00    -0.137 F  
HETATM   14  C   UNL     1     -11.155   9.152  72.181  1.00  0.00    -0.151 A  
HETATM   15  F   UNL     1      -8.927   9.176  71.471  1.00  0.00    -0.280 F  
HETATM   16  N   UNL     1     -11.144  15.103  68.905  1.00  0.00    -0.256 NA 
HETATM   17  C   UNL     1     -12.483   9.440  71.934  1.00  0.00    -0.390 A  
HETATM   18  C   UNL     1     -12.866  10.027  70.738  1.00  0.00    -0.341 A  
HETATM   19  C   UNL     1      -9.831  14.796  68.963  1.00  0.00    -0.206 A  
HETATM   20  F   UNL     1     -13.409   9.148  72.855  1.00  0.00    -0.489 F  
HETATM   21  C   UNL     1      -9.310  13.589  68.558  1.00  0.00    -0.108 A  
ENDROOT
BRANCH   8  22
HETATM   22  N   UNL     1      -9.716   7.905  67.932  1.00  0.00    -0.150 NA 
HETATM   23  C   UNL     1     -10.604   6.582  66.595  1.00  0.00    -0.171 A  
HETATM   24  C   UNL     1     -10.493   7.039  68.639  1.00  0.00    -0.204 A  
HETATM   25  N   UNL     1     -11.104   6.221  67.813  1.00  0.00    -0.329 NA 
HETATM   26  N   UNL     1      -9.714   7.580  66.625  1.00  0.00    -0.209 NA 
ENDBRANCH   8  22
TORSDOF 1
ENDMDL
MODEL       15
REMARK 921   NORMALIZED FREE ENERGY PREDICTED BY IDOCK:   -6.37 KCAL/MOL
REMARK 922        TOTAL FREE ENERGY PREDICTED BY IDOCK:   -6.34 KCAL/MOL
REMARK 923 INTER-LIGAND FREE ENERGY PREDICTED BY IDOCK:   -6.32 KCAL/MOL
REMARK 924 INTRA-LIGAND FREE ENERGY PREDICTED BY IDOCK:   -0.02 KCAL/MOL
REMARK 927      BINDING AFFINITY PREDICTED BY RF-SCORE:    0.00 PKD
ROOT
HETATM    1  C   UNL     1     -10.282  10.465  66.500  1.00  0.00    -0.289 C  
HETATM    2  C   UNL     1     -10.401  10.821  67.992  1.00  0.00    -0.211 C  
HETATM    3  C   UNL     1     -10.711  12.333  68.375  1.00  0.00    -0.234 C  
HETATM    4  C   UNL     1      -9.215  10.233  68.757  1.00  0.00    -0.166 A  
HETATM    5  O   UNL     1     -11.095  12.234  69.783  1.00  0.00    -0.470 OA 
HETATM    6  N   UNL     1      -8.023  10.141  68.109  1.00  0.00    -0.103 NA 
HETATM    7  C   UNL     1      -9.594  13.392  68.279  1.00  0.00    -0.220 A  
HETATM    8  C   UNL     1     -12.022  12.853  67.696  1.00  0.00    -0.289 C  
HETATM    9  C   UNL     1      -8.415  13.217  67.540  1.00  0.00    -0.202 A  
HETATM   10  C   UNL     1      -9.746  14.643  68.916  1.00  0.00    -0.196 A  
HETATM   11  C   UNL     1      -6.987   9.635  68.801  1.00  0.00    -0.066 A  
HETATM   12  H   UNL     1     -11.280  13.138  70.012  1.00  0.00     0.000 HD 
HETATM   13  F   UNL     1     -10.523   9.814  70.711  1.00  0.00    -0.324 F  
HETATM   14  C   UNL     1      -8.807  15.665  68.822  1.00  0.00    -0.208 A  
HETATM   15  F   UNL     1     -10.845  14.872  69.652  1.00  0.00    -0.239 F  
HETATM   16  N   UNL     1      -7.017   9.233  70.077  1.00  0.00    -0.053 NA 
HETATM   17  C   UNL     1      -7.662  15.448  68.080  1.00  0.00    -0.124 A  
HETATM   18  C   UNL     1      -7.452  14.232  67.449  1.00  0.00    -0.172 A  
HETATM   19  C   UNL     1      -8.219   9.328  70.684  1.00  0.00    -0.190 A  
HETATM   20  F   UNL     1      -6.750  16.421  67.966  1.00  0.00    -0.119 F  
HETATM   21  C   UNL     1      -9.352   9.801  70.064  1.00  0.00    -0.235 A  
ENDROOT
BRANCH   8  22
HETATM   22  N   UNL     1     -11.940  13.292  66.325  1.00  0.00    -0.403 NA 
HETATM   23  C   UNL     1     -12.224  13.307  64.264  1.00  0.00    -0.392 A  
HETATM   24  C   UNL     1     -11.580  14.517  65.853  1.00  0.00    -0.349 A  
HETATM   25  N   UNL     1     -11.705  14.539  64.545  1.00  0.00    -0.418 NA 
HETATM   26  N   UNL     1     -12.428  12.526  65.331  1.00  0.00    -0.647 NA 
ENDBRANCH   8  22
TORSDOF 1
ENDMDL
MODEL       16
REMARK 921   NORMALIZED FREE ENERGY PREDICTED BY IDOCK:   -6.35 KCAL/MOL
REMARK 922        TOTAL FREE ENERGY PREDICTED BY IDOCK:   -6.32 KCAL/MOL
REMARK 923 INTER-LIGAND FREE ENERGY PREDICTED BY IDOCK:   -6.64 KCAL/MOL
REMARK 924 INTRA-LIGAND FREE ENERGY PREDICTED BY IDOCK:    0.32 KCAL/MOL
REMARK 927      BINDING AFFINITY PREDICTED BY RF-SCORE:    0.00 PKD
ROOT
HETATM    1  C   UNL     1     -11.992  13.468  68.641  1.00  0.00    -0.378 C  
HETATM    2  C   UNL     1     -11.724  13.209  67.149  1.00  0.00    -0.430 C  
HETATM    3  C   UNL     1     -10.816  11.962  66.760  1.00  0.00    -0.266 C  
HETATM    4  C   UNL     1     -11.291  14.509  66.471  1.00  0.00    -0.352 A  
HETATM    5  O   UNL     1     -11.065  11.820  65.326  1.00  0.00    -0.304 OA 
HETATM    6  N   UNL     1     -10.581  15.404  67.207  1.00  0.00    -0.288 NA 
HETATM    7  C   UNL     1      -9.288  12.038  66.955  1.00  0.00    -0.200 A  
HETATM    8  C   UNL     1     -11.379  10.623  67.343  1.00  0.00    -0.105 C  
HETATM    9  C   UNL     1      -8.652  12.976  67.780  1.00  0.00    -0.189 A  
HETATM   10  C   UNL     1      -8.446  11.098  66.322  1.00  0.00    -0.168 A  
HETATM   11  C   UNL     1     -10.195  16.535  66.592  1.00  0.00    -0.300 A  
HETATM   12  H   UNL     1     -10.522  11.075  65.093  1.00  0.00     0.000 HD 
HETATM   13  F   UNL     1     -12.372  13.943  64.417  1.00  0.00    -0.419 F  
HETATM   14  C   UNL     1      -7.067  11.070  66.500  1.00  0.00    -0.136 A  
HETATM   15  F   UNL     1      -8.987  10.180  65.506  1.00  0.00    -0.157 F  
HETATM   16  N   UNL     1     -10.429  16.851  65.312  1.00  0.00    -0.662 NA 
HETATM   17  C   UNL     1      -6.484  12.012  67.325  1.00  0.00    -0.149 A  
HETATM   18  C   UNL     1      -7.261  12.971  67.957  1.00  0.00    -0.119 A  
HETATM   19  C   UNL     1     -11.146  15.945  64.616  1.00  0.00    -0.354 A  
HETATM   20  F   UNL     1      -5.160  11.997  67.521  1.00  0.00    -0.050 F  
HETATM   21  C   UNL     1     -11.618  14.769  65.152  1.00  0.00    -0.358 A  
ENDROOT
BRANCH   8  22
HETATM   22  N   UNL     1     -11.089  10.314  68.721  1.00  0.00    -0.237 NA 
HETATM   23  C   UNL     1     -10.023   9.693  70.396  1.00  0.00    -0.271 A  
HETATM   24  C   UNL     1     -11.781  10.691  69.832  1.00  0.00    -0.317 A  
HETATM   25  N   UNL     1     -11.152  10.269  70.905  1.00  0.00    -0.256 NA 
HETATM   26  N   UNL     1      -9.921   9.739  69.063  1.00  0.00    -0.175 NA 
ENDBRANCH   8  22
TORSDOF 1
ENDMDL
MODEL       17
REMARK 921   NORMALIZED FREE ENERGY PREDICTED BY IDOCK:   -6.29 KCAL/MOL
REMARK 922        TOTAL FREE ENERGY PREDICTED BY IDOCK:   -6.25 KCAL/MOL
REMARK 923 INTER-LIGAND FREE ENERGY PREDICTED BY IDOCK:   -6.41 KCAL/MOL
REMARK 924 INTRA-LIGAND FREE ENERGY PREDICTED BY IDOCK:    0.16 KCAL/MOL
REMARK 927      BINDING AFFINITY PREDICTED BY RF-SCORE:    0.00 PKD
ROOT
HETATM    1  C   UNL     1     -10.825  14.655  68.649  1.00  0.00    -0.261 C  
HETATM    2  C   UNL     1      -9.894  13.535  68.155  1.00  0.00    -0.237 C  
HETATM    3  C   UNL     1      -9.557  13.477  66.602  1.00  0.00    -0.278 C  
HETATM    4  C   UNL     1     -10.355  12.193  68.726  1.00  0.00    -0.147 A  
HETATM    5  O   UNL     1      -8.418  12.559  66.555  1.00  0.00    -0.401 OA 
HETATM    6  N   UNL     1     -11.686  12.014  68.931  1.00  0.00    -0.308 NA 
HETATM    7  C   UNL     1     -10.612  12.948  65.609  1.00  0.00    -0.295 A  
HETATM    8  C   UNL     1      -8.939  14.819  66.085  1.00  0.00    -0.026 C  
HETATM    9  C   UNL     1     -11.979  12.846  65.903  1.00  0.00    -0.504 A  
HETATM   10  C   UNL     1     -10.231  12.581  64.300  1.00  0.00    -0.333 A  
HETATM   11  C   UNL     1     -12.076  10.823  69.419  1.00  0.00    -0.244 A  
HETATM   12  H   UNL     1      -8.217  12.525  65.626  1.00  0.00     0.000 HD 
HETATM   13  F   UNL     1      -8.122  11.362  68.905  1.00  0.00    -0.140 F  
HETATM   14  C   UNL     1     -11.138  12.154  63.335  1.00  0.00    -0.495 A  
HETATM   15  F   UNL     1      -8.936  12.641  63.954  1.00  0.00     0.585 F  
HETATM   16  N   UNL     1     -11.273   9.790  69.702  1.00  0.00    -0.214 NA 
HETATM   17  C   UNL     1     -12.475  12.071  63.670  1.00  0.00    -0.525 A  
HETATM   18  C   UNL     1     -12.902  12.402  64.947  1.00  0.00    -0.092 A  
HETATM   19  C   UNL     1      -9.957  10.009  69.496  1.00  0.00    -0.228 A  
HETATM   20  F   UNL     1     -13.367  11.674  62.755  1.00  0.00    -0.242 F  
HETATM   21  C   UNL     1      -9.444  11.197  69.030  1.00  0.00    -0.058 A  
ENDROOT
BRANCH   8  22
HETATM   22  N   UNL     1      -9.842  15.900  65.777  1.00  0.00    -0.340 NA 
HETATM   23  C   UNL     1     -10.630  17.824  65.722  1.00  0.00    -0.175 A  
HETATM   24  C   UNL     1     -10.831  15.931  64.842  1.00  0.00    -0.400 A  
HETATM   25  N   UNL     1     -11.379  17.124  64.820  1.00  0.00    -0.702 NA 
HETATM   26  N   UNL     1      -9.647  17.126  66.299  1.00  0.00    -0.350 NA 
ENDBRANCH   8  22
TORSDOF 1
ENDMDL
MODEL       18
REMARK 921   NORMALIZED FREE ENERGY PREDICTED BY IDOCK:   -6.28 KCAL/MOL
REMARK 922        TOTAL FREE ENERGY PREDICTED BY IDOCK:   -6.24 KCAL/MOL
REMARK 923 INTER-LIGAND FREE ENERGY PREDICTED BY IDOCK:   -6.55 KCAL/MOL
REMARK 924 INTRA-LIGAND FREE ENERGY PREDICTED BY IDOCK:    0.31 KCAL/MOL
REMARK 927      BINDING AFFINITY PREDICTED BY RF-SCORE:    0.00 PKD
ROOT
HETATM    1  C   UNL     1      -9.664  15.356  69.447  1.00  0.00    -0.273 C  
HETATM    2  C   UNL     1      -9.834  15.743  67.968  1.00  0.00    -0.217 C  
HETATM    3  C   UNL     1     -10.587  14.720  67.011  1.00  0.00    -0.290 C  
HETATM    4  C   UNL     1      -8.496  16.226  67.406  1.00  0.00    -0.172 A  
HETATM    5  O   UNL     1     -10.870  15.535  65.829  1.00  0.00    -0.332 OA 
HETATM    6  N   UNL     1      -7.360  15.667  67.900  1.00  0.00    -0.127 NA 
HETATM    7  C   UNL     1      -9.861  13.448  66.527  1.00  0.00    -0.286 A  
HETATM    8  C   UNL     1     -12.019  14.369  67.539  1.00  0.00    -0.354 C  
HETATM    9  C   UNL     1      -8.715  12.923  67.140  1.00  0.00    -0.205 A  
HETATM   10  C   UNL     1     -10.374  12.711  65.437  1.00  0.00    -0.291 A  
HETATM   11  C   UNL     1      -6.194  16.092  67.384  1.00  0.00    -0.166 A  
HETATM   12  H   UNL     1     -11.320  14.923  65.258  1.00  0.00     0.000 HD 
HETATM   13  F   UNL     1      -9.537  17.826  65.968  1.00  0.00    -0.283 F  
HETATM   14  C   UNL     1      -9.806  11.524  64.986  1.00  0.00    -0.294 A  
HETATM   15  F   UNL     1     -11.462  13.165  64.795  1.00  0.00    -0.313 F  
HETATM   16  N   UNL     1      -6.050  17.002  66.413  1.00  0.00    -0.290 NA 
HETATM   17  C   UNL     1      -8.678  11.043  65.623  1.00  0.00    -0.157 A  
HETATM   18  C   UNL     1      -8.121  11.737  66.686  1.00  0.00    -0.094 A  
HETATM   19  C   UNL     1      -7.199  17.543  65.955  1.00  0.00    -0.263 A  
HETATM   20  F   UNL     1      -8.121   9.898  65.213  1.00  0.00    -0.119 F  
HETATM   21  C   UNL     1      -8.445  17.206  66.430  1.00  0.00    -0.272 A  
ENDROOT
BRANCH   8  22
HETATM   22  N   UNL     1     -12.129  13.372  68.574  1.00  0.00    -0.318 NA 
HETATM   23  C   UNL     1     -12.113  11.504  69.490  1.00  0.00    -0.284 A  
HETATM   24  C   UNL     1     -12.145  13.557  69.923  1.00  0.00    -0.341 A  
HETATM   25  N   UNL     1     -12.183  12.390  70.526  1.00  0.00    -0.349 NA 
HETATM   26  N   UNL     1     -12.031  12.062  68.277  1.00  0.00    -0.463 NA 
ENDBRANCH   8  22
TORSDOF 1
ENDMDL
MODEL       19
REMARK 921   NORMALIZED FREE ENERGY PREDICTED BY IDOCK:   -6.20 KCAL/MOL
REMARK 922        TOTAL FREE ENERGY PREDICTED BY IDOCK:   -6.16 KCAL/MOL
REMARK 923 INTER-LIGAND FREE ENERGY PREDICTED BY IDOCK:   -6.14 KCAL/MOL
REMARK 924 INTRA-LIGAND FREE ENERGY PREDICTED BY IDOCK:   -0.02 KCAL/MOL
REMARK 927      BINDING AFFINITY PREDICTED BY RF-SCORE:    0.00 PKD
ROOT
HETATM    1  C   UNL     1      -7.097  12.778  67.500  1.00  0.00    -0.148 C  
HETATM    2  C   UNL     1      -8.255  13.479  68.230  1.00  0.00    -0.157 C  
HETATM    3  C   UNL     1      -9.723  12.902  68.024  1.00  0.00    -0.224 C  
HETATM    4  C   UNL     1      -8.161  14.989  68.014  1.00  0.00    -0.137 A  
HETATM    5  O   UNL     1     -10.476  13.552  69.096  1.00  0.00    -0.420 OA 
HETATM    6  N   UNL     1      -7.653  15.432  66.833  1.00  0.00    -0.155 NA 
HETATM    7  C   UNL     1     -10.475  13.176  66.706  1.00  0.00    -0.262 A  
HETATM    8  C   UNL     1      -9.817  11.387  68.406  1.00  0.00    -0.205 C  
HETATM    9  C   UNL     1      -9.848  13.587  65.521  1.00  0.00    -0.165 A  
HETATM   10  C   UNL     1     -11.869  12.968  66.629  1.00  0.00    -0.393 A  
HETATM   11  C   UNL     1      -7.592  16.762  66.653  1.00  0.00    -0.276 A  
HETATM   12  H   UNL     1     -11.354  13.208  68.973  1.00  0.00     0.000 HD 
HETATM   13  F   UNL     1      -9.015  15.479  70.190  1.00  0.00    -0.171 F  
HETATM   14  C   UNL     1     -12.601  13.137  65.458  1.00  0.00    -0.468 A  
HETATM   15  F   UNL     1     -12.535  12.588  67.730  1.00  0.00    -0.185 F  
HETATM   16  N   UNL     1      -8.004  17.692  67.523  1.00  0.00    -0.201 NA 
HETATM   17  C   UNL     1     -11.940  13.540  64.314  1.00  0.00    -0.432 A  
HETATM   18  C   UNL     1     -10.574  13.777  64.337  1.00  0.00    -0.316 A  
HETATM   19  C   UNL     1      -8.492  17.216  68.688  1.00  0.00    -0.258 A  
HETATM   20  F   UNL     1     -12.622  13.698  63.173  1.00  0.00    -0.482 F  
HETATM   21  C   UNL     1      -8.573  15.876  68.991  1.00  0.00    -0.239 A  
ENDROOT
BRANCH   8  22
HETATM   22  N   UNL     1      -9.377  10.419  67.433  1.00  0.00    -0.145 NA 
HETATM   23  C   UNL     1      -8.213   8.944  66.541  1.00  0.00    -0.114 A  
HETATM   24  C   UNL     1     -10.082   9.887  66.396  1.00  0.00    -0.240 A  
HETATM   25  N   UNL     1      -9.350   8.983  65.785  1.00  0.00    -0.238 NA 
HETATM   26  N   UNL     1      -8.206   9.774  67.589  1.00  0.00    -0.114 NA 
ENDBRANCH   8  22
TORSDOF 1
ENDMDL
MODEL       20
REMARK 921   NORMALIZED FREE ENERGY PREDICTED BY IDOCK:   -6.14 KCAL/MOL
REMARK 922        TOTAL FREE ENERGY PREDICTED BY IDOCK:   -6.10 KCAL/MOL
REMARK 923 INTER-LIGAND FREE ENERGY PREDICTED BY IDOCK:   -6.13 KCAL/MOL
REMARK 924 INTRA-LIGAND FREE ENERGY PREDICTED BY IDOCK:    0.03 KCAL/MOL
REMARK 927      BINDING AFFINITY PREDICTED BY RF-SCORE:    0.00 PKD
ROOT
HETATM    1  C   UNL     1     -10.795  16.768  65.009  1.00  0.00    -0.131 C  
HETATM    2  C   UNL     1     -11.283  15.761  66.064  1.00  0.00     0.018 C  
HETATM    3  C   UNL     1     -10.719  15.901  67.545  1.00  0.00    -0.318 C  
HETATM    4  C   UNL     1     -11.178  14.341  65.508  1.00  0.00    -0.320 A  
HETATM    5  O   UNL     1     -11.629  15.053  68.316  1.00  0.00    -0.317 OA 
HETATM    6  N   UNL     1     -10.169  14.072  64.638  1.00  0.00    -0.351 NA 
HETATM    7  C   UNL     1      -9.283  15.440  67.864  1.00  0.00    -0.180 A  
HETATM    8  C   UNL     1     -10.985  17.324  68.141  1.00  0.00    -0.193 C  
HETATM    9  C   UNL     1      -8.294  15.236  66.891  1.00  0.00    -0.278 A  
HETATM   10  C   UNL     1      -8.882  15.247  69.204  1.00  0.00    -0.238 A  
HETATM   11  C   UNL     1     -10.082  12.815  64.170  1.00  0.00    -0.234 A  
HETATM   12  H   UNL     1     -11.292  15.137  69.200  1.00  0.00     0.000 HD 
HETATM   13  F   UNL     1     -13.130  13.606  66.673  1.00  0.00    -0.076 F  
HETATM   14  C   UNL     1      -7.587  14.891  69.568  1.00  0.00    -0.137 A  
HETATM   15  F   UNL     1      -9.782  15.411  70.186  1.00  0.00    -0.280 F  
HETATM   16  N   UNL     1     -10.887  11.797  64.499  1.00  0.00    -0.305 NA 
HETATM   17  C   UNL     1      -6.646  14.703  68.574  1.00  0.00    -0.095 A  
HETATM   18  C   UNL     1      -6.990  14.861  67.240  1.00  0.00    -0.052 A  
HETATM   19  C   UNL     1     -11.883  12.104  65.355  1.00  0.00    -0.295 A  
HETATM   20  F   UNL     1      -5.392  14.371  68.901  1.00  0.00    -0.083 F  
HETATM   21  C   UNL     1     -12.085  13.363  65.873  1.00  0.00    -0.439 A  
ENDROOT
BRANCH   8  22
HETATM   22  N   UNL     1     -10.084  18.387  67.773  1.00  0.00    -0.338 NA 
HETATM   23  C   UNL     1      -9.430  20.220  67.040  1.00  0.00    -0.412 A  
HETATM   24  C   UNL     1      -8.789  18.563  68.155  1.00  0.00    -0.306 A  
HETATM   25  N   UNL     1      -8.335  19.694  67.664  1.00  0.00    -0.300 NA 
HETATM   26  N   UNL     1     -10.537  19.475  67.121  1.00  0.00    -0.468 NA 
ENDBRANCH   8  22
TORSDOF 1
ENDMDL
MODEL       21
REMARK 921   NORMALIZED FREE ENERGY PREDICTED BY IDOCK:   -6.14 KCAL/MOL
REMARK 922        TOTAL FREE ENERGY PREDICTED BY IDOCK:   -6.09 KCAL/MOL
REMARK 923 INTER-LIGAND FREE ENERGY PREDICTED BY IDOCK:   -6.11 KCAL/MOL
REMARK 924 INTRA-LIGAND FREE ENERGY PREDICTED BY IDOCK:    0.01 KCAL/MOL
REMARK 927      BINDING AFFINITY PREDICTED BY RF-SCORE:    0.00 PKD
ROOT
HETATM    1  C   UNL     1      -9.076   8.877  66.800  1.00  0.00    -0.177 C  
HETATM    2  C   UNL     1      -8.118  10.006  66.383  1.00  0.00    -0.120 C  
HETATM    3  C   UNL     1      -8.573  11.506  66.652  1.00  0.00    -0.176 C  
HETATM    4  C   UNL     1      -7.632   9.767  64.953  1.00  0.00    -0.128 A  
HETATM    5  O   UNL     1      -7.329  12.255  66.475  1.00  0.00    -0.364 OA 
HETATM    6  N   UNL     1      -8.484   9.160  64.086  1.00  0.00    -0.187 NA 
HETATM    7  C   UNL     1      -9.634  12.159  65.743  1.00  0.00    -0.209 A  
HETATM    8  C   UNL     1      -8.913  11.754  68.160  1.00  0.00    -0.181 C  
HETATM    9  C   UNL     1     -10.503  11.436  64.914  1.00  0.00    -0.363 A  
HETATM   10  C   UNL     1      -9.808  13.560  65.750  1.00  0.00    -0.201 A  
HETATM   11  C   UNL     1      -8.047   8.971  62.829  1.00  0.00    -0.164 A  
HETATM   12  H   UNL     1      -7.601  13.152  66.635  1.00  0.00     0.000 HD 
HETATM   13  F   UNL     1      -5.474  10.690  65.401  1.00  0.00    -0.082 F  
HETATM   14  C   UNL     1     -10.784  14.210  65.002  1.00  0.00    -0.429 A  
HETATM   15  F   UNL     1      -9.000  14.315  66.510  1.00  0.00    -0.258 F  
HETATM   16  N   UNL     1      -6.855   9.346  62.348  1.00  0.00    -0.095 NA 
HETATM   17  C   UNL     1     -11.620  13.456  64.202  1.00  0.00    -0.398 A  
HETATM   18  C   UNL     1     -11.481  12.077  64.142  1.00  0.00    -0.460 A  
HETATM   19  C   UNL     1      -6.032   9.935  63.240  1.00  0.00    -0.119 A  
HETATM   20  F   UNL     1     -12.574  14.058  63.482  1.00  0.00    -0.435 F  
HETATM   21  C   UNL     1      -6.363  10.151  64.558  1.00  0.00    -0.129 A  
ENDROOT
BRANCH   8  22
HETATM   22  N   UNL     1     -10.214  11.350  68.632  1.00  0.00    -0.204 NA 
HETATM   23  C   UNL     1     -11.658  10.382  69.774  1.00  0.00    -0.269 A  
HETATM   24  C   UNL     1     -11.420  11.931  68.380  1.00  0.00    -0.299 A  
HETATM   25  N   UNL     1     -12.358  11.307  69.054  1.00  0.00    -0.425 NA 
HETATM   26  N   UNL     1     -10.335  10.403  69.582  1.00  0.00    -0.237 NA 
ENDBRANCH   8  22
TORSDOF 1
ENDMDL
MODEL       22
REMARK 921   NORMALIZED FREE ENERGY PREDICTED BY IDOCK:   -6.04 KCAL/MOL
REMARK 922        TOTAL FREE ENERGY PREDICTED BY IDOCK:   -5.99 KCAL/MOL
REMARK 923 INTER-LIGAND FREE ENERGY PREDICTED BY IDOCK:   -6.00 KCAL/MOL
REMARK 924 INTRA-LIGAND FREE ENERGY PREDICTED BY IDOCK:    0.01 KCAL/MOL
REMARK 927      BINDING AFFINITY PREDICTED BY RF-SCORE:    0.00 PKD
ROOT
HETATM    1  C   UNL     1     -10.562   9.820  66.914  1.00  0.00    -0.243 C  
HETATM    2  C   UNL     1     -11.220  10.531  68.108  1.00  0.00    -0.357 C  
HETATM    3  C   UNL     1     -11.314  12.119  68.073  1.00  0.00    -0.295 C  
HETATM    4  C   UNL     1     -10.640   9.987  69.414  1.00  0.00    -0.233 A  
HETATM    5  O   UNL     1     -12.272  12.408  69.139  1.00  0.00    -0.191 OA 
HETATM    6  N   UNL     1      -9.341   9.587  69.414  1.00  0.00    -0.170 NA 
HETATM    7  C   UNL     1     -10.054  12.965  68.347  1.00  0.00    -0.227 A  
HETATM    8  C   UNL     1     -12.055  12.634  66.793  1.00  0.00    -0.166 C  
HETATM    9  C   UNL     1      -8.747  12.466  68.274  1.00  0.00    -0.175 A  
HETATM   10  C   UNL     1     -10.176  14.340  68.644  1.00  0.00    -0.246 A  
HETATM   11  C   UNL     1      -8.842   9.126  70.574  1.00  0.00    -0.224 A  
HETATM   12  H   UNL     1     -12.327  13.356  69.117  1.00  0.00     0.000 HD 
HETATM   13  F   UNL     1     -12.714  10.221  70.578  1.00  0.00    -0.356 F  
HETATM   14  C   UNL     1      -9.082  15.176  68.843  1.00  0.00    -0.206 A  
HETATM   15  F   UNL     1     -11.400  14.882  68.744  1.00  0.00    -0.243 F  
HETATM   16  N   UNL     1      -9.503   9.044  71.736  1.00  0.00    -0.327 NA 
HETATM   17  C   UNL     1      -7.812  14.640  68.759  1.00  0.00    -0.146 A  
HETATM   18  C   UNL     1      -7.634  13.292  68.488  1.00  0.00    -0.128 A  
HETATM   19  C   UNL     1     -10.793   9.440  71.694  1.00  0.00    -0.277 A  
HETATM   20  F   UNL     1      -6.745  15.427  68.935  1.00  0.00    -0.101 F  
HETATM   21  C   UNL     1     -11.415   9.900  70.557  1.00  0.00    -0.318 A  
ENDROOT
BRANCH   8  22
HETATM   22  N   UNL     1     -11.301  12.721  65.568  1.00  0.00    -0.301 NA 
HETATM   23  C   UNL     1     -10.757  12.390  63.588  1.00  0.00    -0.455 A  
HETATM   24  C   UNL     1     -10.348  13.632  65.228  1.00  0.00    -0.348 A  
HETATM   25  N   UNL     1      -9.952  13.416  63.995  1.00  0.00     0.035 NA 
HETATM   26  N   UNL     1     -11.632  11.964  64.505  1.00  0.00    -0.302 NA 
ENDBRANCH   8  22
TORSDOF 1
ENDMDL
MODEL       23
REMARK 921   NORMALIZED FREE ENERGY PREDICTED BY IDOCK:   -6.01 KCAL/MOL
REMARK 922        TOTAL FREE ENERGY PREDICTED BY IDOCK:   -5.96 KCAL/MOL
REMARK 923 INTER-LIGAND FREE ENERGY PREDICTED BY IDOCK:   -6.02 KCAL/MOL
REMARK 924 INTRA-LIGAND FREE ENERGY PREDICTED BY IDOCK:    0.06 KCAL/MOL
REMARK 927      BINDING AFFINITY PREDICTED BY RF-SCORE:    0.00 PKD
ROOT
HETATM    1  C   UNL     1     -11.195  11.286  69.758  1.00  0.00    -0.294 C  
HETATM    2  C   UNL     1      -9.900  11.431  68.940  1.00  0.00    -0.127 C  
HETATM    3  C   UNL     1      -9.677  12.783  68.132  1.00  0.00    -0.223 C  
HETATM    4  C   UNL     1      -9.683  10.177  68.094  1.00  0.00    -0.139 A  
HETATM    5  O   UNL     1      -8.257  12.720  67.787  1.00  0.00    -0.150 OA 
HETATM    6  N   UNL     1     -10.781   9.522  67.633  1.00  0.00    -0.278 NA 
HETATM    7  C   UNL     1     -10.455  13.030  66.823  1.00  0.00    -0.264 A  
HETATM    8  C   UNL     1      -9.752  14.041  69.061  1.00  0.00     0.056 C  
HETATM    9  C   UNL     1     -11.613  12.329  66.460  1.00  0.00    -0.440 A  
HETATM   10  C   UNL     1     -10.040  14.044  65.933  1.00  0.00    -0.321 A  
HETATM   11  C   UNL     1     -10.572   8.430  66.878  1.00  0.00    -0.215 A  
HETATM   12  H   UNL     1      -8.124  13.528  67.304  1.00  0.00     0.000 HD 
HETATM   13  F   UNL     1      -7.306  10.297  68.304  1.00  0.00    -0.079 F  
HETATM   14  C   UNL     1     -10.728  14.361  64.766  1.00  0.00    -0.423 A  
HETATM   15  F   UNL     1      -8.931  14.745  66.212  1.00  0.00    -0.287 F  
HETATM   16  N   UNL     1      -9.379   7.939  66.522  1.00  0.00    -0.189 NA 
HETATM   17  C   UNL     1     -11.866  13.645  64.450  1.00  0.00    -0.424 A  
HETATM   18  C   UNL     1     -12.308  12.625  65.279  1.00  0.00    -0.528 A  
HETATM   19  C   UNL     1      -8.312   8.608  67.007  1.00  0.00    -0.106 A  
HETATM   20  F   UNL     1     -12.550  13.939  63.338  1.00  0.00    -0.452 F  
HETATM   21  C   UNL     1      -8.408   9.719  67.813  1.00  0.00    -0.114 A  
ENDROOT
BRANCH   8  22
HETATM   22  N   UNL     1     -11.057  14.546  69.407  1.00  0.00    -0.263 NA 
HETATM   23  C   UNL     1     -12.782  14.888  70.517  1.00  0.00    -0.347 A  
HETATM   24  C   UNL     1     -11.753  15.556  68.815  1.00  0.00    -0.357 A  
HETATM   25  N   UNL     1     -12.872  15.762  69.471  1.00  0.00     0.205 NA 
HETATM   26  N   UNL     1     -11.663  14.155  70.543  1.00  0.00    -0.256 NA 
ENDBRANCH   8  22
TORSDOF 1
ENDMDL
MODEL       24
REMARK 921   NORMALIZED FREE ENERGY PREDICTED BY IDOCK:   -5.95 KCAL/MOL
REMARK 922        TOTAL FREE ENERGY PREDICTED BY IDOCK:   -5.89 KCAL/MOL
REMARK 923 INTER-LIGAND FREE ENERGY PREDICTED BY IDOCK:   -5.86 KCAL/MOL
REMARK 924 INTRA-LIGAND FREE ENERGY PREDICTED BY IDOCK:   -0.03 KCAL/MOL
REMARK 927      BINDING AFFINITY PREDICTED BY RF-SCORE:    0.00 PKD
ROOT
HETATM    1  C   UNL     1     -12.123  10.151  70.359  1.00  0.00    -0.332 C  
HETATM    2  C   UNL     1     -10.748   9.619  70.800  1.00  0.00    -0.401 C  
HETATM    3  C   UNL     1      -9.593   9.546  69.709  1.00  0.00    -0.216 C  
HETATM    4  C   UNL     1     -10.926   8.318  71.583  1.00  0.00    -0.264 A  
HETATM    5  O   UNL     1      -8.394   9.350  70.524  1.00  0.00    -0.178 OA 
HETATM    6  N   UNL     1     -11.959   7.505  71.237  1.00  0.00    -0.298 NA 
HETATM    7  C   UNL     1      -9.612   8.427  68.648  1.00  0.00    -0.153 A  
HETATM    8  C   UNL     1      -9.331  10.936  69.038  1.00  0.00    -0.131 C  
HETATM    9  C   UNL     1     -10.750   7.672  68.330  1.00  0.00    -0.107 A  
HETATM   10  C   UNL     1      -8.452   8.145  67.894  1.00  0.00    -0.132 A  
HETATM   11  C   UNL     1     -12.092   6.358  71.926  1.00  0.00    -0.310 A  
HETATM   12  H   UNL     1      -7.704   9.306  69.872  1.00  0.00     0.000 HD 
HETATM   13  F   UNL     1      -9.081   8.789  73.026  1.00  0.00    -0.277 F  
HETATM   14  C   UNL     1      -8.414   7.192  66.881  1.00  0.00    -0.123 A  
HETATM   15  F   UNL     1      -7.322   8.820  68.156  1.00  0.00    -0.081 F  
HETATM   16  N   UNL     1     -11.287   5.934  72.907  1.00  0.00    -0.258 NA 
HETATM   17  C   UNL     1      -9.561   6.475  66.602  1.00  0.00    -0.160 A  
HETATM   18  C   UNL     1     -10.724   6.697  67.323  1.00  0.00    -0.427 A  
HETATM   19  C   UNL     1     -10.280   6.772  73.230  1.00  0.00    -0.247 A  
HETATM   20  F   UNL     1      -9.552   5.561  65.624  1.00  0.00    -0.167 F  
HETATM   21  C   UNL     1     -10.067   7.984  72.614  1.00  0.00    -0.301 A  
ENDROOT
BRANCH   8  22
HETATM   22  N   UNL     1     -10.212  11.346  67.973  1.00  0.00    -0.180 NA 
HETATM   23  C   UNL     1     -11.648  12.448  66.949  1.00  0.00    -0.370 A  
HETATM   24  C   UNL     1     -10.174  10.983  66.662  1.00  0.00    -0.235 A  
HETATM   25  N   UNL     1     -11.105  11.631  65.999  1.00  0.00    -0.295 NA 
HETATM   26  N   UNL     1     -11.099  12.340  68.164  1.00  0.00    -0.224 NA 
ENDBRANCH   8  22
TORSDOF 1
ENDMDL
MODEL       25
REMARK 921   NORMALIZED FREE ENERGY PREDICTED BY IDOCK:   -5.92 KCAL/MOL
REMARK 922        TOTAL FREE ENERGY PREDICTED BY IDOCK:   -5.87 KCAL/MOL
REMARK 923 INTER-LIGAND FREE ENERGY PREDICTED BY IDOCK:   -5.86 KCAL/MOL
REMARK 924 INTRA-LIGAND FREE ENERGY PREDICTED BY IDOCK:   -0.00 KCAL/MOL
REMARK 927      BINDING AFFINITY PREDICTED BY RF-SCORE:    0.00 PKD
ROOT
HETATM    1  C   UNL     1     -11.863  12.470  69.026  1.00  0.00    -0.344 C  
HETATM    2  C   UNL     1     -11.781  12.032  67.554  1.00  0.00    -0.351 C  
HETATM    3  C   UNL     1     -10.717  10.913  67.168  1.00  0.00    -0.270 C  
HETATM    4  C   UNL     1     -11.718  13.264  66.652  1.00  0.00    -0.377 A  
HETATM    5  O   UNL     1     -11.149  10.508  65.831  1.00  0.00     0.120 OA 
HETATM    6  N   UNL     1     -11.092  14.371  67.131  1.00  0.00    -0.303 NA 
HETATM    7  C   UNL     1      -9.222  11.279  67.075  1.00  0.00    -0.173 A  
HETATM    8  C   UNL     1     -10.912   9.605  68.005  1.00  0.00    -0.140 C  
HETATM    9  C   UNL     1      -8.662  12.429  67.649  1.00  0.00    -0.178 A  
HETATM   10  C   UNL     1      -8.319  10.409  66.425  1.00  0.00    -0.139 A  
HETATM   11  C   UNL     1     -11.033  15.442  66.320  1.00  0.00    -0.278 A  
HETATM   12  H   UNL     1     -10.513   9.840  65.600  1.00  0.00     0.000 HD 
HETATM   13  F   UNL     1     -12.968  12.208  64.912  1.00  0.00    -0.433 F  
HETATM   14  C   UNL     1      -6.950  10.646  66.355  1.00  0.00    -0.129 A  
HETATM   15  F   UNL     1      -8.789   9.296  65.841  1.00  0.00    -0.142 F  
HETATM   16  N   UNL     1     -11.516  15.509  65.073  1.00  0.00    -0.268 NA 
HETATM   17  C   UNL     1      -6.443  11.791  66.938  1.00  0.00    -0.121 A  
HETATM   18  C   UNL     1      -7.287  12.690  67.573  1.00  0.00    -0.151 A  
HETATM   19  C   UNL     1     -12.141  14.396  64.636  1.00  0.00    -0.471 A  
HETATM   20  F   UNL     1      -5.128  12.035  66.894  1.00  0.00    -0.094 F  
HETATM   21  C   UNL     1     -12.287  13.255  65.391  1.00  0.00    -0.479 A  
ENDROOT
BRANCH   8  22
HETATM   22  N   UNL     1     -10.360   9.569  69.337  1.00  0.00    -0.204 NA 
HETATM   23  C   UNL     1     -10.282   9.411  71.409  1.00  0.00    -0.227 A  
HETATM   24  C   UNL     1      -9.058   9.420  69.705  1.00  0.00    -0.193 A  
HETATM   25  N   UNL     1      -8.975   9.365  71.015  1.00  0.00    -0.262 NA 
HETATM   26  N   UNL     1     -11.168   9.490  70.411  1.00  0.00    -0.257 NA 
ENDBRANCH   8  22
TORSDOF 1
ENDMDL
MODEL       26
REMARK 921   NORMALIZED FREE ENERGY PREDICTED BY IDOCK:   -5.92 KCAL/MOL
REMARK 922        TOTAL FREE ENERGY PREDICTED BY IDOCK:   -5.86 KCAL/MOL
REMARK 923 INTER-LIGAND FREE ENERGY PREDICTED BY IDOCK:   -6.38 KCAL/MOL
REMARK 924 INTRA-LIGAND FREE ENERGY PREDICTED BY IDOCK:    0.52 KCAL/MOL
REMARK 927      BINDING AFFINITY PREDICTED BY RF-SCORE:    0.00 PKD
ROOT
HETATM    1  C   UNL     1     -10.099  12.218  64.421  1.00  0.00    -0.296 C  
HETATM    2  C   UNL     1     -10.536  11.655  65.783  1.00  0.00    -0.320 C  
HETATM    3  C   UNL     1     -11.009  12.686  66.899  1.00  0.00    -0.262 C  
HETATM    4  C   UNL     1      -9.495  10.655  66.285  1.00  0.00    -0.177 A  
HETATM    5  O   UNL     1     -11.662  11.819  67.880  1.00  0.00    -0.432 OA 
HETATM    6  N   UNL     1      -8.194  10.873  65.957  1.00  0.00    -0.164 NA 
HETATM    7  C   UNL     1      -9.962  13.528  67.656  1.00  0.00    -0.229 A  
HETATM    8  C   UNL     1     -12.186  13.590  66.401  1.00  0.00    -0.400 C  
HETATM    9  C   UNL     1      -8.651  13.732  67.205  1.00  0.00    -0.221 A  
HETATM   10  C   UNL     1     -10.316  14.189  68.853  1.00  0.00    -0.199 A  
HETATM   11  C   UNL     1      -7.289   9.993  66.418  1.00  0.00    -0.104 A  
HETATM   12  H   UNL     1     -11.944  12.435  68.547  1.00  0.00     0.000 HD 
HETATM   13  F   UNL     1     -11.141   9.275  67.331  1.00  0.00    -0.319 F  
HETATM   14  C   UNL     1      -9.442  15.012  69.555  1.00  0.00    -0.081 A  
HETATM   15  F   UNL     1     -11.552  14.025  69.350  1.00  0.00    -0.260 F  
HETATM   16  N   UNL     1      -7.550   8.931  67.191  1.00  0.00    -0.091 NA 
HETATM   17  C   UNL     1      -8.160  15.186  69.071  1.00  0.00    -0.191 A  
HETATM   18  C   UNL     1      -7.753  14.546  67.911  1.00  0.00    -0.147 A  
HETATM   19  C   UNL     1      -8.853   8.740  67.487  1.00  0.00    -0.134 A  
HETATM   20  F   UNL     1      -7.305  15.982  69.724  1.00  0.00    -0.210 F  
HETATM   21  C   UNL     1      -9.866   9.559  67.044  1.00  0.00    -0.190 A  
ENDROOT
BRANCH   8  22
HETATM   22  N   UNL     1     -11.858  14.732  65.585  1.00  0.00    -0.270 NA 
HETATM   23  C   UNL     1     -10.876  16.449  64.941  1.00  0.00    -0.250 A  
HETATM   24  C   UNL     1     -12.247  14.994  64.306  1.00  0.00    -0.293 A  
HETATM   25  N   UNL     1     -11.677  16.102  63.891  1.00  0.00    -0.880 NA 
HETATM   26  N   UNL     1     -10.920  15.612  65.983  1.00  0.00    -0.264 NA 
ENDBRANCH   8  22
TORSDOF 1
ENDMDL
MODEL       27
REMARK 921   NORMALIZED FREE ENERGY PREDICTED BY IDOCK:   -5.86 KCAL/MOL
REMARK 922        TOTAL FREE ENERGY PREDICTED BY IDOCK:   -5.80 KCAL/MOL
REMARK 923 INTER-LIGAND FREE ENERGY PREDICTED BY IDOCK:   -5.83 KCAL/MOL
REMARK 924 INTRA-LIGAND FREE ENERGY PREDICTED BY IDOCK:    0.03 KCAL/MOL
REMARK 927      BINDING AFFINITY PREDICTED BY RF-SCORE:    0.00 PKD
ROOT
HETATM    1  C   UNL     1      -8.536   9.109  70.880  1.00  0.00    -0.251 C  
HETATM    2  C   UNL     1      -9.565   8.453  69.944  1.00  0.00    -0.171 C  
HETATM    3  C   UNL     1      -9.719   9.042  68.474  1.00  0.00    -0.159 C  
HETATM    4  C   UNL     1     -10.899   8.297  70.676  1.00  0.00    -0.236 A  
HETATM    5  O   UNL     1     -10.481   7.999  67.789  1.00  0.00    -0.240 OA 
HETATM    6  N   UNL     1     -11.230   9.235  71.601  1.00  0.00    -0.370 NA 
HETATM    7  C   UNL     1     -10.466  10.373  68.257  1.00  0.00    -0.221 A  
HETATM    8  C   UNL     1      -8.359   9.041  67.698  1.00  0.00    -0.117 C  
HETATM    9  C   UNL     1     -10.717  11.303  69.276  1.00  0.00    -0.221 A  
HETATM   10  C   UNL     1     -10.897  10.741  66.964  1.00  0.00    -0.252 A  
HETATM   11  C   UNL     1     -12.412   9.091  72.225  1.00  0.00    -0.357 A  
HETATM   12  H   UNL     1     -10.573   8.351  66.911  1.00  0.00     0.000 HD 
HETATM   13  F   UNL     1     -11.415   6.251  69.555  1.00  0.00    -0.426 F  
HETATM   14  C   UNL     1     -11.523  11.951  66.685  1.00  0.00    -0.382 A  
HETATM   15  F   UNL     1     -10.701   9.891  65.943  1.00  0.00    -0.197 F  
HETATM   16  N   UNL     1     -13.303   8.117  72.002  1.00  0.00    -0.309 NA 
HETATM   17  C   UNL     1     -11.747  12.837  67.720  1.00  0.00    -0.359 A  
HETATM   18  C   UNL     1     -11.361  12.520  69.014  1.00  0.00    -0.342 A  
HETATM   19  C   UNL     1     -12.935   7.197  71.085  1.00  0.00    -0.257 A  
HETATM   20  F   UNL     1     -12.337  14.013  67.474  1.00  0.00    -0.412 F  
HETATM   21  C   UNL     1     -11.737   7.229  70.409  1.00  0.00    -0.182 A  
ENDROOT
BRANCH   8  22
HETATM   22  N   UNL     1      -7.436  10.118  67.957  1.00  0.00    -0.087 NA 
HETATM   23  C   UNL     1      -5.791  11.131  68.727  1.00  0.00    -0.043 A  
HETATM   24  C   UNL     1      -7.304  11.294  67.283  1.00  0.00    -0.122 A  
HETATM   25  N   UNL     1      -6.298  11.976  67.782  1.00  0.00    -0.070 NA 
HETATM   26  N   UNL     1      -6.429   9.961  68.836  1.00  0.00    -0.045 NA 
ENDBRANCH   8  22
TORSDOF 1
ENDMDL
MODEL       28
REMARK 921   NORMALIZED FREE ENERGY PREDICTED BY IDOCK:   -5.85 KCAL/MOL
REMARK 922        TOTAL FREE ENERGY PREDICTED BY IDOCK:   -5.78 KCAL/MOL
REMARK 923 INTER-LIGAND FREE ENERGY PREDICTED BY IDOCK:   -5.78 KCAL/MOL
REMARK 924 INTRA-LIGAND FREE ENERGY PREDICTED BY IDOCK:   -0.01 KCAL/MOL
REMARK 927      BINDING AFFINITY PREDICTED BY RF-SCORE:    0.00 PKD
ROOT
HETATM    1  C   UNL     1     -12.000  14.937  67.388  1.00  0.00    -0.144 C  
HETATM    2  C   UNL     1     -11.498  14.645  68.812  1.00  0.00    -0.322 C  
HETATM    3  C   UNL     1     -10.059  15.188  69.222  1.00  0.00    -0.246 C  
HETATM    4  C   UNL     1     -11.701  13.165  69.137  1.00  0.00    -0.325 A  
HETATM    5  O   UNL     1     -10.067  15.049  70.678  1.00  0.00    -0.433 OA 
HETATM    6  N   UNL     1     -11.600  12.271  68.118  1.00  0.00    -0.320 NA 
HETATM    7  C   UNL     1      -8.795  14.475  68.700  1.00  0.00    -0.180 A  
HETATM    8  C   UNL     1      -9.939  16.736  69.023  1.00  0.00    -0.272 C  
HETATM    9  C   UNL     1      -8.788  13.602  67.603  1.00  0.00    -0.194 A  
HETATM   10  C   UNL     1      -7.542  14.725  69.301  1.00  0.00    -0.144 A  
HETATM   11  C   UNL     1     -11.767  10.973  68.423  1.00  0.00    -0.259 A  
HETATM   12  H   UNL     1      -9.207  15.374  70.922  1.00  0.00     0.000 HD 
HETATM   13  F   UNL     1     -12.159  13.605  71.440  1.00  0.00    -0.392 F  
HETATM   14  C   UNL     1      -6.354  14.164  68.845  1.00  0.00    -0.091 A  
HETATM   15  F   UNL     1      -7.478  15.540  70.365  1.00  0.00     0.065 F  
HETATM   16  N   UNL     1     -12.003  10.477  69.644  1.00  0.00    -0.242 NA 
HETATM   17  C   UNL     1      -6.395  13.311  67.760  1.00  0.00    -0.159 A  
HETATM   18  C   UNL     1      -7.601  13.016  67.142  1.00  0.00    -0.023 A  
HETATM   19  C   UNL     1     -12.108  11.395  70.628  1.00  0.00    -0.372 A  
HETATM   20  F   UNL     1      -5.263  12.769  67.296  1.00  0.00    -0.101 F  
HETATM   21  C   UNL     1     -11.986  12.750  70.425  1.00  0.00    -0.249 A  
ENDROOT
BRANCH   8  22
HETATM   22  N   UNL     1      -9.668  17.225  67.694  1.00  0.00    -0.266 NA 
HETATM   23  C   UNL     1      -9.983  18.138  65.852  1.00  0.00    -0.097 A  
HETATM   24  C   UNL     1      -8.459  17.408  67.095  1.00  0.00    -0.211 A  
HETATM   25  N   UNL     1      -8.633  17.941  65.906  1.00  0.00    -0.507 NA 
HETATM   26  N   UNL     1     -10.652  17.757  66.946  1.00  0.00    -0.292 NA 
ENDBRANCH   8  22
TORSDOF 1
ENDMDL
MODEL       29
REMARK 921   NORMALIZED FREE ENERGY PREDICTED BY IDOCK:   -5.83 KCAL/MOL
REMARK 922        TOTAL FREE ENERGY PREDICTED BY IDOCK:   -5.77 KCAL/MOL
REMARK 923 INTER-LIGAND FREE ENERGY PREDICTED BY IDOCK:   -5.74 KCAL/MOL
REMARK 924 INTRA-LIGAND FREE ENERGY PREDICTED BY IDOCK:   -0.02 KCAL/MOL
REMARK 927      BINDING AFFINITY PREDICTED BY RF-SCORE:    0.00 PKD
ROOT
HETATM    1  C   UNL     1      -9.153   8.756  71.950  1.00  0.00    -0.291 C  
HETATM    2  C   UNL     1     -10.082   7.954  71.023  1.00  0.00    -0.212 C  
HETATM    3  C   UNL     1      -9.813   8.024  69.456  1.00  0.00    -0.181 C  
HETATM    4  C   UNL     1     -11.539   8.219  71.400  1.00  0.00    -0.280 A  
HETATM    5  O   UNL     1     -10.614   6.913  68.943  1.00  0.00    -0.202 OA 
HETATM    6  N   UNL     1     -11.857   9.449  71.884  1.00  0.00    -0.368 NA 
HETATM    7  C   UNL     1     -10.219   9.285  68.666  1.00  0.00    -0.220 A  
HETATM    8  C   UNL     1      -8.353   7.594  69.092  1.00  0.00    -0.131 C  
HETATM    9  C   UNL     1     -10.481  10.527  69.259  1.00  0.00    -0.258 A  
HETATM   10  C   UNL     1     -10.297   9.242  67.257  1.00  0.00    -0.265 A  
HETATM   11  C   UNL     1     -13.146   9.670  72.197  1.00  0.00    -0.431 A  
HETATM   12  H   UNL     1     -10.453   6.955  68.008  1.00  0.00     0.000 HD 
HETATM   13  F   UNL     1     -12.216   5.995  70.850  1.00  0.00    -0.158 F  
HETATM   14  C   UNL     1     -10.599  10.354  66.477  1.00  0.00    -0.220 A  
HETATM   15  F   UNL     1     -10.073   8.080  66.624  1.00  0.00    -0.290 F  
HETATM   16  N   UNL     1     -14.149   8.796  72.055  1.00  0.00    -0.441 NA 
HETATM   17  C   UNL     1     -10.847  11.559  67.106  1.00  0.00    -0.268 A  
HETATM   18  C   UNL     1     -10.802  11.653  68.489  1.00  0.00    -0.257 A  
HETATM   19  C   UNL     1     -13.794   7.582  71.583  1.00  0.00    -0.387 A  
HETATM   20  F   UNL     1     -11.127  12.645  66.376  1.00  0.00    -0.276 F  
HETATM   21  C   UNL     1     -12.502   7.236  71.259  1.00  0.00    -0.366 A  
ENDROOT
BRANCH   8  22
HETATM   22  N   UNL     1      -7.305   8.572  69.244  1.00  0.00    -0.070 NA 
HETATM   23  C   UNL     1      -5.578   9.481  69.963  1.00  0.00    -0.035 A  
HETATM   24  C   UNL     1      -6.978   9.593  68.404  1.00  0.00    -0.065 A  
HETATM   25  N   UNL     1      -5.915  10.216  68.862  1.00  0.00    -0.038 NA 
HETATM   26  N   UNL     1      -6.376   8.437  70.209  1.00  0.00    -0.035 NA 
ENDBRANCH   8  22
TORSDOF 1
ENDMDL
MODEL       30
REMARK 921   NORMALIZED FREE ENERGY PREDICTED BY IDOCK:   -5.81 KCAL/MOL
REMARK 922        TOTAL FREE ENERGY PREDICTED BY IDOCK:   -5.75 KCAL/MOL
REMARK 923 INTER-LIGAND FREE ENERGY PREDICTED BY IDOCK:   -6.09 KCAL/MOL
REMARK 924 INTRA-LIGAND FREE ENERGY PREDICTED BY IDOCK:    0.33 KCAL/MOL
REMARK 927      BINDING AFFINITY PREDICTED BY RF-SCORE:    0.00 PKD
ROOT
HETATM    1  C   UNL     1      -9.162  15.712  65.842  1.00  0.00    -0.330 C  
HETATM    2  C   UNL     1      -8.473  14.555  66.586  1.00  0.00    -0.006 C  
HETATM    3  C   UNL     1      -9.355  13.288  66.972  1.00  0.00    -0.242 C  
HETATM    4  C   UNL     1      -7.661  15.107  67.757  1.00  0.00    -0.155 A  
HETATM    5  O   UNL     1      -8.345  12.289  67.322  1.00  0.00    -0.166 OA 
HETATM    6  N   UNL     1      -8.126  16.219  68.384  1.00  0.00    -0.175 NA 
HETATM    7  C   UNL     1     -10.342  13.374  68.153  1.00  0.00    -0.249 A  
HETATM    8  C   UNL     1     -10.048  12.653  65.720  1.00  0.00    -0.271 C  
HETATM    9  C   UNL     1     -10.801  14.580  68.701  1.00  0.00    -0.259 A  
HETATM   10  C   UNL     1     -10.879  12.195  68.715  1.00  0.00    -0.228 A  
HETATM   11  C   UNL     1      -7.408  16.683  69.422  1.00  0.00    -0.095 A  
HETATM   12  H   UNL     1      -8.871  11.533  67.553  1.00  0.00     0.000 HD 
HETATM   13  F   UNL     1      -5.963  13.443  67.525  1.00  0.00    -0.141 F  
HETATM   14  C   UNL     1     -11.819  12.199  69.741  1.00  0.00    -0.397 A  
HETATM   15  F   UNL     1     -10.472  11.004  68.248  1.00  0.00    -0.173 F  
HETATM   16  N   UNL     1      -6.286  16.137  69.906  1.00  0.00    -0.181 NA 
HETATM   17  C   UNL     1     -12.243  13.412  70.247  1.00  0.00    -0.335 A  
HETATM   18  C   UNL     1     -11.735  14.601  69.745  1.00  0.00    -0.361 A  
HETATM   19  C   UNL     1      -5.848  15.041  69.251  1.00  0.00    -0.103 A  
HETATM   20  F   UNL     1     -13.155  13.441  71.226  1.00  0.00    -0.397 F  
HETATM   21  C   UNL     1      -6.486  14.498  68.160  1.00  0.00    -0.139 A  
ENDROOT
BRANCH   8  22
HETATM   22  N   UNL     1     -11.263  13.263  65.242  1.00  0.00    -0.292 NA 
HETATM   23  C   UNL     1     -13.283  13.743  65.113  1.00  0.00     0.116 A  
HETATM   24  C   UNL     1     -11.397  14.331  64.407  1.00  0.00    -0.273 A  
HETATM   25  N   UNL     1     -12.670  14.626  64.271  1.00  0.00    -0.678 NA 
HETATM   26  N   UNL     1     -12.455  12.919  65.765  1.00  0.00    -0.555 NA 
ENDBRANCH   8  22
TORSDOF 1
ENDMDL
MODEL       31
REMARK 921   NORMALIZED FREE ENERGY PREDICTED BY IDOCK:   -5.81 KCAL/MOL
REMARK 922        TOTAL FREE ENERGY PREDICTED BY IDOCK:   -5.74 KCAL/MOL
REMARK 923 INTER-LIGAND FREE ENERGY PREDICTED BY IDOCK:   -5.75 KCAL/MOL
REMARK 924 INTRA-LIGAND FREE ENERGY PREDICTED BY IDOCK:    0.01 KCAL/MOL
REMARK 927      BINDING AFFINITY PREDICTED BY RF-SCORE:    0.00 PKD
ROOT
HETATM    1  C   UNL     1      -8.415  13.558  66.501  1.00  0.00     0.298 C  
HETATM    2  C   UNL     1      -9.406  14.716  66.292  1.00  0.00    -0.293 C  
HETATM    3  C   UNL     1      -9.621  15.738  67.492  1.00  0.00    -0.224 C  
HETATM    4  C   UNL     1     -10.714  14.177  65.713  1.00  0.00    -0.299 A  
HETATM    5  O   UNL     1     -10.313  16.852  66.844  1.00  0.00    -0.306 OA 
HETATM    6  N   UNL     1     -11.102  12.926  66.078  1.00  0.00    -0.276 NA 
HETATM    7  C   UNL     1     -10.468  15.319  68.711  1.00  0.00    -0.237 A  
HETATM    8  C   UNL     1      -8.276  16.390  67.955  1.00  0.00    -0.169 C  
HETATM    9  C   UNL     1     -10.774  13.989  69.029  1.00  0.00    -0.232 A  
HETATM   10  C   UNL     1     -10.942  16.296  69.614  1.00  0.00    -0.346 A  
HETATM   11  C   UNL     1     -12.262  12.473  65.572  1.00  0.00    -0.377 A  
HETATM   12  H   UNL     1     -10.442  17.462  67.562  1.00  0.00     0.000 HD 
HETATM   13  F   UNL     1     -11.092  16.142  64.408  1.00  0.00    -0.473 F  
HETATM   14  C   UNL     1     -11.659  15.986  70.764  1.00  0.00    -0.431 A  
HETATM   15  F   UNL     1     -10.697  17.592  69.363  1.00  0.00    -0.300 F  
HETATM   16  N   UNL     1     -13.081  13.150  64.758  1.00  0.00    -0.680 NA 
HETATM   17  C   UNL     1     -11.935  14.660  71.038  1.00  0.00    -0.339 A  
HETATM   18  C   UNL     1     -11.510  13.661  70.176  1.00  0.00    -0.111 A  
HETATM   19  C   UNL     1     -12.658  14.382  64.409  1.00  0.00    -0.168 A  
HETATM   20  F   UNL     1     -12.614  14.337  72.145  1.00  0.00    -0.370 F  
HETATM   21  C   UNL     1     -11.474  14.935  64.842  1.00  0.00    -0.407 A  
ENDROOT
BRANCH   8  22
HETATM   22  N   UNL     1      -7.432  15.633  68.845  1.00  0.00    -0.148 NA 
HETATM   23  C   UNL     1      -5.744  14.656  69.569  1.00  0.00    -0.095 A  
HETATM   24  C   UNL     1      -7.625  15.368  70.167  1.00  0.00     0.330 A  
HETATM   25  N   UNL     1      -6.591  14.708  70.639  1.00  0.00    -0.014 NA 
HETATM   26  N   UNL     1      -6.199  15.252  68.461  1.00  0.00    -0.089 NA 
ENDBRANCH   8  22
TORSDOF 1
ENDMDL
MODEL       32
REMARK 921   NORMALIZED FREE ENERGY PREDICTED BY IDOCK:   -5.75 KCAL/MOL
REMARK 922        TOTAL FREE ENERGY PREDICTED BY IDOCK:   -5.68 KCAL/MOL
REMARK 923 INTER-LIGAND FREE ENERGY PREDICTED BY IDOCK:   -5.83 KCAL/MOL
REMARK 924 INTRA-LIGAND FREE ENERGY PREDICTED BY IDOCK:    0.14 KCAL/MOL
REMARK 927      BINDING AFFINITY PREDICTED BY RF-SCORE:    0.00 PKD
ROOT
HETATM    1  C   UNL     1     -10.381  11.702  68.924  1.00  0.00    -0.175 C  
HETATM    2  C   UNL     1      -9.233  12.215  68.039  1.00  0.00    -0.194 C  
HETATM    3  C   UNL     1      -9.265  13.741  67.588  1.00  0.00    -0.207 C  
HETATM    4  C   UNL     1      -9.003  11.246  66.880  1.00  0.00    -0.162 A  
HETATM    5  O   UNL     1      -7.906  13.957  67.091  1.00  0.00    -0.325 OA 
HETATM    6  N   UNL     1     -10.079  10.580  66.384  1.00  0.00    -0.221 NA 
HETATM    7  C   UNL     1     -10.235  14.190  66.477  1.00  0.00    -0.278 A  
HETATM    8  C   UNL     1      -9.343  14.713  68.812  1.00  0.00    -0.191 C  
HETATM    9  C   UNL     1     -11.352  13.448  66.069  1.00  0.00    -0.329 A  
HETATM   10  C   UNL     1     -10.054  15.437  65.840  1.00  0.00    -0.345 A  
HETATM   11  C   UNL     1      -9.862   9.743  65.356  1.00  0.00    -0.295 A  
HETATM   12  H   UNL     1      -7.925  14.868  66.822  1.00  0.00     0.000 HD 
HETATM   13  F   UNL     1      -6.645  11.632  66.861  1.00  0.00    -0.107 F  
HETATM   14  C   UNL     1     -10.924  15.932  64.873  1.00  0.00    -0.427 A  
HETATM   15  F   UNL     1      -8.996  16.193  66.172  1.00  0.00    -0.279 F  
HETATM   16  N   UNL     1      -8.683   9.520  64.760  1.00  0.00    -0.185 NA 
HETATM   17  C   UNL     1     -12.013  15.167  64.505  1.00  0.00    -0.319 A  
HETATM   18  C   UNL     1     -12.229  13.925  65.085  1.00  0.00    -0.443 A  
HETATM   19  C   UNL     1      -7.636  10.189  65.286  1.00  0.00    -0.144 A  
HETATM   20  F   UNL     1     -12.869  15.627  63.586  1.00  0.00    -0.042 F  
HETATM   21  C   UNL     1      -7.737  11.047  66.357  1.00  0.00    -0.146 A  
ENDROOT
BRANCH   8  22
HETATM   22  N   UNL     1     -10.635  14.937  69.413  1.00  0.00    -0.250 NA 
HETATM   23  C   UNL     1     -12.090  15.140  70.885  1.00  0.00    -0.334 A  
HETATM   24  C   UNL     1     -11.742  15.491  68.846  1.00  0.00    -0.370 A  
HETATM   25  N   UNL     1     -12.695  15.587  69.745  1.00  0.00    -0.090 NA 
HETATM   26  N   UNL     1     -10.812  14.774  70.737  1.00  0.00     0.031 NA 
ENDBRANCH   8  22
TORSDOF 1
ENDMDL
MODEL       33
REMARK 921   NORMALIZED FREE ENERGY PREDICTED BY IDOCK:   -5.73 KCAL/MOL
REMARK 922        TOTAL FREE ENERGY PREDICTED BY IDOCK:   -5.66 KCAL/MOL
REMARK 923 INTER-LIGAND FREE ENERGY PREDICTED BY IDOCK:   -5.65 KCAL/MOL
REMARK 924 INTRA-LIGAND FREE ENERGY PREDICTED BY IDOCK:   -0.02 KCAL/MOL
REMARK 927      BINDING AFFINITY PREDICTED BY RF-SCORE:    0.00 PKD
ROOT
HETATM    1  C   UNL     1      -9.662  15.374  65.530  1.00  0.00    -0.318 C  
HETATM    2  C   UNL     1     -10.934  14.654  66.009  1.00  0.00    -0.325 C  
HETATM    3  C   UNL     1     -10.955  14.088  67.496  1.00  0.00    -0.277 C  
HETATM    4  C   UNL     1     -11.369  13.626  64.964  1.00  0.00    -0.329 A  
HETATM    5  O   UNL     1     -12.374  13.807  67.712  1.00  0.00    -0.422 OA 
HETATM    6  N   UNL     1     -10.400  13.012  64.235  1.00  0.00    -0.402 NA 
HETATM    7  C   UNL     1     -10.176  12.801  67.836  1.00  0.00    -0.229 A  
HETATM    8  C   UNL     1     -10.660  15.205  68.552  1.00  0.00    -0.237 C  
HETATM    9  C   UNL     1      -9.154  12.273  67.036  1.00  0.00    -0.201 A  
HETATM   10  C   UNL     1     -10.442  12.109  69.038  1.00  0.00    -0.038 A  
HETATM   11  C   UNL     1     -10.798  12.100  63.331  1.00  0.00    -0.414 A  
HETATM   12  H   UNL     1     -12.386  13.469  68.600  1.00  0.00     0.000 HD 
HETATM   13  F   UNL     1     -13.690  13.967  65.413  1.00  0.00    -0.195 F  
HETATM   14  C   UNL     1      -9.739  10.978  69.437  1.00  0.00     0.057 A  
HETATM   15  F   UNL     1     -11.419  12.552  69.845  1.00  0.00    -0.320 F  
HETATM   16  N   UNL     1     -12.062  11.727  63.097  1.00  0.00    -0.299 NA 
HETATM   17  C   UNL     1      -8.738  10.495  68.617  1.00  0.00    -0.143 A  
HETATM   18  C   UNL     1      -8.447  11.124  67.416  1.00  0.00    -0.134 A  
HETATM   19  C   UNL     1     -12.997  12.365  63.831  1.00  0.00    -0.158 A  
HETATM   20  F   UNL     1      -8.040   9.414  68.985  1.00  0.00    -0.096 F  
HETATM   21  C   UNL     1     -12.706  13.336  64.762  1.00  0.00    -0.274 A  
ENDROOT
BRANCH   8  22
HETATM   22  N   UNL     1      -9.283  15.565  68.784  1.00  0.00    -0.197 NA 
HETATM   23  C   UNL     1      -7.558  16.725  68.851  1.00  0.00    -0.239 A  
HETATM   24  C   UNL     1      -8.355  14.908  69.533  1.00  0.00    -0.021 A  
HETATM   25  N   UNL     1      -7.237  15.598  69.554  1.00  0.00    -0.208 NA 
HETATM   26  N   UNL     1      -8.816  16.768  68.400  1.00  0.00    -0.228 NA 
ENDBRANCH   8  22
TORSDOF 1
ENDMDL
MODEL       34
REMARK 921   NORMALIZED FREE ENERGY PREDICTED BY IDOCK:   -5.73 KCAL/MOL
REMARK 922        TOTAL FREE ENERGY PREDICTED BY IDOCK:   -5.66 KCAL/MOL
REMARK 923 INTER-LIGAND FREE ENERGY PREDICTED BY IDOCK:   -5.65 KCAL/MOL
REMARK 924 INTRA-LIGAND FREE ENERGY PREDICTED BY IDOCK:   -0.01 KCAL/MOL
REMARK 927      BINDING AFFINITY PREDICTED BY RF-SCORE:    0.00 PKD
ROOT
HETATM    1  C   UNL     1     -11.759   6.351  70.126  1.00  0.00    -0.372 C  
HETATM    2  C   UNL     1     -10.231   6.516  70.081  1.00  0.00    -0.226 C  
HETATM    3  C   UNL     1      -9.634   7.980  70.259  1.00  0.00    -0.171 C  
HETATM    4  C   UNL     1      -9.669   5.776  68.866  1.00  0.00    -0.136 A  
HETATM    5  O   UNL     1      -8.217   7.719  70.513  1.00  0.00    -0.115 OA 
HETATM    6  N   UNL     1     -10.441   5.709  67.750  1.00  0.00    -0.217 NA 
HETATM    7  C   UNL     1      -9.712   8.985  69.092  1.00  0.00    -0.167 A  
HETATM    8  C   UNL     1     -10.107   8.648  71.593  1.00  0.00    -0.294 C  
HETATM    9  C   UNL     1     -10.583   8.849  68.002  1.00  0.00    -0.226 A  
HETATM   10  C   UNL     1      -8.913  10.149  69.106  1.00  0.00    -0.175 A  
HETATM   11  C   UNL     1      -9.926   5.068  66.686  1.00  0.00    -0.221 A  
HETATM   12  H   UNL     1      -7.860   8.594  70.619  1.00  0.00     0.000 HD 
HETATM   13  F   UNL     1      -7.658   5.174  70.008  1.00  0.00    -0.059 F  
HETATM   14  C   UNL     1      -8.976  11.127  68.118  1.00  0.00    -0.159 A  
HETATM   15  F   UNL     1      -8.046  10.336  70.113  1.00  0.00    -0.180 F  
HETATM   16  N   UNL     1      -8.713   4.507  66.620  1.00  0.00    -0.111 NA 
HETATM   17  C   UNL     1      -9.851  10.952  67.064  1.00  0.00    -0.183 A  
HETATM   18  C   UNL     1     -10.646   9.818  66.990  1.00  0.00    -0.269 A  
HETATM   19  C   UNL     1      -7.980   4.582  67.751  1.00  0.00    -0.088 A  
HETATM   20  F   UNL     1      -9.936  11.885  66.108  1.00  0.00    -0.220 F  
HETATM   21  C   UNL     1      -8.418   5.187  68.906  1.00  0.00    -0.090 A  
ENDROOT
BRANCH   8  22
HETATM   22  N   UNL     1     -11.414   9.255  71.615  1.00  0.00    -0.378 NA 
HETATM   23  C   UNL     1     -13.384   9.619  72.175  1.00  0.00    -0.454 A  
HETATM   24  C   UNL     1     -11.799  10.445  71.076  1.00  0.00    -0.361 A  
HETATM   25  N   UNL     1     -13.057  10.677  71.376  1.00  0.00    -0.405 NA 
HETATM   26  N   UNL     1     -12.393   8.746  72.387  1.00  0.00    -0.371 NA 
ENDBRANCH   8  22
TORSDOF 1
ENDMDL
MODEL       35
REMARK 921   NORMALIZED FREE ENERGY PREDICTED BY IDOCK:   -5.67 KCAL/MOL
REMARK 922        TOTAL FREE ENERGY PREDICTED BY IDOCK:   -5.60 KCAL/MOL
REMARK 923 INTER-LIGAND FREE ENERGY PREDICTED BY IDOCK:   -5.60 KCAL/MOL
REMARK 924 INTRA-LIGAND FREE ENERGY PREDICTED BY IDOCK:    0.00 KCAL/MOL
REMARK 927      BINDING AFFINITY PREDICTED BY RF-SCORE:    0.00 PKD
ROOT
HETATM    1  C   UNL     1     -11.372   5.992  71.565  1.00  0.00    -0.309 C  
HETATM    2  C   UNL     1      -9.876   6.307  71.395  1.00  0.00    -0.195 C  
HETATM    3  C   UNL     1      -9.473   7.764  70.897  1.00  0.00    -0.160 C  
HETATM    4  C   UNL     1      -9.200   5.188  70.603  1.00  0.00    -0.147 A  
HETATM    5  O   UNL     1      -8.040   7.817  71.187  1.00  0.00    -0.092 OA 
HETATM    6  N   UNL     1      -9.935   4.547  69.656  1.00  0.00    -0.218 NA 
HETATM    7  C   UNL     1      -9.655   8.142  69.413  1.00  0.00    -0.167 A  
HETATM    8  C   UNL     1     -10.054   8.882  71.825  1.00  0.00    -0.337 C  
HETATM    9  C   UNL     1     -10.479   7.439  68.524  1.00  0.00    -0.215 A  
HETATM   10  C   UNL     1      -9.011   9.284  68.890  1.00  0.00    -0.136 A  
HETATM   11  C   UNL     1      -9.322   3.575  68.959  1.00  0.00    -0.170 A  
HETATM   12  H   UNL     1      -7.800   8.686  70.889  1.00  0.00     0.000 HD 
HETATM   13  F   UNL     1      -7.153   5.396  71.817  1.00  0.00    -0.065 F  
HETATM   14  C   UNL     1      -9.177   9.718  67.578  1.00  0.00    -0.145 A  
HETATM   15  F   UNL     1      -8.195   9.996  69.683  1.00  0.00    -0.118 F  
HETATM   16  N   UNL     1      -8.046   3.195  69.098  1.00  0.00    -0.055 NA 
HETATM   17  C   UNL     1     -10.001   8.995  66.739  1.00  0.00    -0.263 A  
HETATM   18  C   UNL     1     -10.644   7.854  67.195  1.00  0.00    -0.383 A  
HETATM   19  C   UNL     1      -7.351   3.845  70.055  1.00  0.00    -0.042 A  
HETATM   20  F   UNL     1     -10.185   9.400  65.477  1.00  0.00    -0.370 F  
HETATM   21  C   UNL     1      -7.886   4.834  70.848  1.00  0.00    -0.081 A  
ENDROOT
BRANCH   8  22
HETATM   22  N   UNL     1     -11.428   9.273  71.630  1.00  0.00    -0.378 NA 
HETATM   23  C   UNL     1     -13.472   9.446  71.975  1.00  0.00    -0.449 A  
HETATM   24  C   UNL     1     -11.920  10.241  70.808  1.00  0.00    -0.360 A  
HETATM   25  N   UNL     1     -13.220  10.338  70.972  1.00  0.00    -0.375 NA 
HETATM   26  N   UNL     1     -12.396   8.804  72.440  1.00  0.00    -0.371 NA 
ENDBRANCH   8  22
TORSDOF 1
ENDMDL
MODEL       36
REMARK 921   NORMALIZED FREE ENERGY PREDICTED BY IDOCK:   -5.66 KCAL/MOL
REMARK 922        TOTAL FREE ENERGY PREDICTED BY IDOCK:   -5.59 KCAL/MOL
REMARK 923 INTER-LIGAND FREE ENERGY PREDICTED BY IDOCK:   -5.59 KCAL/MOL
REMARK 924 INTRA-LIGAND FREE ENERGY PREDICTED BY IDOCK:    0.01 KCAL/MOL
REMARK 927      BINDING AFFINITY PREDICTED BY RF-SCORE:    0.00 PKD
ROOT
HETATM    1  C   UNL     1     -10.688  16.023  64.911  1.00  0.00    -0.339 C  
HETATM    2  C   UNL     1      -9.480  16.412  65.780  1.00  0.00    -0.191 C  
HETATM    3  C   UNL     1      -9.125  15.484  67.023  1.00  0.00    -0.230 C  
HETATM    4  C   UNL     1      -9.559  17.897  66.136  1.00  0.00    -0.178 A  
HETATM    5  O   UNL     1      -7.778  15.928  67.380  1.00  0.00    -0.144 OA 
HETATM    6  N   UNL     1     -10.791  18.448  66.290  1.00  0.00    -0.124 NA 
HETATM    7  C   UNL     1      -9.986  15.555  68.301  1.00  0.00    -0.213 A  
HETATM    8  C   UNL     1      -8.897  13.995  66.596  1.00  0.00    -0.092 C  
HETATM    9  C   UNL     1     -11.274  16.106  68.345  1.00  0.00    -0.358 A  
HETATM   10  C   UNL     1      -9.507  15.002  69.508  1.00  0.00    -0.073 A  
HETATM   11  C   UNL     1     -10.843  19.751  66.618  1.00  0.00    -0.309 A  
HETATM   12  H   UNL     1      -7.567  15.373  68.123  1.00  0.00     0.000 HD 
HETATM   13  F   UNL     1      -7.185  18.164  66.080  1.00  0.00    -0.257 F  
HETATM   14  C   UNL     1     -10.252  14.977  70.683  1.00  0.00     0.363 A  
HETATM   15  F   UNL     1      -8.274  14.471  69.541  1.00  0.00    -0.078 F  
HETATM   16  N   UNL     1      -9.790  20.550  66.826  1.00  0.00    -0.396 NA 
HETATM   17  C   UNL     1     -11.518  15.529  70.678  1.00  0.00    -0.358 A  
HETATM   18  C   UNL     1     -12.031  16.103  69.525  1.00  0.00    -0.068 A  
HETATM   19  C   UNL     1      -8.583  19.971  66.653  1.00  0.00    -0.321 A  
HETATM   20  F   UNL     1     -12.257  15.507  71.793  1.00  0.00    -0.321 F  
HETATM   21  C   UNL     1      -8.412  18.655  66.289  1.00  0.00    -0.224 A  
ENDROOT
BRANCH   8  22
HETATM   22  N   UNL     1     -10.059  13.165  66.398  1.00  0.00    -0.274 NA 
HETATM   23  C   UNL     1     -11.534  12.083  65.409  1.00  0.00    -0.305 A  
HETATM   24  C   UNL     1     -10.706  12.391  67.312  1.00  0.00    -0.230 A  
HETATM   25  N   UNL     1     -11.676  11.730  66.721  1.00  0.00    -0.571 NA 
HETATM   26  N   UNL     1     -10.525  12.925  65.158  1.00  0.00    -0.301 NA 
ENDBRANCH   8  22
TORSDOF 1
ENDMDL
MODEL       37
REMARK 921   NORMALIZED FREE ENERGY PREDICTED BY IDOCK:   -5.66 KCAL/MOL
REMARK 922        TOTAL FREE ENERGY PREDICTED BY IDOCK:   -5.59 KCAL/MOL
REMARK 923 INTER-LIGAND FREE ENERGY PREDICTED BY IDOCK:   -5.60 KCAL/MOL
REMARK 924 INTRA-LIGAND FREE ENERGY PREDICTED BY IDOCK:    0.01 KCAL/MOL
REMARK 927      BINDING AFFINITY PREDICTED BY RF-SCORE:    0.00 PKD
ROOT
HETATM    1  C   UNL     1     -12.536  13.382  67.140  1.00  0.00    -0.021 C  
HETATM    2  C   UNL     1     -11.298  12.470  67.150  1.00  0.00    -0.381 C  
HETATM    3  C   UNL     1     -10.056  12.908  68.044  1.00  0.00    -0.235 C  
HETATM    4  C   UNL     1     -10.913  12.108  65.715  1.00  0.00    -0.297 A  
HETATM    5  O   UNL     1      -9.251  11.687  68.094  1.00  0.00    -0.171 OA 
HETATM    6  N   UNL     1     -11.148  13.029  64.743  1.00  0.00    -0.309 NA 
HETATM    7  C   UNL     1      -9.133  14.047  67.566  1.00  0.00    -0.196 A  
HETATM    8  C   UNL     1     -10.458  13.117  69.542  1.00  0.00     0.508 C  
HETATM    9  C   UNL     1      -9.490  14.981  66.584  1.00  0.00    -0.288 A  
HETATM   10  C   UNL     1      -7.865  14.226  68.160  1.00  0.00    -0.139 A  
HETATM   11  C   UNL     1     -10.791  12.701  63.490  1.00  0.00    -0.329 A  
HETATM   12  H   UNL     1      -8.510  11.949  68.628  1.00  0.00     0.000 HD 
HETATM   13  F   UNL     1     -10.168   9.925  66.333  1.00  0.00    -0.277 F  
HETATM   14  C   UNL     1      -7.006  15.266  67.821  1.00  0.00    -0.185 A  
HETATM   15  F   UNL     1      -7.453  13.359  69.098  1.00  0.00    -0.088 F  
HETATM   16  N   UNL     1     -10.205  11.558  63.114  1.00  0.00    -0.364 NA 
HETATM   17  C   UNL     1      -7.401  16.164  66.849  1.00  0.00    -0.220 A  
HETATM   18  C   UNL     1      -8.629  16.025  66.219  1.00  0.00    -0.363 A  
HETATM   19  C   UNL     1      -9.998  10.664  64.104  1.00  0.00    -0.342 A  
HETATM   20  F   UNL     1      -6.596  17.180  66.514  1.00  0.00    -0.202 F  
HETATM   21  C   UNL     1     -10.352  10.881  65.416  1.00  0.00    -0.261 A  
ENDROOT
BRANCH   8  22
HETATM   22  N   UNL     1     -11.071  14.370  69.906  1.00  0.00    -0.176 NA 
HETATM   23  C   UNL     1     -12.482  15.705  70.649  1.00  0.00    -0.417 A  
HETATM   24  C   UNL     1     -10.483  15.593  70.023  1.00  0.00    -0.323 A  
HETATM   25  N   UNL     1     -11.367  16.467  70.447  1.00  0.00    -0.203 NA 
HETATM   26  N   UNL     1     -12.333  14.405  70.375  1.00  0.00    -0.323 NA 
ENDBRANCH   8  22
TORSDOF 1
ENDMDL
MODEL       38
REMARK 921   NORMALIZED FREE ENERGY PREDICTED BY IDOCK:   -5.66 KCAL/MOL
REMARK 922        TOTAL FREE ENERGY PREDICTED BY IDOCK:   -5.59 KCAL/MOL
REMARK 923 INTER-LIGAND FREE ENERGY PREDICTED BY IDOCK:   -5.60 KCAL/MOL
REMARK 924 INTRA-LIGAND FREE ENERGY PREDICTED BY IDOCK:    0.01 KCAL/MOL
REMARK 927      BINDING AFFINITY PREDICTED BY RF-SCORE:    0.00 PKD
ROOT
HETATM    1  C   UNL     1     -11.591  14.323  69.266  1.00  0.00    -0.350 C  
HETATM    2  C   UNL     1     -11.212  14.420  67.778  1.00  0.00    -0.316 C  
HETATM    3  C   UNL     1     -10.663  13.111  67.062  1.00  0.00    -0.262 C  
HETATM    4  C   UNL     1     -10.333  15.650  67.551  1.00  0.00    -0.277 A  
HETATM    5  O   UNL     1     -10.748  13.461  65.644  1.00  0.00    -0.270 OA 
HETATM    6  N   UNL     1      -9.498  16.029  68.554  1.00  0.00    -0.209 NA 
HETATM    7  C   UNL     1      -9.220  12.639  67.331  1.00  0.00    -0.191 A  
HETATM    8  C   UNL     1     -11.664  11.913  67.181  1.00  0.00    -0.236 C  
HETATM    9  C   UNL     1      -8.455  13.056  68.429  1.00  0.00    -0.118 A  
HETATM   10  C   UNL     1      -8.611  11.696  66.475  1.00  0.00    -0.164 A  
HETATM   11  C   UNL     1      -8.721  17.103  68.332  1.00  0.00    -0.246 A  
HETATM   12  H   UNL     1     -10.419  12.679  65.216  1.00  0.00     0.000 HD 
HETATM   13  F   UNL     1     -11.246  16.055  65.380  1.00  0.00    -0.280 F  
HETATM   14  C   UNL     1      -7.336  11.182  66.691  1.00  0.00    -0.145 A  
HETATM   15  F   UNL     1      -9.282  11.265  65.395  1.00  0.00    -0.208 F  
HETATM   16  N   UNL     1      -8.679  17.821  67.203  1.00  0.00    -0.240 NA 
HETATM   17  C   UNL     1      -6.621  11.620  67.788  1.00  0.00    -0.071 A  
HETATM   18  C   UNL     1      -7.162  12.560  68.652  1.00  0.00    -0.103 A  
HETATM   19  C   UNL     1      -9.529  17.423  66.234  1.00  0.00    -0.226 A  
HETATM   20  F   UNL     1      -5.397  11.132  68.022  1.00  0.00    -0.043 F  
HETATM   21  C   UNL     1     -10.390  16.358  66.364  1.00  0.00    -0.313 A  
ENDROOT
BRANCH   8  22
HETATM   22  N   UNL     1     -11.664  11.156  68.408  1.00  0.00    -0.485 NA 
HETATM   23  C   UNL     1     -12.286  10.457  70.266  1.00  0.00    -0.269 A  
HETATM   24  C   UNL     1     -10.937  10.046  68.713  1.00  0.00    -0.202 A  
HETATM   25  N   UNL     1     -11.277   9.611  69.905  1.00  0.00    -0.233 NA 
HETATM   26  N   UNL     1     -12.588  11.392  69.358  1.00  0.00    -0.140 NA 
ENDBRANCH   8  22
TORSDOF 1
ENDMDL
MODEL       39
REMARK 921   NORMALIZED FREE ENERGY PREDICTED BY IDOCK:   -5.64 KCAL/MOL
REMARK 922        TOTAL FREE ENERGY PREDICTED BY IDOCK:   -5.57 KCAL/MOL
REMARK 923 INTER-LIGAND FREE ENERGY PREDICTED BY IDOCK:   -5.63 KCAL/MOL
REMARK 924 INTRA-LIGAND FREE ENERGY PREDICTED BY IDOCK:    0.06 KCAL/MOL
REMARK 927      BINDING AFFINITY PREDICTED BY RF-SCORE:    0.00 PKD
ROOT
HETATM    1  C   UNL     1      -7.482   7.358  69.345  1.00  0.00    -0.091 C  
HETATM    2  C   UNL     1      -8.994   7.417  69.073  1.00  0.00    -0.131 C  
HETATM    3  C   UNL     1      -9.973   7.515  70.324  1.00  0.00    -0.192 C  
HETATM    4  C   UNL     1      -9.383   6.317  68.085  1.00  0.00    -0.115 A  
HETATM    5  O   UNL     1     -11.243   7.899  69.709  1.00  0.00    -0.436 OA 
HETATM    6  N   UNL     1      -8.681   5.154  68.121  1.00  0.00    -0.102 NA 
HETATM    7  C   UNL     1     -10.241   6.264  71.186  1.00  0.00    -0.238 A  
HETATM    8  C   UNL     1      -9.642   8.747  71.232  1.00  0.00    -0.253 C  
HETATM    9  C   UNL     1      -9.424   5.126  71.185  1.00  0.00    -0.205 A  
HETATM   10  C   UNL     1     -11.336   6.240  72.078  1.00  0.00    -0.300 A  
HETATM   11  C   UNL     1      -9.045   4.191  67.256  1.00  0.00    -0.144 A  
HETATM   12  H   UNL     1     -11.827   7.958  70.456  1.00  0.00     0.000 HD 
HETATM   13  F   UNL     1     -11.081   7.656  67.070  1.00  0.00    -0.396 F  
HETATM   14  C   UNL     1     -11.603   5.172  72.927  1.00  0.00    -0.282 A  
HETATM   15  F   UNL     1     -12.169   7.292  72.119  1.00  0.00    -0.306 F  
HETATM   16  N   UNL     1     -10.051   4.267  66.376  1.00  0.00    -0.208 NA 
HETATM   17  C   UNL     1     -10.768   4.072  72.893  1.00  0.00    -0.131 A  
HETATM   18  C   UNL     1      -9.688   4.034  72.023  1.00  0.00    -0.232 A  
HETATM   19  C   UNL     1     -10.718   5.440  66.361  1.00  0.00    -0.217 A  
HETATM   20  F   UNL     1     -10.998   3.037  73.709  1.00  0.00    -0.240 F  
HETATM   21  C   UNL     1     -10.412   6.503  67.180  1.00  0.00    -0.287 A  
ENDROOT
BRANCH   8  22
HETATM   22  N   UNL     1      -8.562   8.617  72.177  1.00  0.00    -0.345 NA 
HETATM   23  C   UNL     1      -6.658   8.792  72.995  1.00  0.00     0.061 A  
HETATM   24  C   UNL     1      -8.633   8.295  73.498  1.00  0.00    -0.198 A  
HETATM   25  N   UNL     1      -7.433   8.352  74.030  1.00  0.00    -0.309 NA 
HETATM   26  N   UNL     1      -7.316   9.012  71.852  1.00  0.00    -0.332 NA 
ENDBRANCH   8  22
TORSDOF 1
ENDMDL
MODEL       40
REMARK 921   NORMALIZED FREE ENERGY PREDICTED BY IDOCK:   -5.60 KCAL/MOL
REMARK 922        TOTAL FREE ENERGY PREDICTED BY IDOCK:   -5.53 KCAL/MOL
REMARK 923 INTER-LIGAND FREE ENERGY PREDICTED BY IDOCK:   -5.50 KCAL/MOL
REMARK 924 INTRA-LIGAND FREE ENERGY PREDICTED BY IDOCK:   -0.02 KCAL/MOL
REMARK 927      BINDING AFFINITY PREDICTED BY RF-SCORE:    0.00 PKD
ROOT
HETATM    1  C   UNL     1     -11.739  10.502  69.812  1.00  0.00    -0.354 C  
HETATM    2  C   UNL     1     -10.461   9.797  70.297  1.00  0.00    -0.345 C  
HETATM    3  C   UNL     1      -9.367   9.406  69.209  1.00  0.00    -0.167 C  
HETATM    4  C   UNL     1     -10.832   8.640  71.226  1.00  0.00    -0.260 A  
HETATM    5  O   UNL     1      -8.195   9.101  70.029  1.00  0.00    -0.113 OA 
HETATM    6  N   UNL     1     -11.997   7.982  70.987  1.00  0.00    -0.280 NA 
HETATM    7  C   UNL     1      -9.607   8.196  68.284  1.00  0.00    -0.154 A  
HETATM    8  C   UNL     1      -8.895  10.647  68.380  1.00  0.00    -0.145 C  
HETATM    9  C   UNL     1     -10.864   7.616  68.067  1.00  0.00    -0.068 A  
HETATM   10  C   UNL     1      -8.533   7.637  67.556  1.00  0.00    -0.116 A  
HETATM   11  C   UNL     1     -12.301   6.959  71.804  1.00  0.00    -0.361 A  
HETATM   12  H   UNL     1      -7.542   8.867  69.379  1.00  0.00     0.000 HD 
HETATM   13  F   UNL     1      -8.892   8.947  72.586  1.00  0.00    -0.260 F  
HETATM   14  C   UNL     1      -8.687   6.585  66.659  1.00  0.00    -0.128 A  
HETATM   15  F   UNL     1      -7.298   8.135  67.727  1.00  0.00    -0.084 F  
HETATM   16  N   UNL     1     -11.549   6.515  72.819  1.00  0.00    -0.143 NA 
HETATM   17  C   UNL     1      -9.946   6.048  66.475  1.00  0.00    -0.141 A  
HETATM   18  C   UNL     1     -11.033   6.544  67.179  1.00  0.00    -0.480 A  
HETATM   19  C   UNL     1     -10.407   7.200  73.033  1.00  0.00    -0.271 A  
HETATM   20  F   UNL     1     -10.120   5.043  65.609  1.00  0.00    -0.188 F  
HETATM   21  C   UNL     1     -10.011   8.281  72.279  1.00  0.00    -0.296 A  
ENDROOT
BRANCH   8  22
HETATM   22  N   UNL     1      -9.726  11.081  67.285  1.00  0.00    -0.165 NA 
HETATM   23  C   UNL     1     -11.001  12.282  66.165  1.00  0.00    -0.293 A  
HETATM   24  C   UNL     1      -9.768  10.591  66.015  1.00  0.00    -0.205 A  
HETATM   25  N   UNL     1     -10.605  11.305  65.297  1.00  0.00    -0.275 NA 
HETATM   26  N   UNL     1     -10.451  12.211  67.382  1.00  0.00    -0.211 NA 
ENDBRANCH   8  22
TORSDOF 1
ENDMDL
MODEL       41
REMARK 921   NORMALIZED FREE ENERGY PREDICTED BY IDOCK:   -5.58 KCAL/MOL
REMARK 922        TOTAL FREE ENERGY PREDICTED BY IDOCK:   -5.50 KCAL/MOL
REMARK 923 INTER-LIGAND FREE ENERGY PREDICTED BY IDOCK:   -6.07 KCAL/MOL
REMARK 924 INTRA-LIGAND FREE ENERGY PREDICTED BY IDOCK:    0.57 KCAL/MOL
REMARK 927      BINDING AFFINITY PREDICTED BY RF-SCORE:    0.00 PKD
ROOT
HETATM    1  C   UNL     1      -8.707  12.643  66.195  1.00  0.00     0.293 C  
HETATM    2  C   UNL     1      -8.824  11.834  67.497  1.00  0.00    -0.162 C  
HETATM    3  C   UNL     1     -10.245  11.767  68.209  1.00  0.00    -0.205 C  
HETATM    4  C   UNL     1      -7.689  12.220  68.447  1.00  0.00    -0.141 A  
HETATM    5  O   UNL     1     -10.074  10.673  69.165  1.00  0.00    -0.206 OA 
HETATM    6  N   UNL     1      -7.236  13.500  68.408  1.00  0.00    -0.100 NA 
HETATM    7  C   UNL     1     -10.765  12.987  68.996  1.00  0.00    -0.138 A  
HETATM    8  C   UNL     1     -11.355  11.217  67.251  1.00  0.00    -0.255 C  
HETATM    9  C   UNL     1     -10.258  14.285  68.848  1.00  0.00    -0.203 A  
HETATM   10  C   UNL     1     -11.845  12.842  69.894  1.00  0.00    -0.301 A  
HETATM   11  C   UNL     1      -6.248  13.827  69.259  1.00  0.00    -0.105 A  
HETATM   12  H   UNL     1     -10.923  10.633  69.590  1.00  0.00     0.000 HD 
HETATM   13  F   UNL     1      -7.510  10.008  69.331  1.00  0.00    -0.073 F  
HETATM   14  C   UNL     1     -12.403  13.908  70.592  1.00  0.00    -0.451 A  
HETATM   15  F   UNL     1     -12.369  11.623  70.096  1.00  0.00    -0.348 F  
HETATM   16  N   UNL     1      -5.684  13.010  70.157  1.00  0.00    -0.132 NA 
HETATM   17  C   UNL     1     -11.873  15.170  70.412  1.00  0.00    -0.307 A  
HETATM   18  C   UNL     1     -10.799  15.367  69.556  1.00  0.00    -0.268 A  
HETATM   19  C   UNL     1      -6.151  11.744  70.158  1.00  0.00    -0.147 A  
HETATM   20  F   UNL     1     -12.400  16.213  71.064  1.00  0.00    -0.433 F  
HETATM   21  C   UNL     1      -7.137  11.292  69.312  1.00  0.00    -0.112 A  
ENDROOT
BRANCH   8  22
HETATM   22  N   UNL     1     -11.947  12.136  66.311  1.00  0.00    -0.613 NA 
HETATM   23  C   UNL     1     -12.765  13.892  65.554  1.00  0.00    -0.499 A  
HETATM   24  C   UNL     1     -12.008  12.030  64.954  1.00  0.00    -0.216 A  
HETATM   25  N   UNL     1     -12.565  13.109  64.454  1.00  0.00    -0.653 NA 
HETATM   26  N   UNL     1     -12.358  13.354  66.709  1.00  0.00    -0.296 NA 
ENDBRANCH   8  22
TORSDOF 1
ENDMDL
MODEL       42
REMARK 921   NORMALIZED FREE ENERGY PREDICTED BY IDOCK:   -5.55 KCAL/MOL
REMARK 922        TOTAL FREE ENERGY PREDICTED BY IDOCK:   -5.48 KCAL/MOL
REMARK 923 INTER-LIGAND FREE ENERGY PREDICTED BY IDOCK:   -5.48 KCAL/MOL
REMARK 924 INTRA-LIGAND FREE ENERGY PREDICTED BY IDOCK:    0.01 KCAL/MOL
REMARK 927      BINDING AFFINITY PREDICTED BY RF-SCORE:    0.00 PKD
ROOT
HETATM    1  C   UNL     1     -11.244  10.508  69.050  1.00  0.00    -0.316 C  
HETATM    2  C   UNL     1     -10.035   9.749  69.622  1.00  0.00    -0.244 C  
HETATM    3  C   UNL     1      -9.018   9.084  68.595  1.00  0.00    -0.137 C  
HETATM    4  C   UNL     1     -10.501   8.790  70.719  1.00  0.00    -0.219 A  
HETATM    5  O   UNL     1      -7.863   8.780  69.439  1.00  0.00    -0.091 OA 
HETATM    6  N   UNL     1     -11.735   8.234  70.594  1.00  0.00    -0.209 NA 
HETATM    7  C   UNL     1      -9.408   7.783  67.865  1.00  0.00    -0.148 A  
HETATM    8  C   UNL     1      -8.440  10.130  67.583  1.00  0.00    -0.118 C  
HETATM    9  C   UNL     1     -10.725   7.316  67.751  1.00  0.00    -0.267 A  
HETATM   10  C   UNL     1      -8.419   7.010  67.218  1.00  0.00    -0.121 A  
HETATM   11  C   UNL     1     -12.123   7.382  71.559  1.00  0.00    -0.327 A  
HETATM   12  H   UNL     1      -7.255   8.383  68.825  1.00  0.00     0.000 HD 
HETATM   13  F   UNL     1      -8.504   9.085  71.997  1.00  0.00    -0.204 F  
HETATM   14  C   UNL     1      -8.706   5.859  66.492  1.00  0.00    -0.126 A  
HETATM   15  F   UNL     1      -7.134   7.391  67.300  1.00  0.00    -0.073 F  
HETATM   16  N   UNL     1     -11.396   7.016  72.622  1.00  0.00    -0.272 NA 
HETATM   17  C   UNL     1     -10.019   5.439  66.405  1.00  0.00    -0.191 A  
HETATM   18  C   UNL     1     -11.029   6.149  67.036  1.00  0.00    -0.414 A  
HETATM   19  C   UNL     1     -10.182   7.598  72.718  1.00  0.00    -0.279 A  
HETATM   20  F   UNL     1     -10.321   4.341  65.702  1.00  0.00    -0.221 F  
HETATM   21  C   UNL     1      -9.695   8.505  71.806  1.00  0.00    -0.267 A  
ENDROOT
BRANCH   8  22
HETATM   22  N   UNL     1      -9.250  10.483  66.444  1.00  0.00    -0.163 NA 
HETATM   23  C   UNL     1     -10.332  11.658  65.112  1.00  0.00    -0.279 A  
HETATM   24  C   UNL     1      -9.501   9.744  65.328  1.00  0.00    -0.279 A  
HETATM   25  N   UNL     1     -10.225  10.449  64.488  1.00  0.00    -0.302 NA 
HETATM   26  N   UNL     1      -9.709  11.739  66.293  1.00  0.00    -0.216 NA 
ENDBRANCH   8  22
TORSDOF 1
ENDMDL
MODEL       43
REMARK 921   NORMALIZED FREE ENERGY PREDICTED BY IDOCK:   -5.47 KCAL/MOL
REMARK 922        TOTAL FREE ENERGY PREDICTED BY IDOCK:   -5.39 KCAL/MOL
REMARK 923 INTER-LIGAND FREE ENERGY PREDICTED BY IDOCK:   -5.63 KCAL/MOL
REMARK 924 INTRA-LIGAND FREE ENERGY PREDICTED BY IDOCK:    0.25 KCAL/MOL
REMARK 927      BINDING AFFINITY PREDICTED BY RF-SCORE:    0.00 PKD
ROOT
HETATM    1  C   UNL     1      -9.004  13.762  66.831  1.00  0.00    -0.234 C  
HETATM    2  C   UNL     1     -10.035  12.703  66.406  1.00  0.00    -0.262 C  
HETATM    3  C   UNL     1     -11.110  12.235  67.482  1.00  0.00    -0.275 C  
HETATM    4  C   UNL     1      -9.324  11.539  65.716  1.00  0.00    -0.221 A  
HETATM    5  O   UNL     1     -12.098  11.533  66.664  1.00  0.00    -0.297 OA 
HETATM    6  N   UNL     1      -8.068  11.226  66.130  1.00  0.00    -0.115 NA 
HETATM    7  C   UNL     1     -10.691  11.278  68.616  1.00  0.00    -0.241 A  
HETATM    8  C   UNL     1     -11.929  13.440  68.055  1.00  0.00    -0.322 C  
HETATM    9  C   UNL     1      -9.361  11.059  69.001  1.00  0.00    -0.105 A  
HETATM   10  C   UNL     1     -11.674  10.599  69.369  1.00  0.00    -0.273 A  
HETATM   11  C   UNL     1      -7.463  10.191  65.523  1.00  0.00    -0.146 A  
HETATM   12  H   UNL     1     -12.740  11.253  67.307  1.00  0.00     0.000 HD 
HETATM   13  F   UNL     1     -11.144  11.154  64.216  1.00  0.00    -0.417 F  
HETATM   14  C   UNL     1     -11.371   9.768  70.443  1.00  0.00    -0.362 A  
HETATM   15  F   UNL     1     -12.967  10.752  69.046  1.00  0.00     0.091 F  
HETATM   16  N   UNL     1      -7.992   9.427  64.560  1.00  0.00    -0.119 NA 
HETATM   17  C   UNL     1     -10.046   9.584  70.788  1.00  0.00    -0.282 A  
HETATM   18  C   UNL     1      -9.038  10.212  70.071  1.00  0.00    -0.031 A  
HETATM   19  C   UNL     1      -9.235   9.775  64.166  1.00  0.00    -0.224 A  
HETATM   20  F   UNL     1      -9.731   8.799  71.825  1.00  0.00    -0.276 F  
HETATM   21  C   UNL     1      -9.937  10.833  64.696  1.00  0.00    -0.324 A  
ENDROOT
BRANCH   8  22
HETATM   22  N   UNL     1     -11.327  14.227  69.102  1.00  0.00    -0.262 NA 
HETATM   23  C   UNL     1     -10.196  15.713  70.017  1.00  0.00    -0.267 A  
HETATM   24  C   UNL     1     -11.655  14.261  70.423  1.00  0.00    -0.200 A  
HETATM   25  N   UNL     1     -10.919  15.162  71.035  1.00  0.00    -0.243 NA 
HETATM   26  N   UNL     1     -10.448  15.202  68.807  1.00  0.00    -0.227 NA 
ENDBRANCH   8  22
TORSDOF 1
ENDMDL
MODEL       44
REMARK 921   NORMALIZED FREE ENERGY PREDICTED BY IDOCK:   -5.40 KCAL/MOL
REMARK 922        TOTAL FREE ENERGY PREDICTED BY IDOCK:   -5.31 KCAL/MOL
REMARK 923 INTER-LIGAND FREE ENERGY PREDICTED BY IDOCK:   -5.31 KCAL/MOL
REMARK 924 INTRA-LIGAND FREE ENERGY PREDICTED BY IDOCK:    0.00 KCAL/MOL
REMARK 927      BINDING AFFINITY PREDICTED BY RF-SCORE:    0.00 PKD
ROOT
HETATM    1  C   UNL     1      -6.605  16.382  67.570  1.00  0.00    -0.184 C  
HETATM    2  C   UNL     1      -7.157  15.030  67.087  1.00  0.00     0.010 C  
HETATM    3  C   UNL     1      -8.705  14.942  66.729  1.00  0.00    -0.246 C  
HETATM    4  C   UNL     1      -6.689  13.918  68.026  1.00  0.00    -0.144 A  
HETATM    5  O   UNL     1      -8.794  13.677  66.000  1.00  0.00    -0.348 OA 
HETATM    6  N   UNL     1      -6.521  14.224  69.340  1.00  0.00    -0.118 NA 
HETATM    7  C   UNL     1      -9.751  14.892  67.862  1.00  0.00    -0.206 A  
HETATM    8  C   UNL     1      -9.117  15.995  65.647  1.00  0.00     0.045 C  
HETATM    9  C   UNL     1      -9.489  15.277  69.184  1.00  0.00    -0.236 A  
HETATM   10  C   UNL     1     -11.075  14.486  67.585  1.00  0.00    -0.304 A  
HETATM   11  C   UNL     1      -6.123  13.231  70.154  1.00  0.00    -0.107 A  
HETATM   12  H   UNL     1      -9.718  13.625  65.786  1.00  0.00     0.000 HD 
HETATM   13  F   UNL     1      -6.526  12.322  66.256  1.00  0.00     0.218 F  
HETATM   14  C   UNL     1     -12.083  14.475  68.543  1.00  0.00    -0.257 A  
HETATM   15  F   UNL     1     -11.392  14.090  66.343  1.00  0.00    -0.306 F  
HETATM   16  N   UNL     1      -5.897  11.963  69.793  1.00  0.00    -0.105 NA 
HETATM   17  C   UNL     1     -11.779  14.866  69.833  1.00  0.00    -0.305 A  
HETATM   18  C   UNL     1     -10.490  15.255  70.164  1.00  0.00    -0.252 A  
HETATM   19  C   UNL     1      -6.062  11.699  68.480  1.00  0.00    -0.050 A  
HETATM   20  F   UNL     1     -12.735  14.873  70.769  1.00  0.00    -0.330 F  
HETATM   21  C   UNL     1      -6.437  12.643  67.552  1.00  0.00    -0.158 A  
ENDROOT
BRANCH   8  22
HETATM   22  N   UNL     1      -9.367  17.346  66.082  1.00  0.00    -0.464 NA 
HETATM   23  C   UNL     1      -9.071  19.383  66.380  1.00  0.00    -0.360 A  
HETATM   24  C   UNL     1     -10.542  17.892  66.500  1.00  0.00    -0.235 A  
HETATM   25  N   UNL     1     -10.371  19.172  66.741  1.00  0.00    -0.390 NA 
HETATM   26  N   UNL     1      -8.431  18.301  65.926  1.00  0.00    -0.482 NA 
ENDBRANCH   8  22
TORSDOF 1
ENDMDL
MODEL       45
REMARK 921   NORMALIZED FREE ENERGY PREDICTED BY IDOCK:   -5.35 KCAL/MOL
REMARK 922        TOTAL FREE ENERGY PREDICTED BY IDOCK:   -5.26 KCAL/MOL
REMARK 923 INTER-LIGAND FREE ENERGY PREDICTED BY IDOCK:   -5.25 KCAL/MOL
REMARK 924 INTRA-LIGAND FREE ENERGY PREDICTED BY IDOCK:   -0.01 KCAL/MOL
REMARK 927      BINDING AFFINITY PREDICTED BY RF-SCORE:    0.00 PKD
ROOT
HETATM    1  C   UNL     1      -9.742   9.859  66.423  1.00  0.00    -0.270 C  
HETATM    2  C   UNL     1      -9.012  10.683  67.497  1.00  0.00    -0.136 C  
HETATM    3  C   UNL     1      -8.471   9.919  68.783  1.00  0.00    -0.122 C  
HETATM    4  C   UNL     1      -9.831  11.930  67.834  1.00  0.00    -0.190 A  
HETATM    5  O   UNL     1      -7.563  10.898  69.380  1.00  0.00    -0.218 OA 
HETATM    6  N   UNL     1     -11.185  11.840  67.762  1.00  0.00    -0.245 NA 
HETATM    7  C   UNL     1      -9.457   9.479  69.884  1.00  0.00    -0.247 A  
HETATM    8  C   UNL     1      -7.509   8.743  68.405  1.00  0.00    -0.091 C  
HETATM    9  C   UNL     1     -10.842   9.371  69.694  1.00  0.00    -0.245 A  
HETATM   10  C   UNL     1      -8.977   9.106  71.158  1.00  0.00    -0.179 A  
HETATM   11  C   UNL     1     -11.890  12.941  68.075  1.00  0.00    -0.343 A  
HETATM   12  H   UNL     1      -7.240  10.442  70.148  1.00  0.00     0.000 HD 
HETATM   13  F   UNL     1      -7.882  13.259  68.209  1.00  0.00    -0.112 F  
HETATM   14  C   UNL     1      -9.802   8.643  72.178  1.00  0.00    -0.387 A  
HETATM   15  F   UNL     1      -7.662   9.199  71.414  1.00  0.00    -0.147 F  
HETATM   16  N   UNL     1     -11.380  14.113  68.472  1.00  0.00    -0.266 NA 
HETATM   17  C   UNL     1     -11.160   8.551  71.943  1.00  0.00    -0.325 A  
HETATM   18  C   UNL     1     -11.689   8.921  70.716  1.00  0.00    -0.269 A  
HETATM   19  C   UNL     1     -10.032  14.168  68.520  1.00  0.00    -0.235 A  
HETATM   20  F   UNL     1     -11.972   8.097  72.905  1.00  0.00    -0.434 F  
HETATM   21  C   UNL     1      -9.212  13.113  68.193  1.00  0.00    -0.215 A  
ENDROOT
BRANCH   8  22
HETATM   22  N   UNL     1      -8.101   7.493  67.998  1.00  0.00    -0.122 NA 
HETATM   23  C   UNL     1      -8.582   5.865  66.797  1.00  0.00    -0.113 A  
HETATM   24  C   UNL     1      -8.668   6.536  68.783  1.00  0.00    -0.123 A  
HETATM   25  N   UNL     1      -9.025   5.513  68.040  1.00  0.00    -0.108 NA 
HETATM   26  N   UNL     1      -7.968   7.051  66.734  1.00  0.00    -0.106 NA 
ENDBRANCH   8  22
TORSDOF 1
ENDMDL
MODEL       46
REMARK 921   NORMALIZED FREE ENERGY PREDICTED BY IDOCK:   -5.31 KCAL/MOL
REMARK 922        TOTAL FREE ENERGY PREDICTED BY IDOCK:   -5.21 KCAL/MOL
REMARK 923 INTER-LIGAND FREE ENERGY PREDICTED BY IDOCK:   -5.19 KCAL/MOL
REMARK 924 INTRA-LIGAND FREE ENERGY PREDICTED BY IDOCK:   -0.02 KCAL/MOL
REMARK 927      BINDING AFFINITY PREDICTED BY RF-SCORE:    0.00 PKD
ROOT
HETATM    1  C   UNL     1      -6.708  10.206  66.032  1.00  0.00    -0.106 C  
HETATM    2  C   UNL     1      -7.622   9.772  67.190  1.00  0.00    -0.092 C  
HETATM    3  C   UNL     1      -9.176  10.089  67.073  1.00  0.00    -0.146 C  
HETATM    4  C   UNL     1      -7.012  10.214  68.521  1.00  0.00    -0.069 A  
HETATM    5  O   UNL     1      -9.754   9.255  68.126  1.00  0.00    -0.145 OA 
HETATM    6  N   UNL     1      -6.291  11.366  68.537  1.00  0.00    -0.046 NA 
HETATM    7  C   UNL     1      -9.682  11.528  67.299  1.00  0.00    -0.197 A  
HETATM    8  C   UNL     1      -9.801   9.485  65.772  1.00  0.00    -0.293 C  
HETATM    9  C   UNL     1      -8.860  12.662  67.248  1.00  0.00    -0.196 A  
HETATM   10  C   UNL     1     -11.055  11.769  67.526  1.00  0.00    -0.272 A  
HETATM   11  C   UNL     1      -5.774  11.749  69.718  1.00  0.00    -0.102 A  
HETATM   12  H   UNL     1     -10.683   9.445  68.056  1.00  0.00     0.000 HD 
HETATM   13  F   UNL     1      -7.828   8.290  69.677  1.00  0.00    -0.092 F  
HETATM   14  C   UNL     1     -11.590  13.044  67.679  1.00  0.00    -0.403 A  
HETATM   15  F   UNL     1     -11.898  10.727  67.602  1.00  0.00    -0.321 F  
HETATM   16  N   UNL     1      -5.922  11.108  70.884  1.00  0.00    -0.361 NA 
HETATM   17  C   UNL     1     -10.742  14.132  67.618  1.00  0.00    -0.257 A  
HETATM   18  C   UNL     1      -9.381  13.953  67.416  1.00  0.00    -0.228 A  
HETATM   19  C   UNL     1      -6.634   9.963  70.827  1.00  0.00    -0.066 A  
HETATM   20  F   UNL     1     -11.235  15.368  67.750  1.00  0.00    -0.294 F  
HETATM   21  C   UNL     1      -7.183   9.462  69.669  1.00  0.00    -0.067 A  
ENDROOT
BRANCH   8  22
HETATM   22  N   UNL     1      -9.632  10.216  64.541  1.00  0.00    -0.303 NA 
HETATM   23  C   UNL     1      -8.976  10.671  62.620  1.00  0.00    -0.284 A  
HETATM   24  C   UNL     1     -10.366  11.264  64.076  1.00  0.00    -0.371 A  
HETATM   25  N   UNL     1      -9.940  11.603  62.880  1.00  0.00    -0.275 NA 
HETATM   26  N   UNL     1      -8.786   9.772  63.592  1.00  0.00    -0.204 NA 
ENDBRANCH   8  22
TORSDOF 1
ENDMDL
MODEL       47
REMARK 921   NORMALIZED FREE ENERGY PREDICTED BY IDOCK:   -5.30 KCAL/MOL
REMARK 922        TOTAL FREE ENERGY PREDICTED BY IDOCK:   -5.21 KCAL/MOL
REMARK 923 INTER-LIGAND FREE ENERGY PREDICTED BY IDOCK:   -5.20 KCAL/MOL
REMARK 924 INTRA-LIGAND FREE ENERGY PREDICTED BY IDOCK:   -0.01 KCAL/MOL
REMARK 927      BINDING AFFINITY PREDICTED BY RF-SCORE:    0.00 PKD
ROOT
HETATM    1  C   UNL     1     -11.772  10.747  69.163  1.00  0.00    -0.368 C  
HETATM    2  C   UNL     1     -10.290  10.475  69.474  1.00  0.00    -0.251 C  
HETATM    3  C   UNL     1      -9.196  11.135  68.526  1.00  0.00    -0.183 C  
HETATM    4  C   UNL     1     -10.077   8.977  69.693  1.00  0.00    -0.197 A  
HETATM    5  O   UNL     1      -7.963  10.970  69.296  1.00  0.00    -0.298 OA 
HETATM    6  N   UNL     1     -10.857   8.115  68.990  1.00  0.00    -0.069 NA 
HETATM    7  C   UNL     1      -8.943  10.546  67.124  1.00  0.00    -0.147 A  
HETATM    8  C   UNL     1      -9.349  12.691  68.449  1.00  0.00    -0.148 C  
HETATM    9  C   UNL     1      -9.839   9.697  66.460  1.00  0.00    -0.298 A  
HETATM   10  C   UNL     1      -7.775  10.894  66.409  1.00  0.00    -0.154 A  
HETATM   11  C   UNL     1     -10.647   6.801  69.184  1.00  0.00    -0.232 A  
HETATM   12  H   UNL     1      -7.310  11.364  68.729  1.00  0.00     0.000 HD 
HETATM   13  F   UNL     1      -8.385   9.333  71.342  1.00  0.00    -0.201 F  
HETATM   14  C   UNL     1      -7.511  10.449  65.118  1.00  0.00    -0.093 A  
HETATM   15  F   UNL     1      -6.866  11.692  66.991  1.00  0.00    -0.107 F  
HETATM   16  N   UNL     1      -9.724   6.265  69.991  1.00  0.00    -0.167 NA 
HETATM   17  C   UNL     1      -8.425   9.616  64.503  1.00  0.00    -0.178 A  
HETATM   18  C   UNL     1      -9.580   9.226  65.165  1.00  0.00    -0.103 A  
HETATM   19  C   UNL     1      -8.976   7.151  70.681  1.00  0.00    -0.154 A  
HETATM   20  F   UNL     1      -8.198   9.183  63.257  1.00  0.00    -0.139 F  
HETATM   21  C   UNL     1      -9.125   8.516  70.584  1.00  0.00    -0.160 A  
ENDROOT
BRANCH   8  22
HETATM   22  N   UNL     1     -10.344  13.227  67.555  1.00  0.00    -0.228 NA 
HETATM   23  C   UNL     1     -12.098  14.146  66.917  1.00  0.00    -0.432 A  
HETATM   24  C   UNL     1     -10.217  13.519  66.231  1.00  0.00    -0.299 A  
HETATM   25  N   UNL     1     -11.331  14.059  65.790  1.00  0.00    -0.307 NA 
HETATM   26  N   UNL     1     -11.515  13.690  68.031  1.00  0.00    -0.291 NA 
ENDBRANCH   8  22
TORSDOF 1
ENDMDL
MODEL       48
REMARK 921   NORMALIZED FREE ENERGY PREDICTED BY IDOCK:   -5.27 KCAL/MOL
REMARK 922        TOTAL FREE ENERGY PREDICTED BY IDOCK:   -5.18 KCAL/MOL
REMARK 923 INTER-LIGAND FREE ENERGY PREDICTED BY IDOCK:   -5.17 KCAL/MOL
REMARK 924 INTRA-LIGAND FREE ENERGY PREDICTED BY IDOCK:   -0.01 KCAL/MOL
REMARK 927      BINDING AFFINITY PREDICTED BY RF-SCORE:    0.00 PKD
ROOT
HETATM    1  C   UNL     1     -11.840  11.584  67.597  1.00  0.00    -0.194 C  
HETATM    2  C   UNL     1     -10.375  11.841  67.203  1.00  0.00    -0.242 C  
HETATM    3  C   UNL     1      -9.732  13.242  67.596  1.00  0.00    -0.219 C  
HETATM    4  C   UNL     1     -10.164  11.468  65.735  1.00  0.00    -0.249 A  
HETATM    5  O   UNL     1      -8.303  13.005  67.399  1.00  0.00    -0.175 OA 
HETATM    6  N   UNL     1     -11.204  11.645  64.878  1.00  0.00    -0.262 NA 
HETATM    7  C   UNL     1     -10.102  14.506  66.793  1.00  0.00    -0.264 A  
HETATM    8  C   UNL     1      -9.828  13.520  69.133  1.00  0.00     0.332 C  
HETATM    9  C   UNL     1     -11.231  14.604  65.968  1.00  0.00    -0.342 A  
HETATM   10  C   UNL     1      -9.312  15.671  66.903  1.00  0.00    -0.234 A  
HETATM   11  C   UNL     1     -10.997  11.326  63.589  1.00  0.00    -0.287 A  
HETATM   12  H   UNL     1      -7.919  13.842  67.634  1.00  0.00     0.000 HD 
HETATM   13  F   UNL     1      -7.932  10.709  66.120  1.00  0.00    -0.128 F  
HETATM   14  C   UNL     1      -9.620  16.863  66.256  1.00  0.00    -0.300 A  
HETATM   15  F   UNL     1      -8.208  15.643  67.665  1.00  0.00    -0.135 F  
HETATM   16  N   UNL     1      -9.852  10.869  63.068  1.00  0.00    -0.333 NA 
HETATM   17  C   UNL     1     -10.744  16.914  65.455  1.00  0.00    -0.163 A  
HETATM   18  C   UNL     1     -11.546  15.793  65.296  1.00  0.00     0.150 A  
HETATM   19  C   UNL     1      -8.846  10.695  63.950  1.00  0.00    -0.163 A  
HETATM   20  F   UNL     1     -11.066  18.053  64.832  1.00  0.00    -0.316 F  
HETATM   21  C   UNL     1      -8.955  10.960  65.296  1.00  0.00    -0.186 A  
ENDROOT
BRANCH   8  22
HETATM   22  N   UNL     1     -11.074  14.027  69.650  1.00  0.00    -0.162 NA 
HETATM   23  C   UNL     1     -12.891  14.068  70.663  1.00  0.00    -0.253 A  
HETATM   24  C   UNL     1     -11.482  15.323  69.745  1.00  0.00    -0.313 A  
HETATM   25  N   UNL     1     -12.652  15.374  70.340  1.00  0.00    -0.404 NA 
HETATM   26  N   UNL     1     -11.928  13.214  70.300  1.00  0.00    -0.325 NA 
ENDBRANCH   8  22
TORSDOF 1
ENDMDL
MODEL       49
REMARK 921   NORMALIZED FREE ENERGY PREDICTED BY IDOCK:   -5.21 KCAL/MOL
REMARK 922        TOTAL FREE ENERGY PREDICTED BY IDOCK:   -5.11 KCAL/MOL
REMARK 923 INTER-LIGAND FREE ENERGY PREDICTED BY IDOCK:   -5.49 KCAL/MOL
REMARK 924 INTRA-LIGAND FREE ENERGY PREDICTED BY IDOCK:    0.38 KCAL/MOL
REMARK 927      BINDING AFFINITY PREDICTED BY RF-SCORE:    0.00 PKD
ROOT
HETATM    1  C   UNL     1     -11.645  12.793  69.874  1.00  0.00    -0.243 C  
HETATM    2  C   UNL     1     -11.647  12.613  68.346  1.00  0.00    -0.370 C  
HETATM    3  C   UNL     1     -10.918  11.332  67.746  1.00  0.00    -0.252 C  
HETATM    4  C   UNL     1     -11.228  13.920  67.673  1.00  0.00    -0.295 A  
HETATM    5  O   UNL     1     -11.409  11.300  66.369  1.00  0.00    -0.279 OA 
HETATM    6  N   UNL     1     -10.337  14.713  68.325  1.00  0.00    -0.225 NA 
HETATM    7  C   UNL     1      -9.378  11.287  67.684  1.00  0.00    -0.162 A  
HETATM    8  C   UNL     1     -11.483  10.001  68.345  1.00  0.00     0.061 C  
HETATM    9  C   UNL     1      -8.541  12.123  68.438  1.00  0.00    -0.141 A  
HETATM   10  C   UNL     1      -8.729  10.332  66.872  1.00  0.00    -0.126 A  
HETATM   11  C   UNL     1      -9.967  15.851  67.712  1.00  0.00    -0.229 A  
HETATM   12  H   UNL     1     -10.973  10.535  66.010  1.00  0.00     0.000 HD 
HETATM   13  F   UNL     1     -12.673  13.565  65.804  1.00  0.00    -0.478 F  
HETATM   14  C   UNL     1      -7.346  10.195  66.813  1.00  0.00    -0.104 A  
HETATM   15  F   UNL     1      -9.469   9.509  66.112  1.00  0.00    -0.197 F  
HETATM   16  N   UNL     1     -10.382  16.265  66.509  1.00  0.00    -0.300 NA 
HETATM   17  C   UNL     1      -6.562  11.039  67.576  1.00  0.00    -0.068 A  
HETATM   18  C   UNL     1      -7.146  12.008  68.378  1.00  0.00    -0.084 A  
HETATM   19  C   UNL     1     -11.274  15.458  65.897  1.00  0.00    -0.179 A  
HETATM   20  F   UNL     1      -5.230  10.919  67.545  1.00  0.00    -0.037 F  
HETATM   21  C   UNL     1     -11.744  14.286  66.444  1.00  0.00    -0.391 A  
ENDROOT
BRANCH   8  22
HETATM   22  N   UNL     1     -10.997   9.584  69.637  1.00  0.00    -0.232 NA 
HETATM   23  C   UNL     1      -9.661   9.002  71.121  1.00  0.00    -0.286 A  
HETATM   24  C   UNL     1     -11.638   9.644  70.837  1.00  0.00    -0.344 A  
HETATM   25  N   UNL     1     -10.829   9.235  71.788  1.00  0.00    -0.354 NA 
HETATM   26  N   UNL     1      -9.705   9.248  69.807  1.00  0.00    -0.179 NA 
ENDBRANCH   8  22
TORSDOF 1
ENDMDL
MODEL       50
REMARK 921   NORMALIZED FREE ENERGY PREDICTED BY IDOCK:   -5.19 KCAL/MOL
REMARK 922        TOTAL FREE ENERGY PREDICTED BY IDOCK:   -5.08 KCAL/MOL
REMARK 923 INTER-LIGAND FREE ENERGY PREDICTED BY IDOCK:   -5.08 KCAL/MOL
REMARK 924 INTRA-LIGAND FREE ENERGY PREDICTED BY IDOCK:   -0.00 KCAL/MOL
REMARK 927      BINDING AFFINITY PREDICTED BY RF-SCORE:    0.00 PKD
ROOT
HETATM    1  C   UNL     1      -6.722  11.463  67.022  1.00  0.00    -0.131 C  
HETATM    2  C   UNL     1      -7.946  10.923  66.262  1.00  0.00    -0.161 C  
HETATM    3  C   UNL     1      -9.373  11.525  66.625  1.00  0.00    -0.189 C  
HETATM    4  C   UNL     1      -7.916   9.395  66.258  1.00  0.00    -0.111 A  
HETATM    5  O   UNL     1     -10.206  11.067  65.513  1.00  0.00    -0.248 OA 
HETATM    6  N   UNL     1      -7.376   8.767  67.336  1.00  0.00    -0.081 NA 
HETATM    7  C   UNL     1     -10.075  11.096  67.930  1.00  0.00    -0.195 A  
HETATM    8  C   UNL     1      -9.411  13.081  66.466  1.00  0.00    -0.245 C  
HETATM    9  C   UNL     1      -9.415  10.494  69.010  1.00  0.00    -0.211 A  
HETATM   10  C   UNL     1     -11.453  11.349  68.109  1.00  0.00    -0.305 A  
HETATM   11  C   UNL     1      -7.371   7.423  67.323  1.00  0.00    -0.098 A  
HETATM   12  H   UNL     1     -11.059  11.426  65.731  1.00  0.00     0.000 HD 
HETATM   13  F   UNL     1      -8.893   9.257  64.083  1.00  0.00    -0.206 F  
HETATM   14  C   UNL     1     -12.137  11.045  69.282  1.00  0.00    -0.363 A  
HETATM   15  F   UNL     1     -12.150  11.910  67.109  1.00  0.00    -0.322 F  
HETATM   16  N   UNL     1      -7.868   6.645  66.354  1.00  0.00    -0.102 NA 
HETATM   17  C   UNL     1     -11.444  10.455  70.321  1.00  0.00    -0.325 A  
HETATM   18  C   UNL     1     -10.093  10.166  70.192  1.00  0.00    -0.197 A  
HETATM   19  C   UNL     1      -8.385   7.303  65.295  1.00  0.00    -0.104 A  
HETATM   20  F   UNL     1     -12.078  10.163  71.463  1.00  0.00    -0.412 F  
HETATM   21  C   UNL     1      -8.416   8.675  65.189  1.00  0.00    -0.179 A  
ENDROOT
BRANCH   8  22
HETATM   22  N   UNL     1      -8.880  13.881  67.542  1.00  0.00    -0.185 NA 
HETATM   23  C   UNL     1      -7.581  15.126  68.586  1.00  0.00    -0.127 A  
HETATM   24  C   UNL     1      -9.528  14.347  68.645  1.00  0.00    -0.193 A  
HETATM   25  N   UNL     1      -8.713  15.100  69.349  1.00  0.00    -0.206 NA 
HETATM   26  N   UNL     1      -7.654  14.430  67.446  1.00  0.00    -0.188 NA 
ENDBRANCH   8  22
TORSDOF 1
ENDMDL
MODEL       51
REMARK 921   NORMALIZED FREE ENERGY PREDICTED BY IDOCK:   -5.17 KCAL/MOL
REMARK 922        TOTAL FREE ENERGY PREDICTED BY IDOCK:   -5.07 KCAL/MOL
REMARK 923 INTER-LIGAND FREE ENERGY PREDICTED BY IDOCK:   -5.06 KCAL/MOL
REMARK 924 INTRA-LIGAND FREE ENERGY PREDICTED BY IDOCK:   -0.01 KCAL/MOL
REMARK 927      BINDING AFFINITY PREDICTED BY RF-SCORE:    0.00 PKD
ROOT
HETATM    1  C   UNL     1      -9.102  11.368  68.944  1.00  0.00    -0.022 C  
HETATM    2  C   UNL     1      -9.478   9.961  68.448  1.00  0.00    -0.142 C  
HETATM    3  C   UNL     1     -10.716   9.236  69.134  1.00  0.00    -0.183 C  
HETATM    4  C   UNL     1      -8.225   9.087  68.381  1.00  0.00    -0.116 A  
HETATM    5  O   UNL     1     -10.992   8.133  68.213  1.00  0.00    -0.438 OA 
HETATM    6  N   UNL     1      -7.242   9.314  69.292  1.00  0.00    -0.064 NA 
HETATM    7  C   UNL     1     -10.563   8.628  70.543  1.00  0.00    -0.248 A  
HETATM    8  C   UNL     1     -12.022  10.095  69.045  1.00  0.00     0.314 C  
HETATM    9  C   UNL     1      -9.533   8.966  71.431  1.00  0.00    -0.344 A  
HETATM   10  C   UNL     1     -11.520   7.709  71.026  1.00  0.00    -0.276 A  
HETATM   11  C   UNL     1      -6.154   8.527  69.228  1.00  0.00    -0.042 A  
HETATM   12  H   UNL     1     -11.732   7.700  68.623  1.00  0.00     0.000 HD 
HETATM   13  F   UNL     1      -9.009   7.895  66.465  1.00  0.00    -0.132 F  
HETATM   14  C   UNL     1     -11.478   7.168  72.306  1.00  0.00    -0.309 A  
HETATM   15  F   UNL     1     -12.526   7.330  70.222  1.00  0.00    -0.115 F  
HETATM   16  N   UNL     1      -5.959   7.526  68.362  1.00  0.00    -0.030 NA 
HETATM   17  C   UNL     1     -10.445   7.533  73.148  1.00  0.00    -0.364 A  
HETATM   18  C   UNL     1      -9.467   8.417  72.719  1.00  0.00    -0.312 A  
HETATM   19  C   UNL     1      -6.950   7.338  67.465  1.00  0.00    -0.075 A  
HETATM   20  F   UNL     1     -10.390   7.033  74.388  1.00  0.00    -0.371 F  
HETATM   21  C   UNL     1      -8.094   8.102  67.419  1.00  0.00    -0.122 A  
ENDROOT
BRANCH   8  22
HETATM   22  N   UNL     1     -12.199  11.153  70.008  1.00  0.00    -0.326 NA 
HETATM   23  C   UNL     1     -12.330  13.077  70.787  1.00  0.00    -0.310 A  
HETATM   24  C   UNL     1     -12.737  11.073  71.257  1.00  0.00    -0.432 A  
HETATM   25  N   UNL     1     -12.787  12.272  71.791  1.00  0.00    -0.302 NA 
HETATM   26  N   UNL     1     -12.001  12.438  69.659  1.00  0.00    -0.298 NA 
ENDBRANCH   8  22
TORSDOF 1
ENDMDL
MODEL       52
REMARK 921   NORMALIZED FREE ENERGY PREDICTED BY IDOCK:   -5.16 KCAL/MOL
REMARK 922        TOTAL FREE ENERGY PREDICTED BY IDOCK:   -5.06 KCAL/MOL
REMARK 923 INTER-LIGAND FREE ENERGY PREDICTED BY IDOCK:   -5.52 KCAL/MOL
REMARK 924 INTRA-LIGAND FREE ENERGY PREDICTED BY IDOCK:    0.46 KCAL/MOL
REMARK 927      BINDING AFFINITY PREDICTED BY RF-SCORE:    0.00 PKD
ROOT
HETATM    1  C   UNL     1      -7.813   9.719  70.141  1.00  0.00    -0.196 C  
HETATM    2  C   UNL     1      -8.095   8.221  70.347  1.00  0.00    -0.108 C  
HETATM    3  C   UNL     1      -9.514   7.660  69.896  1.00  0.00    -0.160 C  
HETATM    4  C   UNL     1      -7.708   7.816  71.770  1.00  0.00    -0.089 A  
HETATM    5  O   UNL     1      -9.304   6.213  69.904  1.00  0.00    -0.147 OA 
HETATM    6  N   UNL     1      -7.853   8.740  72.755  1.00  0.00    -0.378 NA 
HETATM    7  C   UNL     1     -10.760   7.947  70.759  1.00  0.00    -0.230 A  
HETATM    8  C   UNL     1      -9.809   7.958  68.388  1.00  0.00    -0.173 C  
HETATM    9  C   UNL     1     -10.824   8.963  71.723  1.00  0.00    -0.436 A  
HETATM   10  C   UNL     1     -11.942   7.200  70.566  1.00  0.00    -0.214 A  
HETATM   11  C   UNL     1      -7.522   8.363  74.003  1.00  0.00    -0.138 A  
HETATM   12  H   UNL     1     -10.152   5.878  69.635  1.00  0.00     0.000 HD 
HETATM   13  F   UNL     1      -7.000   5.638  71.089  1.00  0.00    -0.056 F  
HETATM   14  C   UNL     1     -13.120   7.444  71.265  1.00  0.00    -0.349 A  
HETATM   15  F   UNL     1     -11.946   6.203  69.668  1.00  0.00    -0.427 F  
HETATM   16  N   UNL     1      -7.083   7.152  74.365  1.00  0.00    -0.099 NA 
HETATM   17  C   UNL     1     -13.137   8.457  72.204  1.00  0.00    -0.328 A  
HETATM   18  C   UNL     1     -11.999   9.210  72.447  1.00  0.00    -0.169 A  
HETATM   19  C   UNL     1      -6.940   6.264  73.359  1.00  0.00    -0.079 A  
HETATM   20  F   UNL     1     -14.262   8.718  72.881  1.00  0.00    -0.443 F  
HETATM   21  C   UNL     1      -7.219   6.551  72.042  1.00  0.00    -0.086 A  
ENDROOT
BRANCH   8  22
HETATM   22  N   UNL     1     -10.297   9.270  68.043  1.00  0.00    -0.210 NA 
HETATM   23  C   UNL     1     -10.650  10.984  66.919  1.00  0.00    -0.258 A  
HETATM   24  C   UNL     1     -11.258  10.002  68.671  1.00  0.00    -0.121 A  
HETATM   25  N   UNL     1     -11.467  11.116  68.005  1.00  0.00    -0.423 NA 
HETATM   26  N   UNL     1      -9.948   9.847  66.878  1.00  0.00    -0.201 NA 
ENDBRANCH   8  22
TORSDOF 1
ENDMDL
MODEL       53
REMARK 921   NORMALIZED FREE ENERGY PREDICTED BY IDOCK:   -5.15 KCAL/MOL
REMARK 922        TOTAL FREE ENERGY PREDICTED BY IDOCK:   -5.05 KCAL/MOL
REMARK 923 INTER-LIGAND FREE ENERGY PREDICTED BY IDOCK:   -5.03 KCAL/MOL
REMARK 924 INTRA-LIGAND FREE ENERGY PREDICTED BY IDOCK:   -0.01 KCAL/MOL
REMARK 927      BINDING AFFINITY PREDICTED BY RF-SCORE:    0.00 PKD
ROOT
HETATM    1  C   UNL     1     -10.271   9.064  71.219  1.00  0.00    -0.384 C  
HETATM    2  C   UNL     1     -10.549   8.960  69.710  1.00  0.00    -0.230 C  
HETATM    3  C   UNL     1     -10.526   7.514  69.046  1.00  0.00    -0.208 C  
HETATM    4  C   UNL     1      -9.699   9.985  68.958  1.00  0.00    -0.199 A  
HETATM    5  O   UNL     1     -11.157   7.747  67.747  1.00  0.00    -0.491 OA 
HETATM    6  N   UNL     1      -8.478  10.293  69.467  1.00  0.00    -0.164 NA 
HETATM    7  C   UNL     1      -9.177   6.815  68.781  1.00  0.00    -0.130 A  
HETATM    8  C   UNL     1     -11.526   6.532  69.744  1.00  0.00    -0.379 C  
HETATM    9  C   UNL     1      -7.973   7.182  69.397  1.00  0.00    -0.125 A  
HETATM   10  C   UNL     1      -9.114   5.705  67.910  1.00  0.00    -0.107 A  
HETATM   11  C   UNL     1      -7.738  11.185  68.786  1.00  0.00    -0.136 A  
HETATM   12  H   UNL     1     -11.144   6.884  67.351  1.00  0.00     0.000 HD 
HETATM   13  F   UNL     1     -11.385  10.355  67.306  1.00  0.00    -0.353 F  
HETATM   14  C   UNL     1      -7.945   4.990  67.671  1.00  0.00    -0.095 A  
HETATM   15  F   UNL     1     -10.228   5.308  67.274  1.00  0.00    -0.168 F  
HETATM   16  N   UNL     1      -8.086  11.782  67.639  1.00  0.00    -0.136 NA 
HETATM   17  C   UNL     1      -6.783   5.387  68.303  1.00  0.00    -0.054 A  
HETATM   18  C   UNL     1      -6.783   6.482  69.154  1.00  0.00    -0.049 A  
HETATM   19  C   UNL     1      -9.309  11.459  67.170  1.00  0.00    -0.172 A  
HETATM   20  F   UNL     1      -5.648   4.708  68.097  1.00  0.00    -0.013 F  
HETATM   21  C   UNL     1     -10.163  10.583  67.800  1.00  0.00    -0.190 A  
ENDROOT
BRANCH   8  22
HETATM   22  N   UNL     1     -11.103   5.899  70.969  1.00  0.00    -0.273 NA 
HETATM   23  C   UNL     1     -11.076   5.372  72.980  1.00  0.00    -0.313 A  
HETATM   24  C   UNL     1     -10.260   4.841  71.122  1.00  0.00    -0.158 A  
HETATM   25  N   UNL     1     -10.188   4.517  72.393  1.00  0.00    -0.186 NA 
HETATM   26  N   UNL     1     -11.695   6.207  72.138  1.00  0.00    -0.319 NA 
ENDBRANCH   8  22
TORSDOF 1
ENDMDL
MODEL       54
REMARK 921   NORMALIZED FREE ENERGY PREDICTED BY IDOCK:   -5.10 KCAL/MOL
REMARK 922        TOTAL FREE ENERGY PREDICTED BY IDOCK:   -4.99 KCAL/MOL
REMARK 923 INTER-LIGAND FREE ENERGY PREDICTED BY IDOCK:   -4.97 KCAL/MOL
REMARK 924 INTRA-LIGAND FREE ENERGY PREDICTED BY IDOCK:   -0.02 KCAL/MOL
REMARK 927      BINDING AFFINITY PREDICTED BY RF-SCORE:    0.00 PKD
ROOT
HETATM    1  C   UNL     1     -10.167  12.792  69.024  1.00  0.00     0.104 C  
HETATM    2  C   UNL     1     -10.625  12.801  67.555  1.00  0.00    -0.240 C  
HETATM    3  C   UNL     1     -10.446  11.465  66.710  1.00  0.00    -0.244 C  
HETATM    4  C   UNL     1     -10.074  14.041  66.852  1.00  0.00    -0.259 A  
HETATM    5  O   UNL     1     -11.279  11.715  65.534  1.00  0.00    -0.285 OA 
HETATM    6  N   UNL     1      -8.866  14.515  67.254  1.00  0.00    -0.197 NA 
HETATM    7  C   UNL     1      -9.047  11.062  66.203  1.00  0.00    -0.208 A  
HETATM    8  C   UNL     1     -11.159  10.245  67.384  1.00  0.00    -0.189 C  
HETATM    9  C   UNL     1      -7.851  11.578  66.721  1.00  0.00    -0.146 A  
HETATM   10  C   UNL     1      -8.914  10.084  65.194  1.00  0.00    -0.192 A  
HETATM   11  C   UNL     1      -8.389  15.598  66.615  1.00  0.00    -0.275 A  
HETATM   12  H   UNL     1     -11.172  10.917  65.030  1.00  0.00     0.000 HD 
HETATM   13  F   UNL     1     -12.008  14.267  65.466  1.00  0.00    -0.345 F  
HETATM   14  C   UNL     1      -7.683   9.629  64.731  1.00  0.00    -0.122 A  
HETATM   15  F   UNL     1     -10.019   9.558  64.643  1.00  0.00    -0.245 F  
HETATM   16  N   UNL     1      -8.987  16.239  65.603  1.00  0.00    -0.352 NA 
HETATM   17  C   UNL     1      -6.531  10.165  65.273  1.00  0.00    -0.119 A  
HETATM   18  C   UNL     1      -6.603  11.142  66.254  1.00  0.00    -0.069 A  
HETATM   19  C   UNL     1     -10.189  15.746  65.239  1.00  0.00    -0.289 A  
HETATM   20  F   UNL     1      -5.336   9.735  64.851  1.00  0.00    -0.048 F  
HETATM   21  C   UNL     1     -10.787  14.664  65.843  1.00  0.00    -0.312 A  
ENDROOT
BRANCH   8  22
HETATM   22  N   UNL     1     -10.472   9.573  68.459  1.00  0.00    -0.211 NA 
HETATM   23  C   UNL     1     -10.073   8.862  70.372  1.00  0.00    -0.196 A  
HETATM   24  C   UNL     1      -9.465   8.660  68.374  1.00  0.00    -0.138 A  
HETATM   25  N   UNL     1      -9.160   8.229  69.577  1.00  0.00    -0.153 NA 
HETATM   26  N   UNL     1     -10.927   9.660  69.723  1.00  0.00    -0.240 NA 
ENDBRANCH   8  22
TORSDOF 1
ENDMDL
MODEL       55
REMARK 921   NORMALIZED FREE ENERGY PREDICTED BY IDOCK:   -5.03 KCAL/MOL
REMARK 922        TOTAL FREE ENERGY PREDICTED BY IDOCK:   -4.92 KCAL/MOL
REMARK 923 INTER-LIGAND FREE ENERGY PREDICTED BY IDOCK:   -4.90 KCAL/MOL
REMARK 924 INTRA-LIGAND FREE ENERGY PREDICTED BY IDOCK:   -0.02 KCAL/MOL
REMARK 927      BINDING AFFINITY PREDICTED BY RF-SCORE:    0.00 PKD
ROOT
HETATM    1  C   UNL     1      -6.772   8.508  68.059  1.00  0.00    -0.065 C  
HETATM    2  C   UNL     1      -8.041   8.163  67.262  1.00  0.00    -0.121 C  
HETATM    3  C   UNL     1      -9.006   9.357  66.843  1.00  0.00    -0.131 C  
HETATM    4  C   UNL     1      -8.772   7.002  67.936  1.00  0.00    -0.125 A  
HETATM    5  O   UNL     1      -9.870   8.734  65.840  1.00  0.00    -0.432 OA 
HETATM    6  N   UNL     1      -8.697   6.903  69.289  1.00  0.00    -0.135 NA 
HETATM    7  C   UNL     1      -9.923  10.006  67.899  1.00  0.00    -0.183 A  
HETATM    8  C   UNL     1      -8.255  10.455  66.018  1.00  0.00    -0.144 C  
HETATM    9  C   UNL     1      -9.731   9.882  69.282  1.00  0.00    -0.218 A  
HETATM   10  C   UNL     1     -11.003  10.820  67.494  1.00  0.00    -0.312 A  
HETATM   11  C   UNL     1      -9.358   5.885  69.867  1.00  0.00    -0.150 A  
HETATM   12  H   UNL     1     -10.446   9.448  65.591  1.00  0.00     0.000 HD 
HETATM   13  F   UNL     1      -9.522   6.103  65.853  1.00  0.00    -0.167 F  
HETATM   14  C   UNL     1     -11.834  11.484  68.391  1.00  0.00    -0.353 A  
HETATM   15  F   UNL     1     -11.254  10.971  66.185  1.00  0.00    -0.276 F  
HETATM   16  N   UNL     1     -10.101   4.970  69.232  1.00  0.00    -0.212 NA 
HETATM   17  C   UNL     1     -11.605  11.335  69.745  1.00  0.00    -0.333 A  
HETATM   18  C   UNL     1     -10.570  10.531  70.199  1.00  0.00    -0.163 A  
HETATM   19  C   UNL     1     -10.142   5.093  67.888  1.00  0.00    -0.137 A  
HETATM   20  F   UNL     1     -12.384  11.973  70.626  1.00  0.00    -0.403 F  
HETATM   21  C   UNL     1      -9.481   6.077  67.190  1.00  0.00    -0.118 A  
ENDROOT
BRANCH   8  22
HETATM   22  N   UNL     1      -7.480  11.430  66.743  1.00  0.00    -0.146 NA 
HETATM   23  C   UNL     1      -5.823  12.496  67.412  1.00  0.00    -0.137 A  
HETATM   24  C   UNL     1      -7.921  12.543  67.392  1.00  0.00    -0.180 A  
HETATM   25  N   UNL     1      -6.894  13.211  67.867  1.00  0.00    -0.117 NA 
HETATM   26  N   UNL     1      -6.135  11.421  66.679  1.00  0.00    -0.143 NA 
ENDBRANCH   8  22
TORSDOF 1
ENDMDL
MODEL       56
REMARK 921   NORMALIZED FREE ENERGY PREDICTED BY IDOCK:   -5.02 KCAL/MOL
REMARK 922        TOTAL FREE ENERGY PREDICTED BY IDOCK:   -4.91 KCAL/MOL
REMARK 923 INTER-LIGAND FREE ENERGY PREDICTED BY IDOCK:   -4.88 KCAL/MOL
REMARK 924 INTRA-LIGAND FREE ENERGY PREDICTED BY IDOCK:   -0.03 KCAL/MOL
REMARK 927      BINDING AFFINITY PREDICTED BY RF-SCORE:    0.00 PKD
ROOT
HETATM    1  C   UNL     1      -9.732  12.179  65.779  1.00  0.00    -0.245 C  
HETATM    2  C   UNL     1      -9.017  12.649  67.057  1.00  0.00    -0.216 C  
HETATM    3  C   UNL     1      -8.396  11.540  68.014  1.00  0.00    -0.146 C  
HETATM    4  C   UNL     1      -9.894  13.662  67.794  1.00  0.00    -0.232 A  
HETATM    5  O   UNL     1      -7.527  12.325  68.891  1.00  0.00    -0.223 OA 
HETATM    6  N   UNL     1     -11.242  13.516  67.709  1.00  0.00    -0.271 NA 
HETATM    7  C   UNL     1      -9.323  10.702  68.918  1.00  0.00    -0.191 A  
HETATM    8  C   UNL     1      -7.382  10.617  67.260  1.00  0.00    -0.092 C  
HETATM    9  C   UNL     1     -10.705  10.577  68.716  1.00  0.00    -0.249 A  
HETATM   10  C   UNL     1      -8.784   9.963  69.994  1.00  0.00    -0.157 A  
HETATM   11  C   UNL     1     -11.998  14.407  68.374  1.00  0.00    -0.293 A  
HETATM   12  H   UNL     1      -7.156  11.662  69.463  1.00  0.00     0.000 HD 
HETATM   13  F   UNL     1      -8.012  14.914  68.567  1.00  0.00    -0.117 F  
HETATM   14  C   UNL     1      -9.552   9.140  70.812  1.00  0.00    -0.338 A  
HETATM   15  F   UNL     1      -7.470  10.049  70.253  1.00  0.00    -0.135 F  
HETATM   16  N   UNL     1     -11.542  15.413  69.130  1.00  0.00    -0.318 NA 
HETATM   17  C   UNL     1     -10.909   9.046  70.573  1.00  0.00    -0.251 A  
HETATM   18  C   UNL     1     -11.494   9.764  69.542  1.00  0.00    -0.058 A  
HETATM   19  C   UNL     1     -10.199  15.534  69.181  1.00  0.00    -0.240 A  
HETATM   20  F   UNL     1     -11.665   8.251  71.340  1.00  0.00    -0.274 F  
HETATM   21  C   UNL     1      -9.331  14.699  68.516  1.00  0.00    -0.201 A  
ENDROOT
BRANCH   8  22
HETATM   22  N   UNL     1      -7.915   9.535  66.470  1.00  0.00    -0.111 NA 
HETATM   23  C   UNL     1      -8.381   8.389  64.798  1.00  0.00    -0.141 A  
HETATM   24  C   UNL     1      -8.338   8.312  66.894  1.00  0.00    -0.114 A  
HETATM   25  N   UNL     1      -8.685   7.583  65.858  1.00  0.00    -0.160 NA 
HETATM   26  N   UNL     1      -7.863   9.578  65.126  1.00  0.00    -0.109 NA 
ENDBRANCH   8  22
TORSDOF 1
ENDMDL
MODEL       57
REMARK 921   NORMALIZED FREE ENERGY PREDICTED BY IDOCK:   -4.99 KCAL/MOL
REMARK 922        TOTAL FREE ENERGY PREDICTED BY IDOCK:   -4.88 KCAL/MOL
REMARK 923 INTER-LIGAND FREE ENERGY PREDICTED BY IDOCK:   -4.86 KCAL/MOL
REMARK 924 INTRA-LIGAND FREE ENERGY PREDICTED BY IDOCK:   -0.02 KCAL/MOL
REMARK 927      BINDING AFFINITY PREDICTED BY RF-SCORE:    0.00 PKD
ROOT
HETATM    1  C   UNL     1     -10.032  10.679  64.456  1.00  0.00    -0.410 C  
HETATM    2  C   UNL     1      -9.711   9.547  65.446  1.00  0.00    -0.314 C  
HETATM    3  C   UNL     1      -9.676   9.901  66.997  1.00  0.00    -0.182 C  
HETATM    4  C   UNL     1      -8.476   8.782  64.971  1.00  0.00    -0.175 A  
HETATM    5  O   UNL     1      -9.701   8.581  67.627  1.00  0.00    -0.148 OA 
HETATM    6  N   UNL     1      -7.517   9.477  64.303  1.00  0.00    -0.113 NA 
HETATM    7  C   UNL     1      -8.470  10.665  67.580  1.00  0.00    -0.118 A  
HETATM    8  C   UNL     1     -11.020  10.540  67.483  1.00  0.00    -0.303 C  
HETATM    9  C   UNL     1      -7.560  11.396  66.805  1.00  0.00    -0.143 A  
HETATM   10  C   UNL     1      -8.261  10.697  68.976  1.00  0.00    -0.151 A  
HETATM   11  C   UNL     1      -6.430   8.792  63.905  1.00  0.00    -0.076 A  
HETATM   12  H   UNL     1      -9.679   8.793  68.554  1.00  0.00     0.000 HD 
HETATM   13  F   UNL     1      -9.293   6.697  65.802  1.00  0.00    -0.137 F  
HETATM   14  C   UNL     1      -7.230  11.415  69.575  1.00  0.00     0.022 A  
HETATM   15  F   UNL     1      -9.087  10.008  69.778  1.00  0.00    -0.195 F  
HETATM   16  N   UNL     1      -6.197   7.493  64.126  1.00  0.00    -0.048 NA 
HETATM   17  C   UNL     1      -6.359  12.123  68.770  1.00  0.00    -0.076 A  
HETATM   18  C   UNL     1      -6.506  12.110  67.392  1.00  0.00    -0.149 A  
HETATM   19  C   UNL     1      -7.175   6.834  64.781  1.00  0.00    -0.082 A  
HETATM   20  F   UNL     1      -5.367  12.829  69.325  1.00  0.00    -0.068 F  
HETATM   21  C   UNL     1      -8.342   7.426  65.208  1.00  0.00    -0.104 A  
ENDROOT
BRANCH   8  22
HETATM   22  N   UNL     1     -11.223  11.947  67.239  1.00  0.00    -0.296 NA 
HETATM   23  C   UNL     1     -12.026  13.688  66.434  1.00  0.00    -0.426 A  
HETATM   24  C   UNL     1     -10.788  13.001  67.983  1.00  0.00    -0.242 A  
HETATM   25  N   UNL     1     -11.244  14.120  67.466  1.00  0.00    -0.294 NA 
HETATM   26  N   UNL     1     -12.080  12.360  66.287  1.00  0.00    -0.630 NA 
ENDBRANCH   8  22
TORSDOF 1
ENDMDL
MODEL       58
REMARK 921   NORMALIZED FREE ENERGY PREDICTED BY IDOCK:   -4.92 KCAL/MOL
REMARK 922        TOTAL FREE ENERGY PREDICTED BY IDOCK:   -4.80 KCAL/MOL
REMARK 923 INTER-LIGAND FREE ENERGY PREDICTED BY IDOCK:   -4.81 KCAL/MOL
REMARK 924 INTRA-LIGAND FREE ENERGY PREDICTED BY IDOCK:    0.00 KCAL/MOL
REMARK 927      BINDING AFFINITY PREDICTED BY RF-SCORE:    0.00 PKD
ROOT
HETATM    1  C   UNL     1      -9.253  12.751  66.659  1.00  0.00    -0.212 C  
HETATM    2  C   UNL     1      -9.430  11.273  66.274  1.00  0.00    -0.227 C  
HETATM    3  C   UNL     1     -10.204  10.325  67.291  1.00  0.00    -0.218 C  
HETATM    4  C   UNL     1      -8.092  10.698  65.809  1.00  0.00    -0.158 A  
HETATM    5  O   UNL     1     -10.486   9.143  66.477  1.00  0.00    -0.228 OA 
HETATM    6  N   UNL     1      -6.958  11.185  66.381  1.00  0.00    -0.123 NA 
HETATM    7  C   UNL     1      -9.497   9.840  68.573  1.00  0.00    -0.148 A  
HETATM    8  C   UNL     1     -11.635  10.865  67.623  1.00  0.00    -0.085 C  
HETATM    9  C   UNL     1      -8.352  10.444  69.110  1.00  0.00    -0.160 A  
HETATM   10  C   UNL     1     -10.028   8.757  69.308  1.00  0.00    -0.194 A  
HETATM   11  C   UNL     1      -5.791  10.659  65.971  1.00  0.00    -0.127 A  
HETATM   12  H   UNL     1     -10.948   8.577  67.085  1.00  0.00     0.000 HD 
HETATM   13  F   UNL     1      -9.124   9.264  64.202  1.00  0.00    -0.247 F  
HETATM   14  C   UNL     1      -9.478   8.305  70.503  1.00  0.00    -0.178 A  
HETATM   15  F   UNL     1     -11.115   8.122  68.843  1.00  0.00    -0.104 F  
HETATM   16  N   UNL     1      -5.644   9.683  65.067  1.00  0.00    -0.058 NA 
HETATM   17  C   UNL     1      -8.351   8.933  70.995  1.00  0.00    -0.191 A  
HETATM   18  C   UNL     1      -7.777   9.990  70.305  1.00  0.00    -0.093 A  
HETATM   19  C   UNL     1      -6.790   9.233  64.513  1.00  0.00    -0.089 A  
HETATM   20  F   UNL     1      -7.811   8.523  72.149  1.00  0.00    -0.141 F  
HETATM   21  C   UNL     1      -8.036   9.719  64.834  1.00  0.00    -0.140 A  
ENDROOT
BRANCH   8  22
HETATM   22  N   UNL     1     -11.748  11.905  68.616  1.00  0.00    -0.305 NA 
HETATM   23  C   UNL     1     -12.031  13.798  69.431  1.00  0.00    -0.347 A  
HETATM   24  C   UNL     1     -11.916  11.771  69.960  1.00  0.00    -0.344 A  
HETATM   25  N   UNL     1     -12.049  12.958  70.508  1.00  0.00    -0.339 NA 
HETATM   26  N   UNL     1     -11.895  13.191  68.247  1.00  0.00    -0.350 NA 
ENDBRANCH   8  22
TORSDOF 1
ENDMDL
MODEL       59
REMARK 921   NORMALIZED FREE ENERGY PREDICTED BY IDOCK:   -4.85 KCAL/MOL
REMARK 922        TOTAL FREE ENERGY PREDICTED BY IDOCK:   -4.73 KCAL/MOL
REMARK 923 INTER-LIGAND FREE ENERGY PREDICTED BY IDOCK:   -4.70 KCAL/MOL
REMARK 924 INTRA-LIGAND FREE ENERGY PREDICTED BY IDOCK:   -0.02 KCAL/MOL
REMARK 927      BINDING AFFINITY PREDICTED BY RF-SCORE:    0.00 PKD
ROOT
HETATM    1  C   UNL     1      -8.190   8.326  66.041  1.00  0.00    -0.119 C  
HETATM    2  C   UNL     1      -9.346   7.501  66.631  1.00  0.00    -0.222 C  
HETATM    3  C   UNL     1     -10.177   8.133  67.831  1.00  0.00    -0.218 C  
HETATM    4  C   UNL     1      -8.871   6.074  66.908  1.00  0.00    -0.116 A  
HETATM    5  O   UNL     1     -11.360   7.274  67.890  1.00  0.00    -0.458 OA 
HETATM    6  N   UNL     1      -7.573   5.896  67.269  1.00  0.00    -0.095 NA 
HETATM    7  C   UNL     1      -9.567   8.170  69.247  1.00  0.00    -0.164 A  
HETATM    8  C   UNL     1     -10.781   9.528  67.456  1.00  0.00    -0.245 C  
HETATM    9  C   UNL     1      -8.199   8.022  69.512  1.00  0.00    -0.122 A  
HETATM   10  C   UNL     1     -10.392   8.414  70.367  1.00  0.00    -0.205 A  
HETATM   11  C   UNL     1      -7.176   4.637  67.523  1.00  0.00    -0.069 A  
HETATM   12  H   UNL     1     -11.856   7.652  68.607  1.00  0.00     0.000 HD 
HETATM   13  F   UNL     1     -10.998   5.129  66.369  1.00  0.00    -0.327 F  
HETATM   14  C   UNL     1      -9.902   8.521  71.665  1.00  0.00    -0.317 A  
HETATM   15  F   UNL     1     -11.715   8.552  70.188  1.00  0.00    -0.169 F  
HETATM   16  N   UNL     1      -7.948   3.545  67.473  1.00  0.00    -0.081 NA 
HETATM   17  C   UNL     1      -8.546   8.370  71.877  1.00  0.00    -0.186 A  
HETATM   18  C   UNL     1      -7.692   8.110  70.816  1.00  0.00    -0.080 A  
HETATM   19  C   UNL     1      -9.227   3.759  67.100  1.00  0.00    -0.182 A  
HETATM   20  F   UNL     1      -8.050   8.480  73.115  1.00  0.00    -0.224 F  
HETATM   21  C   UNL     1      -9.734   5.000  66.787  1.00  0.00    -0.174 A  
ENDROOT
BRANCH   8  22
HETATM   22  N   UNL     1      -9.919  10.680  67.539  1.00  0.00    -0.168 NA 
HETATM   23  C   UNL     1      -8.806  12.328  66.931  1.00  0.00    -0.207 A  
HETATM   24  C   UNL     1      -9.570  11.392  68.646  1.00  0.00    -0.173 A  
HETATM   25  N   UNL     1      -8.825  12.415  68.294  1.00  0.00    -0.188 NA 
HETATM   26  N   UNL     1      -9.502  11.306  66.423  1.00  0.00    -0.194 NA 
ENDBRANCH   8  22
TORSDOF 1
ENDMDL
MODEL       60
REMARK 921   NORMALIZED FREE ENERGY PREDICTED BY IDOCK:   -4.82 KCAL/MOL
REMARK 922        TOTAL FREE ENERGY PREDICTED BY IDOCK:   -4.70 KCAL/MOL
REMARK 923 INTER-LIGAND FREE ENERGY PREDICTED BY IDOCK:   -5.46 KCAL/MOL
REMARK 924 INTRA-LIGAND FREE ENERGY PREDICTED BY IDOCK:    0.76 KCAL/MOL
REMARK 927      BINDING AFFINITY PREDICTED BY RF-SCORE:    0.00 PKD
ROOT
HETATM    1  C   UNL     1     -10.409   8.882  66.836  1.00  0.00    -0.332 C  
HETATM    2  C   UNL     1      -9.045   9.577  66.685  1.00  0.00    -0.179 C  
HETATM    3  C   UNL     1      -8.720  10.798  67.651  1.00  0.00    -0.126 C  
HETATM    4  C   UNL     1      -8.786   9.886  65.210  1.00  0.00    -0.160 A  
HETATM    5  O   UNL     1      -7.277  10.967  67.480  1.00  0.00    -0.090 OA 
HETATM    6  N   UNL     1      -9.856  10.175  64.423  1.00  0.00    -0.300 NA 
HETATM    7  C   UNL     1      -9.375  12.171  67.397  1.00  0.00    -0.181 A  
HETATM    8  C   UNL     1      -8.844  10.401  69.160  1.00  0.00    -0.172 C  
HETATM    9  C   UNL     1     -10.514  12.357  66.602  1.00  0.00    -0.251 A  
HETATM   10  C   UNL     1      -8.859  13.328  68.022  1.00  0.00    -0.190 A  
HETATM   11  C   UNL     1      -9.609  10.458  63.133  1.00  0.00    -0.303 A  
HETATM   12  H   UNL     1      -7.083  11.697  68.057  1.00  0.00     0.000 HD 
HETATM   13  F   UNL     1      -6.434   9.522  65.419  1.00  0.00    -0.065 F  
HETATM   14  C   UNL     1      -9.435  14.587  67.886  1.00  0.00    -0.212 A  
HETATM   15  F   UNL     1      -7.761  13.225  68.786  1.00  0.00    -0.129 F  
HETATM   16  N   UNL     1      -8.401  10.504  62.556  1.00  0.00    -0.179 NA 
HETATM   17  C   UNL     1     -10.558  14.722  67.093  1.00  0.00    -0.285 A  
HETATM   18  C   UNL     1     -11.096  13.623  66.442  1.00  0.00    -0.307 A  
HETATM   19  C   UNL     1      -7.365  10.201  63.365  1.00  0.00    -0.132 A  
HETATM   20  F   UNL     1     -11.136  15.921  66.957  1.00  0.00    -0.320 F  
HETATM   21  C   UNL     1      -7.503   9.866  64.692  1.00  0.00    -0.140 A  
ENDROOT
BRANCH   8  22
HETATM   22  N   UNL     1     -10.161  10.381  69.745  1.00  0.00    -0.219 NA 
HETATM   23  C   UNL     1     -12.167  10.843  70.044  1.00  0.00    -0.347 A  
HETATM   24  C   UNL     1     -10.688   9.464  70.603  1.00  0.00    -0.290 A  
HETATM   25  N   UNL     1     -11.945   9.761  70.847  1.00  0.00    -0.309 NA 
HETATM   26  N   UNL     1     -11.114  11.230  69.316  1.00  0.00    -0.241 NA 
ENDBRANCH   8  22
TORSDOF 1
ENDMDL
MODEL       61
REMARK 921   NORMALIZED FREE ENERGY PREDICTED BY IDOCK:   -4.81 KCAL/MOL
REMARK 922        TOTAL FREE ENERGY PREDICTED BY IDOCK:   -4.69 KCAL/MOL
REMARK 923 INTER-LIGAND FREE ENERGY PREDICTED BY IDOCK:   -4.67 KCAL/MOL
REMARK 924 INTRA-LIGAND FREE ENERGY PREDICTED BY IDOCK:   -0.02 KCAL/MOL
REMARK 927      BINDING AFFINITY PREDICTED BY RF-SCORE:    0.00 PKD
ROOT
HETATM    1  C   UNL     1      -7.977   9.038  71.088  1.00  0.00    -0.169 C  
HETATM    2  C   UNL     1      -9.391   9.242  70.518  1.00  0.00    -0.316 C  
HETATM    3  C   UNL     1     -10.228   7.949  70.119  1.00  0.00    -0.202 C  
HETATM    4  C   UNL     1      -9.354  10.303  69.417  1.00  0.00    -0.199 A  
HETATM    5  O   UNL     1     -11.583   8.479  69.967  1.00  0.00    -0.463 OA 
HETATM    6  N   UNL     1      -8.229  10.393  68.660  1.00  0.00    -0.114 NA 
HETATM    7  C   UNL     1      -9.886   7.185  68.824  1.00  0.00    -0.158 A  
HETATM    8  C   UNL     1     -10.379   6.956  71.320  1.00  0.00    -0.203 C  
HETATM    9  C   UNL     1      -8.669   7.314  68.140  1.00  0.00    -0.128 A  
HETATM   10  C   UNL     1     -10.803   6.255  68.287  1.00  0.00    -0.319 A  
HETATM   11  C   UNL     1      -8.218  11.321  67.686  1.00  0.00    -0.120 A  
HETATM   12  H   UNL     1     -12.083   7.706  69.728  1.00  0.00     0.000 HD 
HETATM   13  F   UNL     1     -11.525  11.133  69.971  1.00  0.00    -0.300 F  
HETATM   14  C   UNL     1     -10.536   5.488  67.158  1.00  0.00    -0.313 A  
HETATM   15  F   UNL     1     -11.994   6.092  68.884  1.00  0.00    -0.119 F  
HETATM   16  N   UNL     1      -9.224  12.150  67.382  1.00  0.00    -0.177 NA 
HETATM   17  C   UNL     1      -9.323   5.648  66.518  1.00  0.00    -0.150 A  
HETATM   18  C   UNL     1      -8.392   6.561  66.991  1.00  0.00    -0.113 A  
HETATM   19  C   UNL     1     -10.320  12.039  68.162  1.00  0.00    -0.198 A  
HETATM   20  F   UNL     1      -9.039   4.913  65.436  1.00  0.00    -0.140 F  
HETATM   21  C   UNL     1     -10.429  11.147  69.204  1.00  0.00    -0.182 A  
ENDROOT
BRANCH   8  22
HETATM   22  N   UNL     1      -9.278   6.069  71.603  1.00  0.00    -0.146 NA 
HETATM   23  C   UNL     1      -7.673   5.219  72.615  1.00  0.00    -0.098 A  
HETATM   24  C   UNL     1      -8.982   4.879  71.011  1.00  0.00    -0.134 A  
HETATM   25  N   UNL     1      -7.939   4.342  71.603  1.00  0.00    -0.084 NA 
HETATM   26  N   UNL     1      -8.498   6.269  72.681  1.00  0.00    -0.123 NA 
ENDBRANCH   8  22
TORSDOF 1
ENDMDL
MODEL       62
REMARK 921   NORMALIZED FREE ENERGY PREDICTED BY IDOCK:   -4.81 KCAL/MOL
REMARK 922        TOTAL FREE ENERGY PREDICTED BY IDOCK:   -4.69 KCAL/MOL
REMARK 923 INTER-LIGAND FREE ENERGY PREDICTED BY IDOCK:   -4.67 KCAL/MOL
REMARK 924 INTRA-LIGAND FREE ENERGY PREDICTED BY IDOCK:   -0.02 KCAL/MOL
REMARK 927      BINDING AFFINITY PREDICTED BY RF-SCORE:    0.00 PKD
ROOT
HETATM    1  C   UNL     1      -7.675   6.988  69.047  1.00  0.00    -0.109 C  
HETATM    2  C   UNL     1      -9.170   7.169  68.737  1.00  0.00    -0.136 C  
HETATM    3  C   UNL     1      -9.569   8.063  67.483  1.00  0.00    -0.153 C  
HETATM    4  C   UNL     1      -9.918   7.550  70.015  1.00  0.00    -0.186 A  
HETATM    5  O   UNL     1     -10.980   7.731  67.288  1.00  0.00    -0.525 OA 
HETATM    6  N   UNL     1      -9.257   8.295  70.940  1.00  0.00    -0.150 NA 
HETATM    7  C   UNL     1      -9.468   9.599  67.576  1.00  0.00    -0.157 A  
HETATM    8  C   UNL     1      -8.907   7.548  66.161  1.00  0.00    -0.159 C  
HETATM    9  C   UNL     1      -8.716  10.275  68.546  1.00  0.00    -0.130 A  
HETATM   10  C   UNL     1     -10.116  10.411  66.618  1.00  0.00    -0.224 A  
HETATM   11  C   UNL     1      -9.934   8.634  72.051  1.00  0.00    -0.329 A  
HETATM   12  H   UNL     1     -11.217   8.266  66.538  1.00  0.00     0.000 HD 
HETATM   13  F   UNL     1     -11.883   6.354  69.369  1.00  0.00    -0.446 F  
HETATM   14  C   UNL     1     -10.019  11.798  66.606  1.00  0.00    -0.224 A  
HETATM   15  F   UNL     1     -10.866   9.830  65.669  1.00  0.00    -0.043 F  
HETATM   16  N   UNL     1     -11.208   8.322  72.320  1.00  0.00    -0.347 NA 
HETATM   17  C   UNL     1      -9.264  12.420  67.580  1.00  0.00    -0.185 A  
HETATM   18  C   UNL     1      -8.622  11.674  68.557  1.00  0.00    -0.134 A  
HETATM   19  C   UNL     1     -11.828   7.573  71.384  1.00  0.00    -0.294 A  
HETATM   20  F   UNL     1      -9.148  13.754  67.582  1.00  0.00    -0.169 F  
HETATM   21  C   UNL     1     -11.223   7.143  70.225  1.00  0.00    -0.276 A  
ENDROOT
BRANCH   8  22
HETATM   22  N   UNL     1      -7.538   7.921  65.904  1.00  0.00    -0.081 NA 
HETATM   23  C   UNL     1      -5.484   7.731  65.637  1.00  0.00    -0.029 A  
HETATM   24  C   UNL     1      -7.070   9.077  65.356  1.00  0.00    -0.081 A  
HETATM   25  N   UNL     1      -5.765   9.001  65.220  1.00  0.00    -0.050 NA 
HETATM   26  N   UNL     1      -6.548   7.017  66.020  1.00  0.00    -0.051 NA 
ENDBRANCH   8  22
TORSDOF 1
ENDMDL
MODEL       63
REMARK 921   NORMALIZED FREE ENERGY PREDICTED BY IDOCK:   -4.81 KCAL/MOL
REMARK 922        TOTAL FREE ENERGY PREDICTED BY IDOCK:   -4.68 KCAL/MOL
REMARK 923 INTER-LIGAND FREE ENERGY PREDICTED BY IDOCK:   -4.68 KCAL/MOL
REMARK 924 INTRA-LIGAND FREE ENERGY PREDICTED BY IDOCK:   -0.00 KCAL/MOL
REMARK 927      BINDING AFFINITY PREDICTED BY RF-SCORE:    0.00 PKD
ROOT
HETATM    1  C   UNL     1      -9.503   9.572  65.348  1.00  0.00    -0.336 C  
HETATM    2  C   UNL     1     -10.097   8.724  66.486  1.00  0.00    -0.349 C  
HETATM    3  C   UNL     1     -10.030   9.309  67.964  1.00  0.00    -0.182 C  
HETATM    4  C   UNL     1      -9.586   7.287  66.379  1.00  0.00    -0.104 A  
HETATM    5  O   UNL     1     -10.963   8.449  68.692  1.00  0.00    -0.428 OA 
HETATM    6  N   UNL     1      -8.334   7.094  65.886  1.00  0.00    -0.135 NA 
HETATM    7  C   UNL     1      -8.694   9.289  68.735  1.00  0.00    -0.132 A  
HETATM    8  C   UNL     1     -10.704  10.717  68.069  1.00  0.00    -0.228 C  
HETATM    9  C   UNL     1      -7.442   9.129  68.123  1.00  0.00    -0.083 A  
HETATM   10  C   UNL     1      -8.679   9.489  70.132  1.00  0.00    -0.230 A  
HETATM   11  C   UNL     1      -7.894   5.825  65.812  1.00  0.00    -0.102 A  
HETATM   12  H   UNL     1     -10.922   8.798  69.575  1.00  0.00     0.000 HD 
HETATM   13  F   UNL     1     -11.635   6.366  67.191  1.00  0.00    -0.352 F  
HETATM   14  C   UNL     1      -7.508   9.543  70.882  1.00  0.00    -0.043 A  
HETATM   15  F   UNL     1      -9.843   9.634  70.784  1.00  0.00    -0.303 F  
HETATM   16  N   UNL     1      -8.570   4.737  66.200  1.00  0.00    -0.114 NA 
HETATM   17  C   UNL     1      -6.298   9.383  70.235  1.00  0.00    -0.060 A  
HETATM   18  C   UNL     1      -6.255   9.165  68.867  1.00  0.00    -0.044 A  
HETATM   19  C   UNL     1      -9.812   4.967  66.673  1.00  0.00    -0.204 A  
HETATM   20  F   UNL     1      -5.158   9.443  70.934  1.00  0.00    -0.026 F  
HETATM   21  C   UNL     1     -10.375   6.219  66.765  1.00  0.00    -0.221 A  
ENDROOT
BRANCH   8  22
HETATM   22  N   UNL     1      -9.935  11.865  67.656  1.00  0.00    -0.187 NA 
HETATM   23  C   UNL     1      -9.401  13.574  66.598  1.00  0.00    -0.245 A  
HETATM   24  C   UNL     1      -8.910  12.473  68.315  1.00  0.00    -0.171 A  
HETATM   25  N   UNL     1      -8.521  13.532  67.642  1.00  0.00    -0.170 NA 
HETATM   26  N   UNL     1     -10.315  12.597  66.593  1.00  0.00    -0.235 NA 
ENDBRANCH   8  22
TORSDOF 1
ENDMDL
MODEL       64
REMARK 921   NORMALIZED FREE ENERGY PREDICTED BY IDOCK:   -4.79 KCAL/MOL
REMARK 922        TOTAL FREE ENERGY PREDICTED BY IDOCK:   -4.67 KCAL/MOL
REMARK 923 INTER-LIGAND FREE ENERGY PREDICTED BY IDOCK:   -4.70 KCAL/MOL
REMARK 924 INTRA-LIGAND FREE ENERGY PREDICTED BY IDOCK:    0.02 KCAL/MOL
REMARK 927      BINDING AFFINITY PREDICTED BY RF-SCORE:    0.00 PKD
ROOT
HETATM    1  C   UNL     1      -8.323   8.754  71.972  1.00  0.00    -0.093 C  
HETATM    2  C   UNL     1      -9.650   7.975  71.966  1.00  0.00    -0.262 C  
HETATM    3  C   UNL     1      -9.670   6.543  71.273  1.00  0.00    -0.173 C  
HETATM    4  C   UNL     1     -10.782   8.890  71.499  1.00  0.00    -0.328 A  
HETATM    5  O   UNL     1     -10.929   5.973  71.752  1.00  0.00    -0.250 OA 
HETATM    6  N   UNL     1     -10.484   9.855  70.589  1.00  0.00    -0.280 NA 
HETATM    7  C   UNL     1      -9.676   6.438  69.734  1.00  0.00    -0.172 A  
HETATM    8  C   UNL     1      -8.600   5.580  71.886  1.00  0.00    -0.131 C  
HETATM    9  C   UNL     1      -9.304   7.483  68.879  1.00  0.00    -0.142 A  
HETATM   10  C   UNL     1     -10.024   5.220  69.109  1.00  0.00    -0.205 A  
HETATM   11  C   UNL     1     -11.494  10.642  70.178  1.00  0.00    -0.329 A  
HETATM   12  H   UNL     1     -10.942   5.118  71.338  1.00  0.00     0.000 HD 
HETATM   13  F   UNL     1     -12.382   7.852  72.937  1.00  0.00    -0.237 F  
HETATM   14  C   UNL     1      -9.993   5.036  67.731  1.00  0.00    -0.198 A  
HETATM   15  F   UNL     1     -10.405   4.181  69.868  1.00  0.00    -0.215 F  
HETATM   16  N   UNL     1     -12.771  10.548  70.568  1.00  0.00    -0.338 NA 
HETATM   17  C   UNL     1      -9.617   6.094  66.928  1.00  0.00    -0.142 A  
HETATM   18  C   UNL     1      -9.283   7.319  67.487  1.00  0.00    -0.138 A  
HETATM   19  C   UNL     1     -13.026   9.587  71.480  1.00  0.00    -0.386 A  
HETATM   20  F   UNL     1      -9.569   5.937  65.600  1.00  0.00    -0.114 F  
HETATM   21  C   UNL     1     -12.066   8.745  71.992  1.00  0.00    -0.377 A  
ENDROOT
BRANCH   8  22
HETATM   22  N   UNL     1      -7.239   5.704  71.426  1.00  0.00    -0.075 NA 
HETATM   23  C   UNL     1      -5.178   5.971  71.490  1.00  0.00    -0.017 A  
HETATM   24  C   UNL     1      -6.725   5.355  70.214  1.00  0.00    -0.047 A  
HETATM   25  N   UNL     1      -5.427   5.559  70.212  1.00  0.00    -0.004 NA 
HETATM   26  N   UNL     1      -6.253   6.030  72.282  1.00  0.00    -0.041 NA 
ENDBRANCH   8  22
TORSDOF 1
ENDMDL
MODEL       65
REMARK 921   NORMALIZED FREE ENERGY PREDICTED BY IDOCK:   -4.77 KCAL/MOL
REMARK 922        TOTAL FREE ENERGY PREDICTED BY IDOCK:   -4.64 KCAL/MOL
REMARK 923 INTER-LIGAND FREE ENERGY PREDICTED BY IDOCK:   -4.62 KCAL/MOL
REMARK 924 INTRA-LIGAND FREE ENERGY PREDICTED BY IDOCK:   -0.02 KCAL/MOL
REMARK 927      BINDING AFFINITY PREDICTED BY RF-SCORE:    0.00 PKD
ROOT
HETATM    1  C   UNL     1      -7.302   7.257  68.160  1.00  0.00    -0.100 C  
HETATM    2  C   UNL     1      -7.699   8.553  68.888  1.00  0.00    -0.100 C  
HETATM    3  C   UNL     1      -8.166   8.442  70.405  1.00  0.00    -0.115 C  
HETATM    4  C   UNL     1      -8.661   9.359  68.016  1.00  0.00    -0.124 A  
HETATM    5  O   UNL     1      -8.116   9.832  70.858  1.00  0.00    -0.368 OA 
HETATM    6  N   UNL     1      -9.511   8.675  67.206  1.00  0.00    -0.150 NA 
HETATM    7  C   UNL     1      -9.572   7.902  70.736  1.00  0.00    -0.171 A  
HETATM    8  C   UNL     1      -7.086   7.749  71.302  1.00  0.00    -0.057 C  
HETATM    9  C   UNL     1     -10.354   7.160  69.840  1.00  0.00    -0.224 A  
HETATM   10  C   UNL     1     -10.123   8.102  72.020  1.00  0.00    -0.237 A  
HETATM   11  C   UNL     1     -10.360   9.399  66.456  1.00  0.00    -0.198 A  
HETATM   12  H   UNL     1      -8.395   9.766  71.764  1.00  0.00     0.000 HD 
HETATM   13  F   UNL     1      -7.795  11.451  68.779  1.00  0.00    -0.121 F  
HETATM   14  C   UNL     1     -11.359   7.592  72.406  1.00  0.00    -0.381 A  
HETATM   15  F   UNL     1      -9.434   8.816  72.924  1.00  0.00    -0.293 F  
HETATM   16  N   UNL     1     -10.459  10.734  66.451  1.00  0.00    -0.247 NA 
HETATM   17  C   UNL     1     -12.093   6.864  71.490  1.00  0.00    -0.358 A  
HETATM   18  C   UNL     1     -11.608   6.654  70.208  1.00  0.00    -0.454 A  
HETATM   19  C   UNL     1      -9.593  11.380  67.259  1.00  0.00    -0.174 A  
HETATM   20  F   UNL     1     -13.279   6.355  71.843  1.00  0.00    -0.340 F  
HETATM   21  C   UNL     1      -8.661  10.742  68.046  1.00  0.00    -0.132 A  
ENDROOT
BRANCH   8  22
HETATM   22  N   UNL     1      -7.024   6.308  71.289  1.00  0.00    -0.070 NA 
HETATM   23  C   UNL     1      -6.293   4.393  70.943  1.00  0.00    -0.022 A  
HETATM   24  C   UNL     1      -7.776   5.428  72.006  1.00  0.00    -0.101 A  
HETATM   25  N   UNL     1      -7.364   4.203  71.768  1.00  0.00    -0.058 NA 
HETATM   26  N   UNL     1      -6.020   5.671  70.660  1.00  0.00    -0.024 NA 
ENDBRANCH   8  22
TORSDOF 1
ENDMDL
MODEL       66
REMARK 921   NORMALIZED FREE ENERGY PREDICTED BY IDOCK:   -4.73 KCAL/MOL
REMARK 922        TOTAL FREE ENERGY PREDICTED BY IDOCK:   -4.60 KCAL/MOL
REMARK 923 INTER-LIGAND FREE ENERGY PREDICTED BY IDOCK:   -4.59 KCAL/MOL
REMARK 924 INTRA-LIGAND FREE ENERGY PREDICTED BY IDOCK:   -0.01 KCAL/MOL
REMARK 927      BINDING AFFINITY PREDICTED BY RF-SCORE:    0.00 PKD
ROOT
HETATM    1  C   UNL     1      -7.725   7.053  66.191  1.00  0.00    -0.095 C  
HETATM    2  C   UNL     1      -9.031   6.241  66.224  1.00  0.00    -0.164 C  
HETATM    3  C   UNL     1     -10.048   6.513  67.416  1.00  0.00    -0.162 C  
HETATM    4  C   UNL     1      -8.719   4.758  66.021  1.00  0.00    -0.118 A  
HETATM    5  O   UNL     1     -11.272   5.862  66.949  1.00  0.00    -0.549 OA 
HETATM    6  N   UNL     1      -7.539   4.285  66.501  1.00  0.00    -0.088 NA 
HETATM    7  C   UNL     1      -9.744   5.960  68.823  1.00  0.00    -0.161 A  
HETATM    8  C   UNL     1     -10.468   8.019  67.496  1.00  0.00    -0.260 C  
HETATM    9  C   UNL     1      -8.473   5.540  69.239  1.00  0.00    -0.101 A  
HETATM   10  C   UNL     1     -10.765   5.901  69.797  1.00  0.00    -0.340 A  
HETATM   11  C   UNL     1      -7.287   2.976  66.327  1.00  0.00    -0.071 A  
HETATM   12  H   UNL     1     -11.880   6.025  67.661  1.00  0.00     0.000 HD 
HETATM   13  F   UNL     1     -10.746   4.369  64.818  1.00  0.00    -0.239 F  
HETATM   14  C   UNL     1     -10.549   5.471  71.102  1.00  0.00    -0.303 A  
HETATM   15  F   UNL     1     -12.010   6.275  69.463  1.00  0.00    -0.445 F  
HETATM   16  N   UNL     1      -8.103   2.091  65.742  1.00  0.00    -0.082 NA 
HETATM   17  C   UNL     1      -9.279   5.069  71.467  1.00  0.00    -0.146 A  
HETATM   18  C   UNL     1      -8.243   5.088  70.546  1.00  0.00    -0.100 A  
HETATM   19  C   UNL     1      -9.260   2.598  65.267  1.00  0.00    -0.124 A  
HETATM   20  F   UNL     1      -9.045   4.661  72.720  1.00  0.00    -0.119 F  
HETATM   21  C   UNL     1      -9.607   3.926  65.363  1.00  0.00    -0.185 A  
ENDROOT
BRANCH   8  22
HETATM   22  N   UNL     1      -9.567   8.935  68.150  1.00  0.00    -0.143 NA 
HETATM   23  C   UNL     1      -8.281  10.548  68.413  1.00  0.00    -0.121 A  
HETATM   24  C   UNL     1      -9.361   9.105  69.485  1.00  0.00    -0.163 A  
HETATM   25  N   UNL     1      -8.513  10.090  69.678  1.00  0.00    -0.178 NA 
HETATM   26  N   UNL     1      -8.942   9.899  67.448  1.00  0.00    -0.135 NA 
ENDBRANCH   8  22
TORSDOF 1
ENDMDL
MODEL       67
REMARK 921   NORMALIZED FREE ENERGY PREDICTED BY IDOCK:   -4.72 KCAL/MOL
REMARK 922        TOTAL FREE ENERGY PREDICTED BY IDOCK:   -4.59 KCAL/MOL
REMARK 923 INTER-LIGAND FREE ENERGY PREDICTED BY IDOCK:   -4.58 KCAL/MOL
REMARK 924 INTRA-LIGAND FREE ENERGY PREDICTED BY IDOCK:   -0.01 KCAL/MOL
REMARK 927      BINDING AFFINITY PREDICTED BY RF-SCORE:    0.00 PKD
ROOT
HETATM    1  C   UNL     1     -12.534  13.296  67.870  1.00  0.00     0.334 C  
HETATM    2  C   UNL     1     -11.134  12.986  67.315  1.00  0.00    -0.303 C  
HETATM    3  C   UNL     1      -9.940  13.956  67.722  1.00  0.00    -0.241 C  
HETATM    4  C   UNL     1     -11.221  12.732  65.810  1.00  0.00    -0.307 A  
HETATM    5  O   UNL     1      -8.757  13.189  67.332  1.00  0.00    -0.185 OA 
HETATM    6  N   UNL     1     -12.164  13.409  65.105  1.00  0.00    -0.408 NA 
HETATM    7  C   UNL     1      -9.823  15.345  67.063  1.00  0.00    -0.236 A  
HETATM    8  C   UNL     1      -9.780  14.069  69.276  1.00  0.00     0.293 C  
HETATM    9  C   UNL     1     -10.877  15.983  66.395  1.00  0.00    -0.159 A  
HETATM   10  C   UNL     1      -8.617  16.073  67.155  1.00  0.00    -0.194 A  
HETATM   11  C   UNL     1     -12.218  13.185  63.780  1.00  0.00    -0.456 A  
HETATM   12  H   UNL     1      -8.044  13.768  67.575  1.00  0.00     0.000 HD 
HETATM   13  F   UNL     1      -9.475  11.101  65.859  1.00  0.00    -0.200 F  
HETATM   14  C   UNL     1      -8.460  17.355  66.637  1.00  0.00    -0.291 A  
HETATM   15  F   UNL     1      -7.562  15.516  67.769  1.00  0.00    -0.117 F  
HETATM   16  N   UNL     1     -11.412  12.370  63.089  1.00  0.00    -0.316 NA 
HETATM   17  C   UNL     1      -9.528  17.944  65.989  1.00  0.00    -0.051 A  
HETATM   18  C   UNL     1     -10.730  17.267  65.853  1.00  0.00    -0.126 A  
HETATM   19  C   UNL     1     -10.495  11.706  63.824  1.00  0.00    -0.402 A  
HETATM   20  F   UNL     1      -9.404  19.181  65.492  1.00  0.00     0.021 F  
HETATM   21  C   UNL     1     -10.371  11.835  65.188  1.00  0.00    -0.279 A  
ENDROOT
BRANCH   8  22
HETATM   22  N   UNL     1     -10.658  14.971  69.978  1.00  0.00    -0.197 NA 
HETATM   23  C   UNL     1     -12.121  15.630  71.303  1.00  0.00    -0.411 A  
HETATM   24  C   UNL     1     -10.581  16.328  70.061  1.00  0.00    -0.239 A  
HETATM   25  N   UNL     1     -11.526  16.775  70.857  1.00  0.00     0.138 NA 
HETATM   26  N   UNL     1     -11.591  14.498  70.826  1.00  0.00    -0.249 NA 
ENDBRANCH   8  22
TORSDOF 1
ENDMDL
MODEL       68
REMARK 921   NORMALIZED FREE ENERGY PREDICTED BY IDOCK:   -4.72 KCAL/MOL
REMARK 922        TOTAL FREE ENERGY PREDICTED BY IDOCK:   -4.59 KCAL/MOL
REMARK 923 INTER-LIGAND FREE ENERGY PREDICTED BY IDOCK:   -4.57 KCAL/MOL
REMARK 924 INTRA-LIGAND FREE ENERGY PREDICTED BY IDOCK:   -0.02 KCAL/MOL
REMARK 927      BINDING AFFINITY PREDICTED BY RF-SCORE:    0.00 PKD
ROOT
HETATM    1  C   UNL     1      -6.227  11.219  66.385  1.00  0.00    -0.106 C  
HETATM    2  C   UNL     1      -6.941  11.246  67.747  1.00  0.00    -0.075 C  
HETATM    3  C   UNL     1      -8.532  11.260  67.755  1.00  0.00    -0.126 C  
HETATM    4  C   UNL     1      -6.322  12.329  68.632  1.00  0.00    -0.071 A  
HETATM    5  O   UNL     1      -8.849  10.933  69.145  1.00  0.00    -0.307 OA 
HETATM    6  N   UNL     1      -5.840  13.445  68.025  1.00  0.00    -0.111 NA 
HETATM    7  C   UNL     1      -9.288  12.558  67.405  1.00  0.00    -0.187 A  
HETATM    8  C   UNL     1      -9.132  10.046  66.969  1.00  0.00    -0.142 C  
HETATM    9  C   UNL     1      -8.708  13.641  66.731  1.00  0.00    -0.101 A  
HETATM   10  C   UNL     1     -10.658  12.686  67.722  1.00  0.00    -0.220 A  
HETATM   11  C   UNL     1      -5.312  14.394  68.818  1.00  0.00    -0.088 A  
HETATM   12  H   UNL     1      -9.800  10.941  69.149  1.00  0.00     0.000 HD 
HETATM   13  F   UNL     1      -6.652  11.061  70.629  1.00  0.00    -0.116 F  
HETATM   14  C   UNL     1     -11.416  13.803  67.384  1.00  0.00    -0.372 A  
HETATM   15  F   UNL     1     -11.273  11.692  68.381  1.00  0.00    -0.216 F  
HETATM   16  N   UNL     1      -5.238  14.348  70.154  1.00  0.00    -0.090 NA 
HETATM   17  C   UNL     1     -10.803  14.845  66.716  1.00  0.00    -0.320 A  
HETATM   18  C   UNL     1      -9.455  14.780  66.397  1.00  0.00    -0.328 A  
HETATM   19  C   UNL     1      -5.716  13.220  70.720  1.00  0.00    -0.176 A  
HETATM   20  F   UNL     1     -11.514  15.924  66.371  1.00  0.00    -0.100 F  
HETATM   21  C   UNL     1      -6.249  12.173  70.004  1.00  0.00    -0.097 A  
ENDROOT
BRANCH   8  22
HETATM   22  N   UNL     1      -9.209  10.144  65.533  1.00  0.00    -0.176 NA 
HETATM   23  C   UNL     1      -8.845   9.722  63.530  1.00  0.00    -0.241 A  
HETATM   24  C   UNL     1     -10.135  10.802  64.783  1.00  0.00    -0.331 A  
HETATM   25  N   UNL     1      -9.899  10.590  63.508  1.00  0.00    -0.315 NA 
HETATM   26  N   UNL     1      -8.419   9.384  64.751  1.00  0.00    -0.156 NA 
ENDBRANCH   8  22
TORSDOF 1
ENDMDL
MODEL       69
REMARK 921   NORMALIZED FREE ENERGY PREDICTED BY IDOCK:   -4.68 KCAL/MOL
REMARK 922        TOTAL FREE ENERGY PREDICTED BY IDOCK:   -4.55 KCAL/MOL
REMARK 923 INTER-LIGAND FREE ENERGY PREDICTED BY IDOCK:   -4.54 KCAL/MOL
REMARK 924 INTRA-LIGAND FREE ENERGY PREDICTED BY IDOCK:   -0.01 KCAL/MOL
REMARK 927      BINDING AFFINITY PREDICTED BY RF-SCORE:    0.00 PKD
ROOT
HETATM    1  C   UNL     1     -10.324  15.063  70.305  1.00  0.00    -0.002 C  
HETATM    2  C   UNL     1     -10.277  15.078  68.768  1.00  0.00    -0.235 C  
HETATM    3  C   UNL     1     -10.670  13.743  67.997  1.00  0.00    -0.250 C  
HETATM    4  C   UNL     1      -8.952  15.680  68.299  1.00  0.00    -0.181 A  
HETATM    5  O   UNL     1     -10.854  14.209  66.623  1.00  0.00    -0.294 OA 
HETATM    6  N   UNL     1      -7.853  15.477  69.073  1.00  0.00    -0.182 NA 
HETATM    7  C   UNL     1      -9.676  12.565  67.951  1.00  0.00    -0.205 A  
HETATM    8  C   UNL     1     -12.100  13.241  68.386  1.00  0.00    -0.209 C  
HETATM    9  C   UNL     1      -8.594  12.422  68.831  1.00  0.00     0.281 A  
HETATM   10  C   UNL     1      -9.856  11.522  67.016  1.00  0.00    -0.192 A  
HETATM   11  C   UNL     1      -6.693  16.001  68.639  1.00  0.00    -0.125 A  
HETATM   12  H   UNL     1     -11.089  13.411  66.162  1.00  0.00     0.000 HD 
HETATM   13  F   UNL     1      -9.948  16.692  66.378  1.00  0.00    -0.247 F  
HETATM   14  C   UNL     1      -9.034  10.401  66.958  1.00  0.00    -0.150 A  
HETATM   15  F   UNL     1     -10.864  11.602  66.134  1.00  0.00    -0.290 F  
HETATM   16  N   UNL     1      -6.518  16.687  67.503  1.00  0.00    -0.142 NA 
HETATM   17  C   UNL     1      -7.982  10.302  67.847  1.00  0.00    -0.102 A  
HETATM   18  C   UNL     1      -7.747  11.306  68.775  1.00  0.00    -0.138 A  
HETATM   19  C   UNL     1      -7.633  16.878  66.767  1.00  0.00    -0.245 A  
HETATM   20  F   UNL     1      -7.185   9.227  67.818  1.00  0.00    -0.079 F  
HETATM   21  C   UNL     1      -8.876  16.414  67.129  1.00  0.00    -0.195 A  
ENDROOT
BRANCH   8  22
HETATM   22  N   UNL     1     -12.241  12.491  69.610  1.00  0.00    -0.167 NA 
HETATM   23  C   UNL     1     -12.771  12.045  71.571  1.00  0.00    -0.255 A  
HETATM   24  C   UNL     1     -12.094  11.151  69.798  1.00  0.00    -0.344 A  
HETATM   25  N   UNL     1     -12.378  10.848  71.044  1.00  0.00    -0.377 NA 
HETATM   26  N   UNL     1     -12.747  13.071  70.714  1.00  0.00    -0.220 NA 
ENDBRANCH   8  22
TORSDOF 1
ENDMDL
MODEL       70
REMARK 921   NORMALIZED FREE ENERGY PREDICTED BY IDOCK:   -4.68 KCAL/MOL
REMARK 922        TOTAL FREE ENERGY PREDICTED BY IDOCK:   -4.55 KCAL/MOL
REMARK 923 INTER-LIGAND FREE ENERGY PREDICTED BY IDOCK:   -4.53 KCAL/MOL
REMARK 924 INTRA-LIGAND FREE ENERGY PREDICTED BY IDOCK:   -0.02 KCAL/MOL
REMARK 927      BINDING AFFINITY PREDICTED BY RF-SCORE:    0.00 PKD
ROOT
HETATM    1  C   UNL     1      -9.321  10.437  63.984  1.00  0.00    -0.321 C  
HETATM    2  C   UNL     1      -8.630  10.813  65.306  1.00  0.00    -0.153 C  
HETATM    3  C   UNL     1      -7.928   9.652  66.136  1.00  0.00    -0.108 C  
HETATM    4  C   UNL     1      -9.566  11.680  66.148  1.00  0.00    -0.232 A  
HETATM    5  O   UNL     1      -7.106  10.393  67.093  1.00  0.00    -0.086 OA 
HETATM    6  N   UNL     1     -10.902  11.454  66.049  1.00  0.00    -0.272 NA 
HETATM    7  C   UNL     1      -8.790   8.661  66.945  1.00  0.00    -0.147 A  
HETATM    8  C   UNL     1      -6.861   8.885  65.286  1.00  0.00    -0.072 C  
HETATM    9  C   UNL     1     -10.162   8.465  66.732  1.00  0.00    -0.376 A  
HETATM   10  C   UNL     1      -8.195   7.847  67.933  1.00  0.00    -0.129 A  
HETATM   11  C   UNL     1     -11.710  12.215  66.808  1.00  0.00    -0.305 A  
HETATM   12  H   UNL     1      -6.687   9.699  67.589  1.00  0.00     0.000 HD 
HETATM   13  F   UNL     1      -7.765  12.964  67.052  1.00  0.00    -0.156 F  
HETATM   14  C   UNL     1      -8.899   6.891  68.658  1.00  0.00    -0.124 A  
HETATM   15  F   UNL     1      -6.887   7.992  68.199  1.00  0.00    -0.061 F  
HETATM   16  N   UNL     1     -11.317  13.162  67.668  1.00  0.00    -0.281 NA 
HETATM   17  C   UNL     1     -10.248   6.732  68.412  1.00  0.00    -0.178 A  
HETATM   18  C   UNL     1     -10.889   7.517  67.465  1.00  0.00    -0.232 A  
HETATM   19  C   UNL     1      -9.984  13.366  67.731  1.00  0.00    -0.233 A  
HETATM   20  F   UNL     1     -10.944   5.810  69.088  1.00  0.00    -0.349 F  
HETATM   21  C   UNL     1      -9.068  12.668  66.979  1.00  0.00    -0.215 A  
ENDROOT
BRANCH   8  22
HETATM   22  N   UNL     1      -7.327   7.862  64.384  1.00  0.00    -0.081 NA 
HETATM   23  C   UNL     1      -7.718   6.869  62.598  1.00  0.00    -0.105 A  
HETATM   24  C   UNL     1      -7.682   6.580  64.676  1.00  0.00    -0.108 A  
HETATM   25  N   UNL     1      -7.981   5.943  63.567  1.00  0.00    -0.114 NA 
HETATM   26  N   UNL     1      -7.270   8.045  63.051  1.00  0.00    -0.087 NA 
ENDBRANCH   8  22
TORSDOF 1
ENDMDL
MODEL       71
REMARK 921   NORMALIZED FREE ENERGY PREDICTED BY IDOCK:   -4.67 KCAL/MOL
REMARK 922        TOTAL FREE ENERGY PREDICTED BY IDOCK:   -4.54 KCAL/MOL
REMARK 923 INTER-LIGAND FREE ENERGY PREDICTED BY IDOCK:   -4.84 KCAL/MOL
REMARK 924 INTRA-LIGAND FREE ENERGY PREDICTED BY IDOCK:    0.30 KCAL/MOL
REMARK 927      BINDING AFFINITY PREDICTED BY RF-SCORE:    0.00 PKD
ROOT
HETATM    1  C   UNL     1     -11.265   6.336  69.089  1.00  0.00    -0.439 C  
HETATM    2  C   UNL     1     -10.697   5.348  70.122  1.00  0.00    -0.295 C  
HETATM    3  C   UNL     1     -10.364   5.899  71.576  1.00  0.00    -0.222 C  
HETATM    4  C   UNL     1      -9.549   4.554  69.497  1.00  0.00    -0.195 A  
HETATM    5  O   UNL     1     -10.197   4.672  72.354  1.00  0.00    -0.178 OA 
HETATM    6  N   UNL     1      -8.780   5.176  68.565  1.00  0.00    -0.097 NA 
HETATM    7  C   UNL     1      -9.102   6.757  71.799  1.00  0.00    -0.140 A  
HETATM    8  C   UNL     1     -11.609   6.568  72.249  1.00  0.00    -0.292 C  
HETATM    9  C   UNL     1      -8.403   7.401  70.768  1.00  0.00    -0.119 A  
HETATM   10  C   UNL     1      -8.614   6.974  73.106  1.00  0.00    -0.121 A  
HETATM   11  C   UNL     1      -7.766   4.469  68.037  1.00  0.00    -0.081 A  
HETATM   12  H   UNL     1      -9.998   5.002  73.223  1.00  0.00     0.000 HD 
HETATM   13  F   UNL     1     -10.081   2.577  70.728  1.00  0.00    -0.144 F  
HETATM   14  C   UNL     1      -7.519   7.784  73.386  1.00  0.00    -0.144 A  
HETATM   15  F   UNL     1      -9.227   6.377  74.140  1.00  0.00    -0.134 F  
HETATM   16  N   UNL     1      -7.431   3.214  68.361  1.00  0.00    -0.049 NA 
HETATM   17  C   UNL     1      -6.863   8.400  72.338  1.00  0.00    -0.092 A  
HETATM   18  C   UNL     1      -7.287   8.207  71.032  1.00  0.00    -0.058 A  
HETATM   19  C   UNL     1      -8.224   2.625  69.281  1.00  0.00    -0.051 A  
HETATM   20  F   UNL     1      -5.814   9.193  72.583  1.00  0.00    -0.086 F  
HETATM   21  C   UNL     1      -9.306   3.243  69.865  1.00  0.00    -0.164 A  
ENDROOT
BRANCH   8  22
HETATM   22  N   UNL     1     -11.923   7.927  71.883  1.00  0.00    -0.291 NA 
HETATM   23  C   UNL     1     -13.059   9.605  71.414  1.00  0.00    -0.385 A  
HETATM   24  C   UNL     1     -11.108   9.017  71.912  1.00  0.00    -0.363 A  
HETATM   25  N   UNL     1     -11.791  10.086  71.572  1.00  0.00    -0.364 NA 
HETATM   26  N   UNL     1     -13.196   8.294  71.640  1.00  0.00    -0.334 NA 
ENDBRANCH   8  22
TORSDOF 1
ENDMDL
MODEL       72
REMARK 921   NORMALIZED FREE ENERGY PREDICTED BY IDOCK:   -4.67 KCAL/MOL
REMARK 922        TOTAL FREE ENERGY PREDICTED BY IDOCK:   -4.54 KCAL/MOL
REMARK 923 INTER-LIGAND FREE ENERGY PREDICTED BY IDOCK:   -4.53 KCAL/MOL
REMARK 924 INTRA-LIGAND FREE ENERGY PREDICTED BY IDOCK:   -0.01 KCAL/MOL
REMARK 927      BINDING AFFINITY PREDICTED BY RF-SCORE:    0.00 PKD
ROOT
HETATM    1  C   UNL     1      -5.570  11.467  66.780  1.00  0.00    -0.138 C  
HETATM    2  C   UNL     1      -6.240  11.673  68.150  1.00  0.00    -0.046 C  
HETATM    3  C   UNL     1      -7.629  10.945  68.417  1.00  0.00    -0.104 C  
HETATM    4  C   UNL     1      -6.261  13.162  68.495  1.00  0.00    -0.079 A  
HETATM    5  O   UNL     1      -7.779  11.063  69.867  1.00  0.00    -0.337 OA 
HETATM    6  N   UNL     1      -6.377  14.049  67.472  1.00  0.00    -0.323 NA 
HETATM    7  C   UNL     1      -8.918  11.497  67.776  1.00  0.00    -0.160 A  
HETATM    8  C   UNL     1      -7.530   9.397  68.206  1.00  0.00    -0.078 C  
HETATM    9  C   UNL     1      -8.933  12.378  66.685  1.00  0.00    -0.184 A  
HETATM   10  C   UNL     1     -10.181  11.081  68.253  1.00  0.00    -0.176 A  
HETATM   11  C   UNL     1      -6.409  15.354  67.793  1.00  0.00    -0.161 A  
HETATM   12  H   UNL     1      -8.609  10.628  70.027  1.00  0.00     0.000 HD 
HETATM   13  F   UNL     1      -5.973  12.752  70.831  1.00  0.00    -0.184 F  
HETATM   14  C   UNL     1     -11.382  11.492  67.685  1.00  0.00    -0.358 A  
HETATM   15  F   UNL     1     -10.241  10.250  69.305  1.00  0.00    -0.183 F  
HETATM   16  N   UNL     1      -6.356  15.859  69.032  1.00  0.00    -0.126 NA 
HETATM   17  C   UNL     1     -11.347  12.358  66.610  1.00  0.00    -0.339 A  
HETATM   18  C   UNL     1     -10.135  12.813  66.112  1.00  0.00    -0.274 A  
HETATM   19  C   UNL     1      -6.229  14.949  70.020  1.00  0.00    -0.156 A  
HETATM   20  F   UNL     1     -12.490  12.758  66.039  1.00  0.00    -0.479 F  
HETATM   21  C   UNL     1      -6.156  13.592  69.805  1.00  0.00    -0.126 A  
ENDROOT
BRANCH   8  22
HETATM   22  N   UNL     1      -7.607   8.895  66.856  1.00  0.00    -0.086 NA 
HETATM   23  C   UNL     1      -7.042   7.939  65.098  1.00  0.00    -0.060 A  
HETATM   24  C   UNL     1      -8.713   8.750  66.074  1.00  0.00    -0.167 A  
HETATM   25  N   UNL     1      -8.374   8.189  64.935  1.00  0.00    -0.151 NA 
HETATM   26  N   UNL     1      -6.539   8.313  66.280  1.00  0.00    -0.050 NA 
ENDBRANCH   8  22
TORSDOF 1
ENDMDL
MODEL       73
REMARK 921   NORMALIZED FREE ENERGY PREDICTED BY IDOCK:   -4.65 KCAL/MOL
REMARK 922        TOTAL FREE ENERGY PREDICTED BY IDOCK:   -4.52 KCAL/MOL
REMARK 923 INTER-LIGAND FREE ENERGY PREDICTED BY IDOCK:   -4.53 KCAL/MOL
REMARK 924 INTRA-LIGAND FREE ENERGY PREDICTED BY IDOCK:    0.01 KCAL/MOL
REMARK 927      BINDING AFFINITY PREDICTED BY RF-SCORE:    0.00 PKD
ROOT
HETATM    1  C   UNL     1      -7.865   5.488  69.172  1.00  0.00    -0.091 C  
HETATM    2  C   UNL     1      -7.853   6.986  69.521  1.00  0.00    -0.119 C  
HETATM    3  C   UNL     1      -8.447   7.428  70.929  1.00  0.00    -0.123 C  
HETATM    4  C   UNL     1      -8.410   7.792  68.348  1.00  0.00    -0.125 A  
HETATM    5  O   UNL     1      -7.962   8.802  71.064  1.00  0.00    -0.116 OA 
HETATM    6  N   UNL     1      -9.376   7.217  67.584  1.00  0.00    -0.128 NA 
HETATM    7  C   UNL     1      -9.974   7.458  71.140  1.00  0.00    -0.188 A  
HETATM    8  C   UNL     1      -7.741   6.695  72.119  1.00  0.00    -0.096 C  
HETATM    9  C   UNL     1     -10.889   6.788  70.317  1.00  0.00    -0.314 A  
HETATM   10  C   UNL     1     -10.523   8.149  72.242  1.00  0.00    -0.302 A  
HETATM   11  C   UNL     1      -9.866   7.945  66.565  1.00  0.00    -0.202 A  
HETATM   12  H   UNL     1      -8.317   9.066  71.905  1.00  0.00     0.000 HD 
HETATM   13  F   UNL     1      -6.946   9.635  68.758  1.00  0.00    -0.062 F  
HETATM   14  C   UNL     1     -11.885   8.169  72.527  1.00  0.00    -0.438 A  
HETATM   15  F   UNL     1      -9.705   8.826  73.064  1.00  0.00    -0.248 F  
HETATM   16  N   UNL     1      -9.504   9.194  66.248  1.00  0.00    -0.216 NA 
HETATM   17  C   UNL     1     -12.748   7.491  71.689  1.00  0.00    -0.355 A  
HETATM   18  C   UNL     1     -12.265   6.811  70.581  1.00  0.00    -0.312 A  
HETATM   19  C   UNL     1      -8.535   9.728  67.022  1.00  0.00    -0.117 A  
HETATM   20  F   UNL     1     -14.061   7.486  71.950  1.00  0.00    -0.402 F  
HETATM   21  C   UNL     1      -7.941   9.063  68.070  1.00  0.00    -0.101 A  
ENDROOT
BRANCH   8  22
HETATM   22  N   UNL     1      -8.174   5.357  72.437  1.00  0.00    -0.114 NA 
HETATM   23  C   UNL     1      -8.153   3.281  72.561  1.00  0.00    -0.068 A  
HETATM   24  C   UNL     1      -9.147   4.971  73.308  1.00  0.00    -0.125 A  
HETATM   25  N   UNL     1      -9.187   3.660  73.370  1.00  0.00    -0.100 NA 
HETATM   26  N   UNL     1      -7.475   4.291  72.006  1.00  0.00    -0.068 NA 
ENDBRANCH   8  22
TORSDOF 1
ENDMDL
MODEL       74
REMARK 921   NORMALIZED FREE ENERGY PREDICTED BY IDOCK:   -4.61 KCAL/MOL
REMARK 922        TOTAL FREE ENERGY PREDICTED BY IDOCK:   -4.48 KCAL/MOL
REMARK 923 INTER-LIGAND FREE ENERGY PREDICTED BY IDOCK:   -4.59 KCAL/MOL
REMARK 924 INTRA-LIGAND FREE ENERGY PREDICTED BY IDOCK:    0.11 KCAL/MOL
REMARK 927      BINDING AFFINITY PREDICTED BY RF-SCORE:    0.00 PKD
ROOT
HETATM    1  C   UNL     1      -7.985  11.071  66.000  1.00  0.00    -0.094 C  
HETATM    2  C   UNL     1      -7.580  11.476  67.428  1.00  0.00    -0.135 C  
HETATM    3  C   UNL     1      -8.011  10.519  68.623  1.00  0.00    -0.124 C  
HETATM    4  C   UNL     1      -7.937  12.943  67.668  1.00  0.00    -0.167 A  
HETATM    5  O   UNL     1      -7.187  11.000  69.732  1.00  0.00    -0.301 OA 
HETATM    6  N   UNL     1      -9.033  13.441  67.039  1.00  0.00    -0.225 NA 
HETATM    7  C   UNL     1      -9.474  10.512  69.110  1.00  0.00    -0.205 A  
HETATM    8  C   UNL     1      -7.493   9.055  68.419  1.00  0.00    -0.082 C  
HETATM    9  C   UNL     1     -10.548  11.011  68.360  1.00  0.00    -0.224 A  
HETATM   10  C   UNL     1      -9.804   9.935  70.356  1.00  0.00    -0.123 A  
HETATM   11  C   UNL     1      -9.341  14.729  67.273  1.00  0.00    -0.206 A  
HETATM   12  H   UNL     1      -7.444  10.428  70.446  1.00  0.00     0.000 HD 
HETATM   13  F   UNL     1      -6.040  13.302  69.075  1.00  0.00    -0.072 F  
HETATM   14  C   UNL     1     -11.108   9.841  70.830  1.00  0.00    -0.415 A  
HETATM   15  F   UNL     1      -8.822   9.451  71.132  1.00  0.00    -0.256 F  
HETATM   16  N   UNL     1      -8.677  15.560  68.085  1.00  0.00    -0.163 NA 
HETATM   17  C   UNL     1     -12.135  10.345  70.055  1.00  0.00    -0.222 A  
HETATM   18  C   UNL     1     -11.866  10.939  68.831  1.00  0.00    -0.340 A  
HETATM   19  C   UNL     1      -7.588  15.033  68.683  1.00  0.00    -0.128 A  
HETATM   20  F   UNL     1     -13.399  10.255  70.485  1.00  0.00    -0.419 F  
HETATM   21  C   UNL     1      -7.163  13.738  68.493  1.00  0.00    -0.108 A  
ENDROOT
BRANCH   8  22
HETATM   22  N   UNL     1      -8.248   8.190  67.548  1.00  0.00    -0.122 NA 
HETATM   23  C   UNL     1      -8.822   7.186  65.819  1.00  0.00    -0.064 A  
HETATM   24  C   UNL     1      -9.149   7.228  67.891  1.00  0.00    -0.132 A  
HETATM   25  N   UNL     1      -9.565   6.609  66.810  1.00  0.00    -0.162 NA 
HETATM   26  N   UNL     1      -7.968   8.128  66.233  1.00  0.00    -0.098 NA 
ENDBRANCH   8  22
TORSDOF 1
ENDMDL
MODEL       75
REMARK 921   NORMALIZED FREE ENERGY PREDICTED BY IDOCK:   -4.60 KCAL/MOL
REMARK 922        TOTAL FREE ENERGY PREDICTED BY IDOCK:   -4.46 KCAL/MOL
REMARK 923 INTER-LIGAND FREE ENERGY PREDICTED BY IDOCK:   -4.44 KCAL/MOL
REMARK 924 INTRA-LIGAND FREE ENERGY PREDICTED BY IDOCK:   -0.02 KCAL/MOL
REMARK 927      BINDING AFFINITY PREDICTED BY RF-SCORE:    0.00 PKD
ROOT
HETATM    1  C   UNL     1     -10.880   9.510  70.788  1.00  0.00    -0.386 C  
HETATM    2  C   UNL     1      -9.504   8.989  71.237  1.00  0.00    -0.339 C  
HETATM    3  C   UNL     1      -8.462   8.569  70.111  1.00  0.00    -0.126 C  
HETATM    4  C   UNL     1      -9.685   7.928  72.323  1.00  0.00    -0.209 A  
HETATM    5  O   UNL     1      -7.206   8.476  70.855  1.00  0.00    -0.053 OA 
HETATM    6  N   UNL     1     -10.791   7.142  72.265  1.00  0.00    -0.223 NA 
HETATM    7  C   UNL     1      -8.647   7.236  69.357  1.00  0.00    -0.134 A  
HETATM    8  C   UNL     1      -8.182   9.735  69.106  1.00  0.00    -0.130 C  
HETATM    9  C   UNL     1      -9.852   6.521  69.319  1.00  0.00    -0.161 A  
HETATM   10  C   UNL     1      -7.581   6.693  68.607  1.00  0.00    -0.101 A  
HETATM   11  C   UNL     1     -10.927   6.204  73.218  1.00  0.00    -0.204 A  
HETATM   12  H   UNL     1      -6.584   8.224  70.182  1.00  0.00     0.000 HD 
HETATM   13  F   UNL     1      -7.688   8.577  73.463  1.00  0.00    -0.201 F  
HETATM   14  C   UNL     1      -7.695   5.528  67.855  1.00  0.00    -0.092 A  
HETATM   15  F   UNL     1      -6.393   7.318  68.611  1.00  0.00    -0.031 F  
HETATM   16  N   UNL     1     -10.060   5.960  74.208  1.00  0.00    -0.255 NA 
HETATM   17  C   UNL     1      -8.903   4.859  67.846  1.00  0.00    -0.104 A  
HETATM   18  C   UNL     1      -9.978   5.337  68.579  1.00  0.00    -0.227 A  
HETATM   19  C   UNL     1      -8.980   6.767  74.241  1.00  0.00    -0.187 A  
HETATM   20  F   UNL     1      -9.039   3.743  67.121  1.00  0.00    -0.120 F  
HETATM   21  C   UNL     1      -8.754   7.779  73.335  1.00  0.00    -0.227 A  
ENDROOT
BRANCH   8  22
HETATM   22  N   UNL     1      -9.134   9.952  68.044  1.00  0.00    -0.121 NA 
HETATM   23  C   UNL     1     -10.609  10.882  66.911  1.00  0.00    -0.261 A  
HETATM   24  C   UNL     1      -9.218   9.313  66.845  1.00  0.00    -0.144 A  
HETATM   25  N   UNL     1     -10.177   9.851  66.126  1.00  0.00    -0.237 NA 
HETATM   26  N   UNL     1      -9.966  11.010  68.076  1.00  0.00    -0.169 NA 
ENDBRANCH   8  22
TORSDOF 1
ENDMDL
MODEL       76
REMARK 921   NORMALIZED FREE ENERGY PREDICTED BY IDOCK:   -4.57 KCAL/MOL
REMARK 922        TOTAL FREE ENERGY PREDICTED BY IDOCK:   -4.43 KCAL/MOL
REMARK 923 INTER-LIGAND FREE ENERGY PREDICTED BY IDOCK:   -4.74 KCAL/MOL
REMARK 924 INTRA-LIGAND FREE ENERGY PREDICTED BY IDOCK:    0.31 KCAL/MOL
REMARK 927      BINDING AFFINITY PREDICTED BY RF-SCORE:    0.00 PKD
ROOT
HETATM    1  C   UNL     1     -11.015   6.244  68.536  1.00  0.00    -0.421 C  
HETATM    2  C   UNL     1     -10.377   7.212  69.548  1.00  0.00    -0.224 C  
HETATM    3  C   UNL     1      -9.069   6.732  70.315  1.00  0.00    -0.153 C  
HETATM    4  C   UNL     1     -11.455   7.769  70.478  1.00  0.00    -0.205 A  
HETATM    5  O   UNL     1      -8.560   7.977  70.890  1.00  0.00    -0.126 OA 
HETATM    6  N   UNL     1     -12.508   6.965  70.783  1.00  0.00    -0.294 NA 
HETATM    7  C   UNL     1      -9.187   5.712  71.465  1.00  0.00    -0.158 A  
HETATM    8  C   UNL     1      -7.928   6.317  69.326  1.00  0.00    -0.109 C  
HETATM    9  C   UNL     1     -10.304   4.890  71.667  1.00  0.00    -0.241 A  
HETATM   10  C   UNL     1      -8.112   5.526  72.361  1.00  0.00    -0.107 A  
HETATM   11  C   UNL     1     -13.439   7.464  71.614  1.00  0.00    -0.366 A  
HETATM   12  H   UNL     1      -7.779   7.691  71.349  1.00  0.00     0.000 HD 
HETATM   13  F   UNL     1     -10.380   9.895  70.654  1.00  0.00    -0.321 F  
HETATM   14  C   UNL     1      -8.126   4.583  73.383  1.00  0.00    -0.095 A  
HETATM   15  F   UNL     1      -7.016   6.291  72.234  1.00  0.00    -0.068 F  
HETATM   16  N   UNL     1     -13.414   8.675  72.185  1.00  0.00    -0.386 NA 
HETATM   17  C   UNL     1      -9.248   3.793  73.542  1.00  0.00    -0.097 A  
HETATM   18  C   UNL     1     -10.341   3.945  72.703  1.00  0.00    -0.228 A  
HETATM   19  C   UNL     1     -12.360   9.449  71.849  1.00  0.00    -0.375 A  
HETATM   20  F   UNL     1      -9.280   2.871  74.511  1.00  0.00    -0.086 F  
HETATM   21  C   UNL     1     -11.365   9.052  70.986  1.00  0.00    -0.297 A  
ENDROOT
BRANCH   8  22
HETATM   22  N   UNL     1      -7.986   4.998  68.747  1.00  0.00    -0.081 NA 
HETATM   23  C   UNL     1      -7.912   2.924  68.615  1.00  0.00    -0.056 A  
HETATM   24  C   UNL     1      -8.517   4.627  67.550  1.00  0.00    -0.104 A  
HETATM   25  N   UNL     1      -8.439   3.322  67.420  1.00  0.00    -0.091 NA 
HETATM   26  N   UNL     1      -7.662   3.915  69.478  1.00  0.00    -0.052 NA 
ENDBRANCH   8  22
TORSDOF 1
ENDMDL
MODEL       77
REMARK 921   NORMALIZED FREE ENERGY PREDICTED BY IDOCK:   -4.55 KCAL/MOL
REMARK 922        TOTAL FREE ENERGY PREDICTED BY IDOCK:   -4.41 KCAL/MOL
REMARK 923 INTER-LIGAND FREE ENERGY PREDICTED BY IDOCK:   -4.40 KCAL/MOL
REMARK 924 INTRA-LIGAND FREE ENERGY PREDICTED BY IDOCK:   -0.01 KCAL/MOL
REMARK 927      BINDING AFFINITY PREDICTED BY RF-SCORE:    0.00 PKD
ROOT
HETATM    1  C   UNL     1      -8.791   7.953  70.109  1.00  0.00    -0.144 C  
HETATM    2  C   UNL     1      -9.728   8.177  68.910  1.00  0.00    -0.156 C  
HETATM    3  C   UNL     1     -10.260   6.897  68.130  1.00  0.00    -0.176 C  
HETATM    4  C   UNL     1      -9.140   9.246  67.989  1.00  0.00    -0.127 A  
HETATM    5  O   UNL     1     -11.354   7.442  67.326  1.00  0.00    -0.493 OA 
HETATM    6  N   UNL     1      -7.787   9.331  67.898  1.00  0.00    -0.092 NA 
HETATM    7  C   UNL     1      -9.320   6.140  67.170  1.00  0.00    -0.124 A  
HETATM    8  C   UNL     1     -10.997   5.894  69.081  1.00  0.00    -0.312 C  
HETATM    9  C   UNL     1      -7.923   6.262  67.188  1.00  0.00    -0.109 A  
HETATM   10  C   UNL     1      -9.850   5.225  66.234  1.00  0.00    -0.182 A  
HETATM   11  C   UNL     1      -7.286  10.267  67.073  1.00  0.00    -0.092 A  
HETATM   12  H   UNL     1     -11.671   6.677  66.860  1.00  0.00     0.000 HD 
HETATM   13  F   UNL     1     -11.293  10.095  67.394  1.00  0.00    -0.354 F  
HETATM   14  C   UNL     1      -9.057   4.465  65.380  1.00  0.00    -0.143 A  
HETATM   15  F   UNL     1     -11.180   5.069  66.153  1.00  0.00    -0.265 F  
HETATM   16  N   UNL     1      -8.000  11.110  66.316  1.00  0.00    -0.154 NA 
HETATM   17  C   UNL     1      -7.686   4.617  65.435  1.00  0.00    -0.089 A  
HETATM   18  C   UNL     1      -7.112   5.516  66.322  1.00  0.00    -0.072 A  
HETATM   19  C   UNL     1      -9.340  11.004  66.442  1.00  0.00    -0.183 A  
HETATM   20  F   UNL     1      -6.903   3.888  64.631  1.00  0.00    -0.044 F  
HETATM   21  C   UNL     1      -9.960  10.104  67.278  1.00  0.00    -0.195 A  
ENDROOT
BRANCH   8  22
HETATM   22  N   UNL     1     -10.189   4.994  69.865  1.00  0.00    -0.276 NA 
HETATM   23  C   UNL     1      -9.360   4.075  71.536  1.00  0.00    -0.142 A  
HETATM   24  C   UNL     1      -9.563   3.854  69.460  1.00  0.00    -0.178 A  
HETATM   25  N   UNL     1      -8.989   3.277  70.491  1.00  0.00    -0.085 NA 
HETATM   26  N   UNL     1     -10.135   5.113  71.205  1.00  0.00    -0.211 NA 
ENDBRANCH   8  22
TORSDOF 1
ENDMDL
MODEL       78
REMARK 921   NORMALIZED FREE ENERGY PREDICTED BY IDOCK:   -4.54 KCAL/MOL
REMARK 922        TOTAL FREE ENERGY PREDICTED BY IDOCK:   -4.40 KCAL/MOL
REMARK 923 INTER-LIGAND FREE ENERGY PREDICTED BY IDOCK:   -4.47 KCAL/MOL
REMARK 924 INTRA-LIGAND FREE ENERGY PREDICTED BY IDOCK:    0.07 KCAL/MOL
REMARK 927      BINDING AFFINITY PREDICTED BY RF-SCORE:    0.00 PKD
ROOT
HETATM    1  C   UNL     1      -8.937  10.469  63.200  1.00  0.00    -0.240 C  
HETATM    2  C   UNL     1      -8.977  11.528  64.315  1.00  0.00     0.295 C  
HETATM    3  C   UNL     1      -8.379  11.136  65.736  1.00  0.00    -0.041 C  
HETATM    4  C   UNL     1     -10.376  12.139  64.394  1.00  0.00    -0.319 A  
HETATM    5  O   UNL     1      -8.261  12.433  66.402  1.00  0.00    -0.396 OA 
HETATM    6  N   UNL     1     -11.435  11.344  64.087  1.00  0.00    -0.221 NA 
HETATM    7  C   UNL     1      -9.180  10.211  66.675  1.00  0.00    -0.181 A  
HETATM    8  C   UNL     1      -6.891  10.663  65.636  1.00  0.00    -0.075 C  
HETATM    9  C   UNL     1     -10.232   9.388  66.249  1.00  0.00    -0.284 A  
HETATM   10  C   UNL     1      -8.836  10.119  68.041  1.00  0.00    -0.125 A  
HETATM   11  C   UNL     1     -12.659  11.893  64.176  1.00  0.00    -0.223 A  
HETATM   12  H   UNL     1      -7.904  12.199  67.251  1.00  0.00     0.000 HD 
HETATM   13  F   UNL     1      -9.537  14.292  65.001  1.00  0.00    -0.243 F  
HETATM   14  C   UNL     1      -9.476   9.263  68.931  1.00  0.00    -0.154 A  
HETATM   15  F   UNL     1      -7.848  10.890  68.520  1.00  0.00    -0.098 F  
HETATM   16  N   UNL     1     -12.932  13.146  64.559  1.00  0.00    -0.662 NA 
HETATM   17  C   UNL     1     -10.505   8.468  68.466  1.00  0.00    -0.167 A  
HETATM   18  C   UNL     1     -10.897   8.531  67.137  1.00  0.00    -0.062 A  
HETATM   19  C   UNL     1     -11.855  13.909  64.844  1.00  0.00    -0.387 A  
HETATM   20  F   UNL     1     -11.127   7.628  69.301  1.00  0.00    -0.190 F  
HETATM   21  C   UNL     1     -10.557  13.461  64.758  1.00  0.00    -0.405 A  
ENDROOT
BRANCH   8  22
HETATM   22  N   UNL     1      -6.643   9.300  65.236  1.00  0.00    -0.072 NA 
HETATM   23  C   UNL     1      -6.182   7.682  64.013  1.00  0.00    -0.049 A  
HETATM   24  C   UNL     1      -6.400   8.220  66.029  1.00  0.00    -0.049 A  
HETATM   25  N   UNL     1      -6.151   7.171  65.279  1.00  0.00    -0.037 NA 
HETATM   26  N   UNL     1      -6.434   8.993  63.942  1.00  0.00    -0.087 NA 
ENDBRANCH   8  22
TORSDOF 1
ENDMDL
MODEL       79
REMARK 921   NORMALIZED FREE ENERGY PREDICTED BY IDOCK:   -4.51 KCAL/MOL
REMARK 922        TOTAL FREE ENERGY PREDICTED BY IDOCK:   -4.37 KCAL/MOL
REMARK 923 INTER-LIGAND FREE ENERGY PREDICTED BY IDOCK:   -4.71 KCAL/MOL
REMARK 924 INTRA-LIGAND FREE ENERGY PREDICTED BY IDOCK:    0.34 KCAL/MOL
REMARK 927      BINDING AFFINITY PREDICTED BY RF-SCORE:    0.00 PKD
ROOT
HETATM    1  C   UNL     1      -8.246   7.344  68.010  1.00  0.00    -0.124 C  
HETATM    2  C   UNL     1      -9.480   8.003  68.651  1.00  0.00    -0.147 C  
HETATM    3  C   UNL     1     -10.068   9.311  67.963  1.00  0.00    -0.193 C  
HETATM    4  C   UNL     1      -9.257   8.157  70.156  1.00  0.00    -0.155 A  
HETATM    5  O   UNL     1     -11.381   9.443  68.595  1.00  0.00    -0.459 OA 
HETATM    6  N   UNL     1      -7.989   8.378  70.591  1.00  0.00    -0.094 NA 
HETATM    7  C   UNL     1      -9.339  10.659  68.134  1.00  0.00    -0.152 A  
HETATM    8  C   UNL     1     -10.431   9.070  66.459  1.00  0.00    -0.122 C  
HETATM    9  C   UNL     1      -8.005  10.779  68.547  1.00  0.00    -0.130 A  
HETATM   10  C   UNL     1     -10.002  11.867  67.823  1.00  0.00    -0.186 A  
HETATM   11  C   UNL     1      -7.813   8.527  71.916  1.00  0.00    -0.111 A  
HETATM   12  H   UNL     1     -11.732  10.225  68.184  1.00  0.00     0.000 HD 
HETATM   13  F   UNL     1     -11.563   7.786  70.660  1.00  0.00    -0.284 F  
HETATM   14  C   UNL     1      -9.388  13.113  67.897  1.00  0.00    -0.215 A  
HETATM   15  F   UNL     1     -11.286  11.827  67.436  1.00  0.00    -0.291 F  
HETATM   16  N   UNL     1      -8.778   8.498  72.844  1.00  0.00    -0.376 NA 
HETATM   17  C   UNL     1      -8.070  13.181  68.305  1.00  0.00    -0.152 A  
HETATM   18  C   UNL     1      -7.377  12.028  68.642  1.00  0.00    -0.111 A  
HETATM   19  C   UNL     1     -10.022   8.265  72.375  1.00  0.00    -0.309 A  
HETATM   20  F   UNL     1      -7.456  14.368  68.373  1.00  0.00    -0.096 F  
HETATM   21  C   UNL     1     -10.313   8.068  71.045  1.00  0.00    -0.201 A  
ENDROOT
BRANCH   8  22
HETATM   22  N   UNL     1      -9.364   9.126  65.492  1.00  0.00    -0.238 NA 
HETATM   23  C   UNL     1      -7.967   9.930  64.177  1.00  0.00    -0.150 A  
HETATM   24  C   UNL     1      -8.486   8.144  65.149  1.00  0.00    -0.116 A  
HETATM   25  N   UNL     1      -7.618   8.614  64.281  1.00  0.00    -0.113 NA 
HETATM   26  N   UNL     1      -9.004  10.299  64.937  1.00  0.00    -0.185 NA 
ENDBRANCH   8  22
TORSDOF 1
ENDMDL
MODEL       80
REMARK 921   NORMALIZED FREE ENERGY PREDICTED BY IDOCK:   -4.49 KCAL/MOL
REMARK 922        TOTAL FREE ENERGY PREDICTED BY IDOCK:   -4.35 KCAL/MOL
REMARK 923 INTER-LIGAND FREE ENERGY PREDICTED BY IDOCK:   -4.40 KCAL/MOL
REMARK 924 INTRA-LIGAND FREE ENERGY PREDICTED BY IDOCK:    0.04 KCAL/MOL
REMARK 927      BINDING AFFINITY PREDICTED BY RF-SCORE:    0.00 PKD
ROOT
HETATM    1  C   UNL     1     -11.959  11.001  67.748  1.00  0.00     0.211 C  
HETATM    2  C   UNL     1     -11.118  11.646  66.633  1.00  0.00    -0.364 C  
HETATM    3  C   UNL     1      -9.742  10.952  66.241  1.00  0.00    -0.204 C  
HETATM    4  C   UNL     1     -10.988  13.147  66.891  1.00  0.00    -0.276 A  
HETATM    5  O   UNL     1      -9.410  11.594  64.969  1.00  0.00    -0.383 OA 
HETATM    6  N   UNL     1     -10.956  13.570  68.182  1.00  0.00    -0.246 NA 
HETATM    7  C   UNL     1      -8.517  11.105  67.165  1.00  0.00    -0.137 A  
HETATM    8  C   UNL     1      -9.937   9.454  65.830  1.00  0.00    -0.256 C  
HETATM    9  C   UNL     1      -8.595  11.505  68.506  1.00  0.00    -0.140 A  
HETATM   10  C   UNL     1      -7.226  10.789  66.687  1.00  0.00    -0.134 A  
HETATM   11  C   UNL     1     -10.826  14.892  68.391  1.00  0.00    -0.251 A  
HETATM   12  H   UNL     1      -8.588  11.179  64.735  1.00  0.00     0.000 HD 
HETATM   13  F   UNL     1     -11.006  13.675  64.561  1.00  0.00    -0.340 F  
HETATM   14  C   UNL     1      -6.085  10.847  67.482  1.00  0.00    -0.049 A  
HETATM   15  F   UNL     1      -7.075  10.413  65.408  1.00  0.00    -0.127 F  
HETATM   16  N   UNL     1     -10.703  15.828  67.443  1.00  0.00    -0.314 NA 
HETATM   17  C   UNL     1      -6.212  11.243  68.798  1.00  0.00    -0.045 A  
HETATM   18  C   UNL     1      -7.453  11.584  69.315  1.00  0.00     0.033 A  
HETATM   19  C   UNL     1     -10.750  15.373  66.173  1.00  0.00    -0.314 A  
HETATM   20  F   UNL     1      -5.130  11.295  69.585  1.00  0.00    -0.042 F  
HETATM   21  C   UNL     1     -10.911  14.047  65.843  1.00  0.00    -0.288 A  
ENDROOT
BRANCH   8  22
HETATM   22  N   UNL     1     -10.048   8.476  66.884  1.00  0.00    -0.267 NA 
HETATM   23  C   UNL     1     -10.825   6.918  68.022  1.00  0.00    -0.200 A  
HETATM   24  C   UNL     1      -9.081   8.051  67.743  1.00  0.00    -0.131 A  
HETATM   25  N   UNL     1      -9.561   7.096  68.508  1.00  0.00    -0.139 NA 
HETATM   26  N   UNL     1     -11.150   7.711  66.995  1.00  0.00     0.006 NA 
ENDBRANCH   8  22
TORSDOF 1
ENDMDL
MODEL       81
REMARK 921   NORMALIZED FREE ENERGY PREDICTED BY IDOCK:   -4.48 KCAL/MOL
REMARK 922        TOTAL FREE ENERGY PREDICTED BY IDOCK:   -4.34 KCAL/MOL
REMARK 923 INTER-LIGAND FREE ENERGY PREDICTED BY IDOCK:   -4.61 KCAL/MOL
REMARK 924 INTRA-LIGAND FREE ENERGY PREDICTED BY IDOCK:    0.27 KCAL/MOL
REMARK 927      BINDING AFFINITY PREDICTED BY RF-SCORE:    0.00 PKD
ROOT
HETATM    1  C   UNL     1     -10.675   7.687  72.777  1.00  0.00    -0.401 C  
HETATM    2  C   UNL     1      -9.248   7.447  72.256  1.00  0.00    -0.162 C  
HETATM    3  C   UNL     1      -8.898   7.945  70.786  1.00  0.00    -0.139 C  
HETATM    4  C   UNL     1      -8.841   5.997  72.517  1.00  0.00    -0.132 A  
HETATM    5  O   UNL     1      -7.437   7.882  70.766  1.00  0.00    -0.069 OA 
HETATM    6  N   UNL     1      -9.814   5.048  72.480  1.00  0.00    -0.155 NA 
HETATM    7  C   UNL     1      -9.407   7.149  69.567  1.00  0.00    -0.148 A  
HETATM    8  C   UNL     1      -9.181   9.474  70.601  1.00  0.00    -0.180 C  
HETATM    9  C   UNL     1     -10.456   6.220  69.624  1.00  0.00    -0.295 A  
HETATM   10  C   UNL     1      -8.846   7.372  68.291  1.00  0.00    -0.128 A  
HETATM   11  C   UNL     1      -9.437   3.776  72.697  1.00  0.00    -0.124 A  
HETATM   12  H   UNL     1      -7.228   8.179  69.887  1.00  0.00     0.000 HD 
HETATM   13  F   UNL     1      -6.556   6.577  72.902  1.00  0.00    -0.063 F  
HETATM   14  C   UNL     1      -9.296   6.735  67.139  1.00  0.00    -0.154 A  
HETATM   15  F   UNL     1      -7.828   8.238  68.166  1.00  0.00    -0.108 F  
HETATM   16  N   UNL     1      -8.187   3.356  72.927  1.00  0.00    -0.079 NA 
HETATM   17  C   UNL     1     -10.334   5.829  67.243  1.00  0.00    -0.230 A  
HETATM   18  C   UNL     1     -10.910   5.558  68.475  1.00  0.00    -0.072 A  
HETATM   19  C   UNL     1      -7.251   4.327  72.968  1.00  0.00    -0.069 A  
HETATM   20  F   UNL     1     -10.791   5.213  66.147  1.00  0.00    -0.318 F  
HETATM   21  C   UNL     1      -7.527   5.663  72.791  1.00  0.00    -0.096 A  
ENDROOT
BRANCH   8  22
HETATM   22  N   UNL     1     -10.539   9.880  70.339  1.00  0.00    -0.291 NA 
HETATM   23  C   UNL     1     -12.504  10.456  70.702  1.00  0.00    -0.348 A  
HETATM   24  C   UNL     1     -11.066  10.357  69.178  1.00  0.00    -0.246 A  
HETATM   25  N   UNL     1     -12.324  10.684  69.367  1.00  0.00    -0.270 NA 
HETATM   26  N   UNL     1     -11.423  10.007  71.347  1.00  0.00    -0.328 NA 
ENDBRANCH   8  22
TORSDOF 1
ENDMDL
MODEL       82
REMARK 921   NORMALIZED FREE ENERGY PREDICTED BY IDOCK:   -4.48 KCAL/MOL
REMARK 922        TOTAL FREE ENERGY PREDICTED BY IDOCK:   -4.33 KCAL/MOL
REMARK 923 INTER-LIGAND FREE ENERGY PREDICTED BY IDOCK:   -4.33 KCAL/MOL
REMARK 924 INTRA-LIGAND FREE ENERGY PREDICTED BY IDOCK:   -0.01 KCAL/MOL
REMARK 927      BINDING AFFINITY PREDICTED BY RF-SCORE:    0.00 PKD
ROOT
HETATM    1  C   UNL     1     -11.266  12.627  66.504  1.00  0.00    -0.342 C  
HETATM    2  C   UNL     1     -10.257  13.327  67.430  1.00  0.00    -0.229 C  
HETATM    3  C   UNL     1      -8.869  12.600  67.704  1.00  0.00    -0.184 C  
HETATM    4  C   UNL     1     -10.962  13.788  68.706  1.00  0.00    -0.264 A  
HETATM    5  O   UNL     1      -8.061  13.665  68.299  1.00  0.00    -0.141 OA 
HETATM    6  N   UNL     1     -11.994  13.034  69.169  1.00  0.00    -0.296 NA 
HETATM    7  C   UNL     1      -8.814  11.393  68.663  1.00  0.00    -0.126 A  
HETATM    8  C   UNL     1      -8.100  12.284  66.378  1.00  0.00     0.285 C  
HETATM    9  C   UNL     1      -9.937  10.647  69.044  1.00  0.00    -0.226 A  
HETATM   10  C   UNL     1      -7.574  10.949  69.172  1.00  0.00    -0.133 A  
HETATM   11  C   UNL     1     -12.594  13.444  70.300  1.00  0.00    -0.117 A  
HETATM   12  H   UNL     1      -7.232  13.230  68.463  1.00  0.00     0.000 HD 
HETATM   13  F   UNL     1      -9.601  15.741  68.902  1.00  0.00    -0.186 F  
HETATM   14  C   UNL     1      -7.443   9.834  69.992  1.00  0.00    -0.158 A  
HETATM   15  F   UNL     1      -6.458  11.627  68.859  1.00  0.00    -0.053 F  
HETATM   16  N   UNL     1     -12.253  14.518  71.024  1.00  0.00    -0.318 NA 
HETATM   17  C   UNL     1      -8.578   9.127  70.339  1.00  0.00    -0.209 A  
HETATM   18  C   UNL     1      -9.824   9.530  69.883  1.00  0.00    -0.254 A  
HETATM   19  C   UNL     1     -11.232  15.248  70.527  1.00  0.00    -0.310 A  
HETATM   20  F   UNL     1      -8.475   8.044  71.118  1.00  0.00    -0.108 F  
HETATM   21  C   UNL     1     -10.567  14.938  69.364  1.00  0.00    -0.246 A  
ENDROOT
BRANCH   8  22
HETATM   22  N   UNL     1      -8.489  11.109  65.638  1.00  0.00    -0.102 NA 
HETATM   23  C   UNL     1      -9.187   9.938  64.067  1.00  0.00    -0.253 A  
HETATM   24  C   UNL     1      -8.202   9.807  65.915  1.00  0.00    -0.117 A  
HETATM   25  N   UNL     1      -8.675   9.040  64.959  1.00  0.00    -0.189 NA 
HETATM   26  N   UNL     1      -9.053  11.221  64.421  1.00  0.00    -0.050 NA 
ENDBRANCH   8  22
TORSDOF 1
ENDMDL
MODEL       83
REMARK 921   NORMALIZED FREE ENERGY PREDICTED BY IDOCK:   -4.46 KCAL/MOL
REMARK 922        TOTAL FREE ENERGY PREDICTED BY IDOCK:   -4.32 KCAL/MOL
REMARK 923 INTER-LIGAND FREE ENERGY PREDICTED BY IDOCK:   -4.68 KCAL/MOL
REMARK 924 INTRA-LIGAND FREE ENERGY PREDICTED BY IDOCK:    0.36 KCAL/MOL
REMARK 927      BINDING AFFINITY PREDICTED BY RF-SCORE:    0.00 PKD
ROOT
HETATM    1  C   UNL     1     -10.141   5.495  68.867  1.00  0.00    -0.266 C  
HETATM    2  C   UNL     1     -10.752   6.831  69.323  1.00  0.00    -0.288 C  
HETATM    3  C   UNL     1     -10.272   8.158  68.589  1.00  0.00    -0.207 C  
HETATM    4  C   UNL     1     -10.697   6.928  70.847  1.00  0.00    -0.230 A  
HETATM    5  O   UNL     1     -11.276   9.137  69.008  1.00  0.00    -0.441 OA 
HETATM    6  N   UNL     1      -9.654   6.334  71.485  1.00  0.00    -0.156 NA 
HETATM    7  C   UNL     1      -8.887   8.755  68.913  1.00  0.00    -0.137 A  
HETATM    8  C   UNL     1     -10.489   8.083  67.040  1.00  0.00    -0.340 C  
HETATM    9  C   UNL     1      -7.855   8.038  69.535  1.00  0.00    -0.105 A  
HETATM   10  C   UNL     1      -8.581  10.080  68.536  1.00  0.00    -0.119 A  
HETATM   11  C   UNL     1      -9.613   6.441  72.824  1.00  0.00    -0.150 A  
HETATM   12  H   UNL     1     -10.989   9.930  68.569  1.00  0.00     0.000 HD 
HETATM   13  F   UNL     1     -12.756   8.133  70.969  1.00  0.00    -0.279 F  
HETATM   14  C   UNL     1      -7.335  10.662  68.743  1.00  0.00    -0.100 A  
HETATM   15  F   UNL     1      -9.528  10.829  67.949  1.00  0.00    -0.150 F  
HETATM   16  N   UNL     1     -10.495   7.099  73.586  1.00  0.00    -0.378 NA 
HETATM   17  C   UNL     1      -6.347   9.917  69.357  1.00  0.00    -0.045 A  
HETATM   18  C   UNL     1      -6.599   8.616  69.765  1.00  0.00    -0.042 A  
HETATM   19  C   UNL     1     -11.522   7.666  72.920  1.00  0.00    -0.290 A  
HETATM   20  F   UNL     1      -5.137  10.452  69.556  1.00  0.00    -0.038 F  
HETATM   21  C   UNL     1     -11.681   7.594  71.555  1.00  0.00    -0.281 A  
ENDROOT
BRANCH   8  22
HETATM   22  N   UNL     1      -9.506   7.379  66.256  1.00  0.00    -0.129 NA 
HETATM   23  C   UNL     1      -7.772   7.032  65.161  1.00  0.00    -0.113 A  
HETATM   24  C   UNL     1      -9.368   6.035  66.088  1.00  0.00    -0.118 A  
HETATM   25  N   UNL     1      -8.304   5.790  65.358  1.00  0.00    -0.137 NA 
HETATM   26  N   UNL     1      -8.451   8.032  65.733  1.00  0.00    -0.140 NA 
ENDBRANCH   8  22
TORSDOF 1
ENDMDL
MODEL       84
REMARK 921   NORMALIZED FREE ENERGY PREDICTED BY IDOCK:   -4.45 KCAL/MOL
REMARK 922        TOTAL FREE ENERGY PREDICTED BY IDOCK:   -4.31 KCAL/MOL
REMARK 923 INTER-LIGAND FREE ENERGY PREDICTED BY IDOCK:   -4.29 KCAL/MOL
REMARK 924 INTRA-LIGAND FREE ENERGY PREDICTED BY IDOCK:   -0.02 KCAL/MOL
REMARK 927      BINDING AFFINITY PREDICTED BY RF-SCORE:    0.00 PKD
ROOT
HETATM    1  C   UNL     1     -10.495  10.480  65.293  1.00  0.00    -0.232 C  
HETATM    2  C   UNL     1      -9.518  11.570  65.765  1.00  0.00    -0.255 C  
HETATM    3  C   UNL     1      -8.174  11.108  66.481  1.00  0.00    -0.167 C  
HETATM    4  C   UNL     1     -10.280  12.644  66.542  1.00  0.00    -0.243 A  
HETATM    5  O   UNL     1      -7.366  12.327  66.464  1.00  0.00    -0.364 OA 
HETATM    6  N   UNL     1     -11.363  12.256  67.266  1.00  0.00    -0.306 NA 
HETATM    7  C   UNL     1      -8.217  10.607  67.939  1.00  0.00    -0.112 A  
HETATM    8  C   UNL     1      -7.341  10.129  65.588  1.00  0.00    -0.144 C  
HETATM    9  C   UNL     1      -9.387  10.182  68.584  1.00  0.00    -0.161 A  
HETATM   10  C   UNL     1      -7.026  10.510  68.690  1.00  0.00    -0.067 A  
HETATM   11  C   UNL     1     -12.012  13.210  67.955  1.00  0.00    -0.304 A  
HETATM   12  H   UNL     1      -6.563  12.050  66.892  1.00  0.00     0.000 HD 
HETATM   13  F   UNL     1      -8.864  14.398  65.750  1.00  0.00     0.015 F  
HETATM   14  C   UNL     1      -6.982  10.012  69.988  1.00  0.00    -0.135 A  
HETATM   15  F   UNL     1      -5.871  10.914  68.139  1.00  0.00    -0.046 F  
HETATM   16  N   UNL     1     -11.677  14.505  68.010  1.00  0.00    -0.337 NA 
HETATM   17  C   UNL     1      -8.160   9.601  70.582  1.00  0.00    -0.024 A  
HETATM   18  C   UNL     1      -9.362   9.692  69.897  1.00  0.00    -0.256 A  
HETATM   19  C   UNL     1     -10.604  14.855  67.270  1.00  0.00    -0.272 A  
HETATM   20  F   UNL     1      -8.141   9.107  71.825  1.00  0.00    -0.143 F  
HETATM   21  C   UNL     1      -9.883  13.969  66.503  1.00  0.00    -0.290 A  
ENDROOT
BRANCH   8  22
HETATM   22  N   UNL     1      -7.727   8.740  65.571  1.00  0.00    -0.090 NA 
HETATM   23  C   UNL     1      -8.408   6.916  64.839  1.00  0.00    -0.017 A  
HETATM   24  C   UNL     1      -7.455   7.779  66.498  1.00  0.00    -0.088 A  
HETATM   25  N   UNL     1      -7.918   6.623  66.080  1.00  0.00    -0.106 NA 
HETATM   26  N   UNL     1      -8.269   8.193  64.467  1.00  0.00    -0.144 NA 
ENDBRANCH   8  22
TORSDOF 1
ENDMDL
MODEL       85
REMARK 921   NORMALIZED FREE ENERGY PREDICTED BY IDOCK:   -4.42 KCAL/MOL
REMARK 922        TOTAL FREE ENERGY PREDICTED BY IDOCK:   -4.27 KCAL/MOL
REMARK 923 INTER-LIGAND FREE ENERGY PREDICTED BY IDOCK:   -4.28 KCAL/MOL
REMARK 924 INTRA-LIGAND FREE ENERGY PREDICTED BY IDOCK:    0.00 KCAL/MOL
REMARK 927      BINDING AFFINITY PREDICTED BY RF-SCORE:    0.00 PKD
ROOT
HETATM    1  C   UNL     1      -7.618   4.706  69.815  1.00  0.00    -0.055 C  
HETATM    2  C   UNL     1      -9.019   5.307  70.018  1.00  0.00    -0.154 C  
HETATM    3  C   UNL     1      -9.821   5.782  68.729  1.00  0.00    -0.139 C  
HETATM    4  C   UNL     1      -8.972   6.361  71.125  1.00  0.00    -0.146 A  
HETATM    5  O   UNL     1     -11.180   5.951  69.241  1.00  0.00    -0.363 OA 
HETATM    6  N   UNL     1      -7.828   7.082  71.267  1.00  0.00    -0.098 NA 
HETATM    7  C   UNL     1      -9.429   7.098  68.026  1.00  0.00    -0.132 A  
HETATM    8  C   UNL     1      -9.986   4.629  67.683  1.00  0.00    -0.106 C  
HETATM    9  C   UNL     1      -8.196   7.742  68.205  1.00  0.00    -0.124 A  
HETATM   10  C   UNL     1     -10.313   7.699  67.104  1.00  0.00    -0.315 A  
HETATM   11  C   UNL     1      -7.808   8.015  72.234  1.00  0.00    -0.118 A  
HETATM   12  H   UNL     1     -11.659   6.235  68.470  1.00  0.00     0.000 HD 
HETATM   13  F   UNL     1     -11.172   5.835  71.892  1.00  0.00    -0.297 F  
HETATM   14  C   UNL     1     -10.001   8.852  66.390  1.00  0.00    -0.354 A  
HETATM   15  F   UNL     1     -11.517   7.144  66.895  1.00  0.00    -0.360 F  
HETATM   16  N   UNL     1      -8.820   8.313  73.058  1.00  0.00    -0.242 NA 
HETATM   17  C   UNL     1      -8.774   9.449  66.597  1.00  0.00    -0.131 A  
HETATM   18  C   UNL     1      -7.874   8.913  67.506  1.00  0.00    -0.101 A  
HETATM   19  C   UNL     1      -9.934   7.570  72.895  1.00  0.00    -0.249 A  
HETATM   20  F   UNL     1      -8.447  10.552  65.914  1.00  0.00    -0.138 F  
HETATM   21  C   UNL     1     -10.055   6.569  71.958  1.00  0.00    -0.184 A  
ENDROOT
BRANCH   8  22
HETATM   22  N   UNL     1      -8.877   4.352  66.805  1.00  0.00    -0.112 NA 
HETATM   23  C   UNL     1      -7.231   3.372  65.995  1.00  0.00    -0.067 A  
HETATM   24  C   UNL     1      -8.612   4.898  65.586  1.00  0.00    -0.131 A  
HETATM   25  N   UNL     1      -7.546   4.328  65.071  1.00  0.00    -0.077 NA 
HETATM   26  N   UNL     1      -8.049   3.320  67.052  1.00  0.00    -0.083 NA 
ENDBRANCH   8  22
TORSDOF 1
ENDMDL
MODEL       86
REMARK 921   NORMALIZED FREE ENERGY PREDICTED BY IDOCK:   -4.39 KCAL/MOL
REMARK 922        TOTAL FREE ENERGY PREDICTED BY IDOCK:   -4.24 KCAL/MOL
REMARK 923 INTER-LIGAND FREE ENERGY PREDICTED BY IDOCK:   -4.38 KCAL/MOL
REMARK 924 INTRA-LIGAND FREE ENERGY PREDICTED BY IDOCK:    0.14 KCAL/MOL
REMARK 927      BINDING AFFINITY PREDICTED BY RF-SCORE:    0.00 PKD
ROOT
HETATM    1  C   UNL     1      -7.129   8.306  67.815  1.00  0.00    -0.083 C  
HETATM    2  C   UNL     1      -7.730   6.910  68.054  1.00  0.00    -0.113 C  
HETATM    3  C   UNL     1      -9.294   6.809  68.326  1.00  0.00    -0.124 C  
HETATM    4  C   UNL     1      -6.886   6.155  69.082  1.00  0.00    -0.062 A  
HETATM    5  O   UNL     1      -9.557   5.380  68.154  1.00  0.00    -0.115 OA 
HETATM    6  N   UNL     1      -6.279   6.878  70.060  1.00  0.00    -0.030 NA 
HETATM    7  C   UNL     1      -9.860   7.217  69.701  1.00  0.00    -0.162 A  
HETATM    8  C   UNL     1     -10.132   7.455  67.172  1.00  0.00    -0.244 C  
HETATM    9  C   UNL     1      -9.167   8.011  70.625  1.00  0.00    -0.156 A  
HETATM   10  C   UNL     1     -11.166   6.831  70.072  1.00  0.00    -0.328 A  
HETATM   11  C   UNL     1      -5.554   6.198  70.964  1.00  0.00    -0.018 A  
HETATM   12  H   UNL     1     -10.492   5.320  68.316  1.00  0.00     0.000 HD 
HETATM   13  F   UNL     1      -7.267   4.045  68.029  1.00  0.00    -0.056 F  
HETATM   14  C   UNL     1     -11.762   7.213  71.270  1.00  0.00    -0.342 A  
HETATM   15  F   UNL     1     -11.881   6.057  69.240  1.00  0.00    -0.348 F  
HETATM   16  N   UNL     1      -5.392   4.870  71.001  1.00  0.00    -0.004 NA 
HETATM   17  C   UNL     1     -11.042   7.998  72.149  1.00  0.00    -0.311 A  
HETATM   18  C   UNL     1      -9.748   8.391  71.844  1.00  0.00    -0.331 A  
HETATM   19  C   UNL     1      -5.999   4.187  70.009  1.00  0.00    -0.018 A  
HETATM   20  F   UNL     1     -11.599   8.387  73.302  1.00  0.00    -0.246 F  
HETATM   21  C   UNL     1      -6.740   4.782  69.014  1.00  0.00    -0.049 A  
ENDROOT
BRANCH   8  22
HETATM   22  N   UNL     1     -10.296   8.888  67.180  1.00  0.00    -0.271 NA 
HETATM   23  C   UNL     1     -10.347  10.846  66.482  1.00  0.00    -0.247 A  
HETATM   24  C   UNL     1     -10.908   9.660  68.119  1.00  0.00    -0.190 A  
HETATM   25  N   UNL     1     -10.912  10.913  67.723  1.00  0.00    -0.261 NA 
HETATM   26  N   UNL     1      -9.996   9.617  66.089  1.00  0.00    -0.274 NA 
ENDBRANCH   8  22
TORSDOF 1
ENDMDL
MODEL       87
REMARK 921   NORMALIZED FREE ENERGY PREDICTED BY IDOCK:   -4.38 KCAL/MOL
REMARK 922        TOTAL FREE ENERGY PREDICTED BY IDOCK:   -4.23 KCAL/MOL
REMARK 923 INTER-LIGAND FREE ENERGY PREDICTED BY IDOCK:   -4.29 KCAL/MOL
REMARK 924 INTRA-LIGAND FREE ENERGY PREDICTED BY IDOCK:    0.07 KCAL/MOL
REMARK 927      BINDING AFFINITY PREDICTED BY RF-SCORE:    0.00 PKD
ROOT
HETATM    1  C   UNL     1     -12.076  10.450  69.815  1.00  0.00    -0.208 C  
HETATM    2  C   UNL     1     -11.400  10.276  68.445  1.00  0.00    -0.244 C  
HETATM    3  C   UNL     1     -10.357   9.087  68.274  1.00  0.00    -0.209 C  
HETATM    4  C   UNL     1     -10.866  11.624  67.960  1.00  0.00    -0.215 A  
HETATM    5  O   UNL     1     -10.199   9.006  66.822  1.00  0.00    -0.256 OA 
HETATM    6  N   UNL     1     -10.430  12.509  68.895  1.00  0.00    -0.140 NA 
HETATM    7  C   UNL     1      -8.945   9.214  68.882  1.00  0.00    -0.139 A  
HETATM    8  C   UNL     1     -10.987   7.699  68.630  1.00  0.00     0.135 C  
HETATM    9  C   UNL     1      -8.607  10.134  69.883  1.00  0.00    -0.100 A  
HETATM   10  C   UNL     1      -7.916   8.340  68.470  1.00  0.00    -0.122 A  
HETATM   11  C   UNL     1      -9.951  13.684  68.450  1.00  0.00    -0.235 A  
HETATM   12  H   UNL     1      -9.575   8.296  66.720  1.00  0.00     0.000 HD 
HETATM   13  F   UNL     1     -11.318  11.119  65.669  1.00  0.00    -0.224 F  
HETATM   14  C   UNL     1      -6.637   8.358  69.018  1.00  0.00    -0.048 A  
HETATM   15  F   UNL     1      -8.167   7.443  67.504  1.00  0.00    -0.109 F  
HETATM   16  N   UNL     1      -9.844  14.053  67.168  1.00  0.00    -0.235 NA 
HETATM   17  C   UNL     1      -6.350   9.280  70.004  1.00  0.00    -0.044 A  
HETATM   18  C   UNL     1      -7.318  10.176  70.434  1.00  0.00    -0.016 A  
HETATM   19  C   UNL     1     -10.297  13.155  66.269  1.00  0.00    -0.287 A  
HETATM   20  F   UNL     1      -5.130   9.309  70.554  1.00  0.00    -0.026 F  
HETATM   21  C   UNL     1     -10.836  11.936  66.612  1.00  0.00    -0.276 A  
ENDROOT
BRANCH   8  22
HETATM   22  N   UNL     1     -11.067   7.334  70.023  1.00  0.00    -0.260 NA 
HETATM   23  C   UNL     1     -11.885   6.696  71.825  1.00  0.00    -0.335 A  
HETATM   24  C   UNL     1     -10.046   7.053  70.879  1.00  0.00    -0.193 A  
HETATM   25  N   UNL     1     -10.537   6.692  72.044  1.00  0.00    -0.209 NA 
HETATM   26  N   UNL     1     -12.253   7.038  70.586  1.00  0.00    -0.300 NA 
ENDBRANCH   8  22
TORSDOF 1
ENDMDL
MODEL       88
REMARK 921   NORMALIZED FREE ENERGY PREDICTED BY IDOCK:   -4.27 KCAL/MOL
REMARK 922        TOTAL FREE ENERGY PREDICTED BY IDOCK:   -4.11 KCAL/MOL
REMARK 923 INTER-LIGAND FREE ENERGY PREDICTED BY IDOCK:   -4.10 KCAL/MOL
REMARK 924 INTRA-LIGAND FREE ENERGY PREDICTED BY IDOCK:   -0.01 KCAL/MOL
REMARK 927      BINDING AFFINITY PREDICTED BY RF-SCORE:    0.00 PKD
ROOT
HETATM    1  C   UNL     1     -11.220   6.356  68.139  1.00  0.00    -0.270 C  
HETATM    2  C   UNL     1      -9.858   5.730  68.484  1.00  0.00    -0.177 C  
HETATM    3  C   UNL     1      -9.140   6.199  69.824  1.00  0.00    -0.141 C  
HETATM    4  C   UNL     1      -8.945   5.778  67.259  1.00  0.00    -0.112 A  
HETATM    5  O   UNL     1      -8.102   5.184  70.003  1.00  0.00    -0.080 OA 
HETATM    6  N   UNL     1      -9.084   6.824  66.403  1.00  0.00    -0.152 NA 
HETATM    7  C   UNL     1      -8.448   7.576  69.880  1.00  0.00    -0.138 A  
HETATM    8  C   UNL     1     -10.049   5.989  71.081  1.00  0.00    -0.194 C  
HETATM    9  C   UNL     1      -8.698   8.613  68.971  1.00  0.00    -0.134 A  
HETATM   10  C   UNL     1      -7.539   7.870  70.920  1.00  0.00    -0.078 A  
HETATM   11  C   UNL     1      -8.263   6.858  65.338  1.00  0.00    -0.134 A  
HETATM   12  H   UNL     1      -7.673   5.464  70.804  1.00  0.00     0.000 HD 
HETATM   13  F   UNL     1      -7.891   3.705  67.809  1.00  0.00    -0.074 F  
HETATM   14  C   UNL     1      -6.924   9.109  71.066  1.00  0.00    -0.102 A  
HETATM   15  F   UNL     1      -7.242   6.917  71.817  1.00  0.00    -0.074 F  
HETATM   16  N   UNL     1      -7.306   5.966  65.056  1.00  0.00    -0.070 NA 
HETATM   17  C   UNL     1      -7.204  10.102  70.147  1.00  0.00    -0.154 A  
HETATM   18  C   UNL     1      -8.075   9.862  69.095  1.00  0.00    -0.118 A  
HETATM   19  C   UNL     1      -7.205   4.936  65.922  1.00  0.00    -0.076 A  
HETATM   20  F   UNL     1      -6.633  11.306  70.274  1.00  0.00    -0.153 F  
HETATM   21  C   UNL     1      -8.012   4.784  67.026  1.00  0.00    -0.103 A  
ENDROOT
BRANCH   8  22
HETATM   22  N   UNL     1     -11.056   6.983  71.357  1.00  0.00    -0.240 NA 
HETATM   23  C   UNL     1     -12.937   7.853  71.535  1.00  0.00    -0.311 A  
HETATM   24  C   UNL     1     -10.927   8.139  72.064  1.00  0.00    -0.286 A  
HETATM   25  N   UNL     1     -12.095   8.734  72.152  1.00  0.00    -0.367 NA 
HETATM   26  N   UNL     1     -12.351   6.743  71.074  1.00  0.00    -0.364 NA 
ENDBRANCH   8  22
TORSDOF 1
ENDMDL
MODEL       89
REMARK 921   NORMALIZED FREE ENERGY PREDICTED BY IDOCK:   -4.23 KCAL/MOL
REMARK 922        TOTAL FREE ENERGY PREDICTED BY IDOCK:   -4.07 KCAL/MOL
REMARK 923 INTER-LIGAND FREE ENERGY PREDICTED BY IDOCK:   -4.09 KCAL/MOL
REMARK 924 INTRA-LIGAND FREE ENERGY PREDICTED BY IDOCK:    0.02 KCAL/MOL
REMARK 927      BINDING AFFINITY PREDICTED BY RF-SCORE:    0.00 PKD
ROOT
HETATM    1  C   UNL     1      -9.437  11.574  65.853  1.00  0.00    -0.251 C  
HETATM    2  C   UNL     1      -9.213  10.052  65.887  1.00  0.00    -0.211 C  
HETATM    3  C   UNL     1      -9.536   9.282  67.241  1.00  0.00    -0.155 C  
HETATM    4  C   UNL     1      -7.834   9.722  65.317  1.00  0.00    -0.120 A  
HETATM    5  O   UNL     1      -9.554   7.882  66.817  1.00  0.00    -0.184 OA 
HETATM    6  N   UNL     1      -6.834  10.623  65.509  1.00  0.00    -0.097 NA 
HETATM    7  C   UNL     1      -8.562   9.387  68.432  1.00  0.00    -0.124 A  
HETATM    8  C   UNL     1     -11.010   9.518  67.713  1.00  0.00    -0.100 C  
HETATM    9  C   UNL     1      -7.591  10.389  68.561  1.00  0.00    -0.095 A  
HETATM   10  C   UNL     1      -8.651   8.469  69.502  1.00  0.00    -0.131 A  
HETATM   11  C   UNL     1      -5.624  10.310  65.013  1.00  0.00    -0.126 A  
HETATM   12  H   UNL     1      -9.747   7.422  67.626  1.00  0.00     0.000 HD 
HETATM   13  F   UNL     1      -8.586   7.669  64.355  1.00  0.00    -0.057 F  
HETATM   14  C   UNL     1      -7.846   8.540  70.635  1.00  0.00    -0.091 A  
HETATM   15  F   UNL     1      -9.549   7.474  69.438  1.00  0.00    -0.155 F  
HETATM   16  N   UNL     1      -5.309   9.182  64.366  1.00  0.00    -0.054 NA 
HETATM   17  C   UNL     1      -6.905   9.548  70.718  1.00  0.00    -0.103 A  
HETATM   18  C   UNL     1      -6.762  10.465  69.688  1.00  0.00    -0.095 A  
HETATM   19  C   UNL     1      -6.328   8.317  64.184  1.00  0.00    -0.067 A  
HETATM   20  F   UNL     1      -6.127   9.643  71.803  1.00  0.00    -0.067 F  
HETATM   21  C   UNL     1      -7.613   8.547  64.621  1.00  0.00    -0.102 A  
ENDROOT
BRANCH   8  22
HETATM   22  N   UNL     1     -11.302  10.740  68.421  1.00  0.00    -0.288 NA 
HETATM   23  C   UNL     1     -12.005  12.664  68.777  1.00  0.00    -0.237 A  
HETATM   24  C   UNL     1     -11.291  10.957  69.765  1.00  0.00    -0.301 A  
HETATM   25  N   UNL     1     -11.687  12.184  70.016  1.00  0.00    -0.291 NA 
HETATM   26  N   UNL     1     -11.829  11.797  67.775  1.00  0.00    -0.592 NA 
ENDBRANCH   8  22
TORSDOF 1
ENDMDL
MODEL       90
REMARK 921   NORMALIZED FREE ENERGY PREDICTED BY IDOCK:   -4.21 KCAL/MOL
REMARK 922        TOTAL FREE ENERGY PREDICTED BY IDOCK:   -4.05 KCAL/MOL
REMARK 923 INTER-LIGAND FREE ENERGY PREDICTED BY IDOCK:   -4.04 KCAL/MOL
REMARK 924 INTRA-LIGAND FREE ENERGY PREDICTED BY IDOCK:   -0.01 KCAL/MOL
REMARK 927      BINDING AFFINITY PREDICTED BY RF-SCORE:    0.00 PKD
ROOT
HETATM    1  C   UNL     1      -7.682  14.007  68.514  1.00  0.00    -0.139 C  
HETATM    2  C   UNL     1      -9.106  13.556  68.881  1.00  0.00     0.213 C  
HETATM    3  C   UNL     1      -9.712  12.303  68.112  1.00  0.00    -0.213 C  
HETATM    4  C   UNL     1     -10.041  14.766  68.899  1.00  0.00    -0.237 A  
HETATM    5  O   UNL     1     -10.874  11.955  68.931  1.00  0.00    -0.221 OA 
HETATM    6  N   UNL     1      -9.786  15.779  68.030  1.00  0.00    -0.211 NA 
HETATM    7  C   UNL     1     -10.207  12.461  66.660  1.00  0.00    -0.241 A  
HETATM    8  C   UNL     1      -8.803  11.036  68.248  1.00  0.00    -0.144 C  
HETATM    9  C   UNL     1      -9.844  13.527  65.824  1.00  0.00    -0.218 A  
HETATM   10  C   UNL     1     -11.035  11.475  66.082  1.00  0.00    -0.266 A  
HETATM   11  C   UNL     1     -10.626  16.829  68.048  1.00  0.00    -0.347 A  
HETATM   12  H   UNL     1     -11.236  11.206  68.471  1.00  0.00     0.000 HD 
HETATM   13  F   UNL     1     -11.352  13.883  70.691  1.00  0.00    -0.204 F  
HETATM   14  C   UNL     1     -11.469  11.523  64.761  1.00  0.00    -0.142 A  
HETATM   15  F   UNL     1     -11.433  10.434  66.830  1.00  0.00    -0.184 F  
HETATM   16  N   UNL     1     -11.704  16.957  68.830  1.00  0.00     0.400 NA 
HETATM   17  C   UNL     1     -11.084  12.591  63.974  1.00  0.00    -0.397 A  
HETATM   18  C   UNL     1     -10.286  13.598  64.496  1.00  0.00    -0.355 A  
HETATM   19  C   UNL     1     -11.920  15.937  69.687  1.00  0.00    -0.260 A  
HETATM   20  F   UNL     1     -11.480  12.652  62.697  1.00  0.00    -0.122 F  
HETATM   21  C   UNL     1     -11.108  14.829  69.776  1.00  0.00    -0.258 A  
ENDROOT
BRANCH   8  22
HETATM   22  N   UNL     1      -7.661  10.930  67.374  1.00  0.00    -0.097 NA 
HETATM   23  C   UNL     1      -5.676  10.779  66.773  1.00  0.00    -0.069 A  
HETATM   24  C   UNL     1      -7.638  10.593  66.055  1.00  0.00    -0.142 A  
HETATM   25  N   UNL     1      -6.394  10.537  65.637  1.00  0.00    -0.129 NA 
HETATM   26  N   UNL     1      -6.411  10.980  67.872  1.00  0.00    -0.057 NA 
ENDBRANCH   8  22
TORSDOF 1
ENDMDL
MODEL       91
REMARK 921   NORMALIZED FREE ENERGY PREDICTED BY IDOCK:   -4.19 KCAL/MOL
REMARK 922        TOTAL FREE ENERGY PREDICTED BY IDOCK:   -4.03 KCAL/MOL
REMARK 923 INTER-LIGAND FREE ENERGY PREDICTED BY IDOCK:   -4.10 KCAL/MOL
REMARK 924 INTRA-LIGAND FREE ENERGY PREDICTED BY IDOCK:    0.07 KCAL/MOL
REMARK 927      BINDING AFFINITY PREDICTED BY RF-SCORE:    0.00 PKD
ROOT
HETATM    1  C   UNL     1     -10.207   8.680  68.363  1.00  0.00    -0.232 C  
HETATM    2  C   UNL     1     -10.029   7.218  67.920  1.00  0.00    -0.192 C  
HETATM    3  C   UNL     1     -10.074   6.089  69.040  1.00  0.00    -0.176 C  
HETATM    4  C   UNL     1      -8.819   7.104  66.993  1.00  0.00    -0.124 A  
HETATM    5  O   UNL     1     -10.229   4.865  68.255  1.00  0.00    -0.122 OA 
HETATM    6  N   UNL     1      -7.774   7.946  67.206  1.00  0.00    -0.103 NA 
HETATM    7  C   UNL     1      -8.861   5.887  69.970  1.00  0.00    -0.139 A  
HETATM    8  C   UNL     1     -11.401   6.138  69.869  1.00  0.00    -0.384 C  
HETATM    9  C   UNL     1      -7.854   6.843  70.159  1.00  0.00    -0.106 A  
HETATM   10  C   UNL     1      -8.743   4.704  70.733  1.00  0.00    -0.104 A  
HETATM   11  C   UNL     1      -6.711   7.822  66.392  1.00  0.00    -0.054 A  
HETATM   12  H   UNL     1     -10.255   4.191  68.925  1.00  0.00     0.000 HD 
HETATM   13  F   UNL     1      -9.829   5.380  65.682  1.00  0.00    -0.156 F  
HETATM   14  C   UNL     1      -7.709   4.480  71.636  1.00  0.00    -0.083 A  
HETATM   15  F   UNL     1      -9.665   3.739  70.590  1.00  0.00    -0.223 F  
HETATM   16  N   UNL     1      -6.581   6.931  65.402  1.00  0.00    -0.049 NA 
HETATM   17  C   UNL     1      -6.740   5.452  71.791  1.00  0.00    -0.060 A  
HETATM   18  C   UNL     1      -6.796   6.625  71.053  1.00  0.00    -0.062 A  
HETATM   19  C   UNL     1      -7.643   6.121  65.212  1.00  0.00    -0.089 A  
HETATM   20  F   UNL     1      -5.742   5.263  72.662  1.00  0.00    -0.018 F  
HETATM   21  C   UNL     1      -8.793   6.179  65.965  1.00  0.00    -0.153 A  
ENDROOT
BRANCH   8  22
HETATM   22  N   UNL     1     -11.492   7.102  70.937  1.00  0.00    -0.285 NA 
HETATM   23  C   UNL     1     -11.988   8.854  71.943  1.00  0.00    -0.371 A  
HETATM   24  C   UNL     1     -11.267   6.910  72.266  1.00  0.00    -0.263 A  
HETATM   25  N   UNL     1     -11.527   8.019  72.921  1.00  0.00    -0.367 NA 
HETATM   26  N   UNL     1     -12.027   8.318  70.718  1.00  0.00    -0.181 NA 
ENDBRANCH   8  22
TORSDOF 1
ENDMDL
MODEL       92
REMARK 921   NORMALIZED FREE ENERGY PREDICTED BY IDOCK:   -4.14 KCAL/MOL
REMARK 922        TOTAL FREE ENERGY PREDICTED BY IDOCK:   -3.98 KCAL/MOL
REMARK 923 INTER-LIGAND FREE ENERGY PREDICTED BY IDOCK:   -4.31 KCAL/MOL
REMARK 924 INTRA-LIGAND FREE ENERGY PREDICTED BY IDOCK:    0.33 KCAL/MOL
REMARK 927      BINDING AFFINITY PREDICTED BY RF-SCORE:    0.00 PKD
ROOT
HETATM    1  C   UNL     1      -9.205  11.422  68.746  1.00  0.00    -0.108 C  
HETATM    2  C   UNL     1      -7.998  10.470  68.809  1.00  0.00    -0.127 C  
HETATM    3  C   UNL     1      -7.738   9.513  67.566  1.00  0.00    -0.095 C  
HETATM    4  C   UNL     1      -7.990   9.737  70.151  1.00  0.00    -0.186 A  
HETATM    5  O   UNL     1      -6.375   9.039  67.805  1.00  0.00    -0.055 OA 
HETATM    6  N   UNL     1      -9.188   9.454  70.727  1.00  0.00    -0.243 NA 
HETATM    7  C   UNL     1      -8.626   8.269  67.359  1.00  0.00    -0.125 A  
HETATM    8  C   UNL     1      -7.595  10.314  66.228  1.00  0.00    -0.117 C  
HETATM    9  C   UNL     1      -9.876   8.093  67.967  1.00  0.00    -0.200 A  
HETATM   10  C   UNL     1      -8.216   7.245  66.477  1.00  0.00    -0.117 A  
HETATM   11  C   UNL     1      -9.164   8.795  71.899  1.00  0.00    -0.250 A  
HETATM   12  H   UNL     1      -6.220   8.467  67.062  1.00  0.00     0.000 HD 
HETATM   13  F   UNL     1      -5.604   9.700  70.257  1.00  0.00    -0.035 F  
HETATM   14  C   UNL     1      -8.993   6.125  66.197  1.00  0.00    -0.164 A  
HETATM   15  F   UNL     1      -7.023   7.342  65.871  1.00  0.00    -0.056 F  
HETATM   16  N   UNL     1      -8.067   8.374  72.540  1.00  0.00    -0.275 NA 
HETATM   17  C   UNL     1     -10.220   5.996  66.818  1.00  0.00    -0.214 A  
HETATM   18  C   UNL     1     -10.664   6.962  67.708  1.00  0.00    -0.321 A  
HETATM   19  C   UNL     1      -6.896   8.683  71.944  1.00  0.00    -0.078 A  
HETATM   20  F   UNL     1     -10.989   4.933  66.556  1.00  0.00    -0.286 F  
HETATM   21  C   UNL     1      -6.801   9.379  70.761  1.00  0.00    -0.109 A  
ENDROOT
BRANCH   8  22
HETATM   22  N   UNL     1      -8.803  10.734  65.563  1.00  0.00    -0.187 NA 
HETATM   23  C   UNL     1     -10.510  10.634  64.380  1.00  0.00    -0.177 A  
HETATM   24  C   UNL     1      -9.555  11.843  65.804  1.00  0.00    -0.224 A  
HETATM   25  N   UNL     1     -10.619  11.828  65.033  1.00  0.00    -0.277 NA 
HETATM   26  N   UNL     1      -9.436   9.909  64.708  1.00  0.00    -0.289 NA 
ENDBRANCH   8  22
TORSDOF 1
ENDMDL
MODEL       93
REMARK 921   NORMALIZED FREE ENERGY PREDICTED BY IDOCK:   -4.08 KCAL/MOL
REMARK 922        TOTAL FREE ENERGY PREDICTED BY IDOCK:   -3.91 KCAL/MOL
REMARK 923 INTER-LIGAND FREE ENERGY PREDICTED BY IDOCK:   -3.91 KCAL/MOL
REMARK 924 INTRA-LIGAND FREE ENERGY PREDICTED BY IDOCK:    0.00 KCAL/MOL
REMARK 927      BINDING AFFINITY PREDICTED BY RF-SCORE:    0.00 PKD
ROOT
HETATM    1  C   UNL     1      -9.114   8.609  65.495  1.00  0.00    -0.190 C  
HETATM    2  C   UNL     1      -8.442   9.258  66.717  1.00  0.00    -0.129 C  
HETATM    3  C   UNL     1      -7.952   8.304  67.892  1.00  0.00    -0.123 C  
HETATM    4  C   UNL     1      -9.287  10.435  67.204  1.00  0.00    -0.157 A  
HETATM    5  O   UNL     1      -7.082   9.182  68.675  1.00  0.00    -0.069 OA 
HETATM    6  N   UNL     1     -10.635  10.354  67.056  1.00  0.00    -0.251 NA 
HETATM    7  C   UNL     1      -8.984   7.696  68.864  1.00  0.00    -0.137 A  
HETATM    8  C   UNL     1      -6.963   7.204  67.381  1.00  0.00    -0.079 C  
HETATM    9  C   UNL     1     -10.357   7.616  68.595  1.00  0.00    -0.220 A  
HETATM   10  C   UNL     1      -8.558   7.131  70.086  1.00  0.00    -0.140 A  
HETATM   11  C   UNL     1     -11.365  11.391  67.503  1.00  0.00    -0.292 A  
HETATM   12  H   UNL     1      -6.790   8.612  69.378  1.00  0.00     0.000 HD 
HETATM   13  F   UNL     1      -7.370  11.695  67.872  1.00  0.00    -0.081 F  
HETATM   14  C   UNL     1      -9.424   6.513  70.982  1.00  0.00    -0.171 A  
HETATM   15  F   UNL     1      -7.258   7.186  70.414  1.00  0.00    -0.064 F  
HETATM   16  N   UNL     1     -10.884  12.489  68.100  1.00  0.00    -0.213 NA 
HETATM   17  C   UNL     1     -10.769   6.455  70.673  1.00  0.00    -0.257 A  
HETATM   18  C   UNL     1     -11.245   7.011  69.495  1.00  0.00    -0.185 A  
HETATM   19  C   UNL     1      -9.541  12.539  68.220  1.00  0.00    -0.209 A  
HETATM   20  F   UNL     1     -11.620   5.855  71.514  1.00  0.00    -0.335 F  
HETATM   21  C   UNL     1      -8.696  11.550  67.771  1.00  0.00    -0.142 A  
ENDROOT
BRANCH   8  22
HETATM   22  N   UNL     1      -7.524   6.031  66.759  1.00  0.00    -0.086 NA 
HETATM   23  C   UNL     1      -8.062   4.687  65.266  1.00  0.00    -0.104 A  
HETATM   24  C   UNL     1      -7.912   4.868  67.351  1.00  0.00    -0.095 A  
HETATM   25  N   UNL     1      -8.303   4.015  66.430  1.00  0.00    -0.104 NA 
HETATM   26  N   UNL     1      -7.541   5.909  65.418  1.00  0.00    -0.082 NA 
ENDBRANCH   8  22
TORSDOF 1
ENDMDL
MODEL       94
REMARK 921   NORMALIZED FREE ENERGY PREDICTED BY IDOCK:   -4.04 KCAL/MOL
REMARK 922        TOTAL FREE ENERGY PREDICTED BY IDOCK:   -3.88 KCAL/MOL
REMARK 923 INTER-LIGAND FREE ENERGY PREDICTED BY IDOCK:   -4.34 KCAL/MOL
REMARK 924 INTRA-LIGAND FREE ENERGY PREDICTED BY IDOCK:    0.47 KCAL/MOL
REMARK 927      BINDING AFFINITY PREDICTED BY RF-SCORE:    0.00 PKD
ROOT
HETATM    1  C   UNL     1     -10.232   4.999  69.809  1.00  0.00    -0.336 C  
HETATM    2  C   UNL     1      -8.887   5.364  69.158  1.00  0.00    -0.110 C  
HETATM    3  C   UNL     1      -8.336   6.842  69.362  1.00  0.00    -0.132 C  
HETATM    4  C   UNL     1      -8.883   4.912  67.697  1.00  0.00    -0.103 A  
HETATM    5  O   UNL     1      -6.942   6.727  68.936  1.00  0.00    -0.079 OA 
HETATM    6  N   UNL     1     -10.063   4.933  67.023  1.00  0.00    -0.207 NA 
HETATM    7  C   UNL     1      -8.962   8.008  68.570  1.00  0.00    -0.133 A  
HETATM    8  C   UNL     1      -8.205   7.215  70.877  1.00  0.00    -0.116 C  
HETATM    9  C   UNL     1     -10.216   7.944  67.947  1.00  0.00    -0.263 A  
HETATM   10  C   UNL     1      -8.290   9.247  68.483  1.00  0.00    -0.119 A  
HETATM   11  C   UNL     1     -10.040   4.547  65.735  1.00  0.00    -0.255 A  
HETATM   12  H   UNL     1      -6.613   7.610  69.058  1.00  0.00     0.000 HD 
HETATM   13  F   UNL     1      -6.552   4.393  67.734  1.00  0.00    -0.041 F  
HETATM   14  C   UNL     1      -8.822  10.358  67.837  1.00  0.00    -0.125 A  
HETATM   15  F   UNL     1      -7.078   9.374  69.045  1.00  0.00    -0.062 F  
HETATM   16  N   UNL     1      -8.956   4.164  65.050  1.00  0.00    -0.130 NA 
HETATM   17  C   UNL     1     -10.062  10.249  67.240  1.00  0.00    -0.203 A  
HETATM   18  C   UNL     1     -10.759   9.050  67.278  1.00  0.00    -0.222 A  
HETATM   19  C   UNL     1      -7.805   4.146  65.755  1.00  0.00    -0.090 A  
HETATM   20  F   UNL     1     -10.599  11.308  66.622  1.00  0.00    -0.256 F  
HETATM   21  C   UNL     1      -7.718   4.490  67.084  1.00  0.00    -0.090 A  
ENDROOT
BRANCH   8  22
HETATM   22  N   UNL     1      -9.395   7.638  71.572  1.00  0.00    -0.136 NA 
HETATM   23  C   UNL     1     -11.144   8.687  71.980  1.00  0.00    -0.367 A  
HETATM   24  C   UNL     1     -10.043   7.008  72.591  1.00  0.00    -0.181 A  
HETATM   25  N   UNL     1     -11.130   7.679  72.901  1.00  0.00    -0.381 NA 
HETATM   26  N   UNL     1     -10.123   8.674  71.116  1.00  0.00    -0.208 NA 
ENDBRANCH   8  22
TORSDOF 1
ENDMDL
MODEL       95
REMARK 921   NORMALIZED FREE ENERGY PREDICTED BY IDOCK:   -3.97 KCAL/MOL
REMARK 922        TOTAL FREE ENERGY PREDICTED BY IDOCK:   -3.80 KCAL/MOL
REMARK 923 INTER-LIGAND FREE ENERGY PREDICTED BY IDOCK:   -3.77 KCAL/MOL
REMARK 924 INTRA-LIGAND FREE ENERGY PREDICTED BY IDOCK:   -0.03 KCAL/MOL
REMARK 927      BINDING AFFINITY PREDICTED BY RF-SCORE:    0.00 PKD
ROOT
HETATM    1  C   UNL     1     -10.909   9.615  68.382  1.00  0.00    -0.212 C  
HETATM    2  C   UNL     1     -10.057   8.482  67.785  1.00  0.00    -0.266 C  
HETATM    3  C   UNL     1      -9.511   7.360  68.773  1.00  0.00    -0.143 C  
HETATM    4  C   UNL     1      -8.974   9.073  66.883  1.00  0.00    -0.123 A  
HETATM    5  O   UNL     1      -9.076   6.308  67.855  1.00  0.00    -0.114 OA 
HETATM    6  N   UNL     1      -8.464  10.288  67.214  1.00  0.00    -0.125 NA 
HETATM    7  C   UNL     1      -8.324   7.674  69.706  1.00  0.00    -0.133 A  
HETATM    8  C   UNL     1     -10.668   6.667  69.569  1.00  0.00    -0.260 C  
HETATM    9  C   UNL     1      -7.904   8.973  70.025  1.00  0.00    -0.088 A  
HETATM   10  C   UNL     1      -7.622   6.624  70.336  1.00  0.00    -0.096 A  
HETATM   11  C   UNL     1      -7.502  10.787  66.418  1.00  0.00    -0.142 A  
HETATM   12  H   UNL     1      -8.750   5.639  68.445  1.00  0.00     0.000 HD 
HETATM   13  F   UNL     1      -9.059   7.229  65.365  1.00  0.00    -0.072 F  
HETATM   14  C   UNL     1      -6.582   6.835  71.235  1.00  0.00    -0.053 A  
HETATM   15  F   UNL     1      -7.963   5.354  70.065  1.00  0.00    -0.076 F  
HETATM   16  N   UNL     1      -6.986  10.185  65.339  1.00  0.00    -0.134 NA 
HETATM   17  C   UNL     1      -6.204   8.132  71.521  1.00  0.00    -0.038 A  
HETATM   18  C   UNL     1      -6.846   9.202  70.916  1.00  0.00    -0.096 A  
HETATM   19  C   UNL     1      -7.525   8.986  65.035  1.00  0.00    -0.097 A  
HETATM   20  F   UNL     1      -5.213   8.360  72.391  1.00  0.00    -0.035 F  
HETATM   21  C   UNL     1      -8.533   8.395  65.760  1.00  0.00    -0.156 A  
ENDROOT
BRANCH   8  22
HETATM   22  N   UNL     1     -11.183   7.342  70.734  1.00  0.00    -0.266 NA 
HETATM   23  C   UNL     1     -12.520   8.344  71.972  1.00  0.00    -0.359 A  
HETATM   24  C   UNL     1     -10.668   7.358  71.994  1.00  0.00    -0.219 A  
HETATM   25  N   UNL     1     -11.472   8.027  72.789  1.00  0.00    -0.405 NA 
HETATM   26  N   UNL     1     -12.406   7.904  70.715  1.00  0.00    -0.069 NA 
ENDBRANCH   8  22
TORSDOF 1
ENDMDL
MODEL       96
REMARK 921   NORMALIZED FREE ENERGY PREDICTED BY IDOCK:   -3.91 KCAL/MOL
REMARK 922        TOTAL FREE ENERGY PREDICTED BY IDOCK:   -3.74 KCAL/MOL
REMARK 923 INTER-LIGAND FREE ENERGY PREDICTED BY IDOCK:   -4.05 KCAL/MOL
REMARK 924 INTRA-LIGAND FREE ENERGY PREDICTED BY IDOCK:    0.32 KCAL/MOL
REMARK 927      BINDING AFFINITY PREDICTED BY RF-SCORE:    0.00 PKD
ROOT
HETATM    1  C   UNL     1      -6.885   6.234  69.859  1.00  0.00    -0.058 C  
HETATM    2  C   UNL     1      -8.416   6.092  69.801  1.00  0.00    -0.126 C  
HETATM    3  C   UNL     1      -9.174   6.711  68.547  1.00  0.00    -0.127 C  
HETATM    4  C   UNL     1      -9.023   6.507  71.141  1.00  0.00    -0.145 A  
HETATM    5  O   UNL     1     -10.501   6.101  68.642  1.00  0.00    -0.186 OA 
HETATM    6  N   UNL     1      -8.396   7.484  71.847  1.00  0.00    -0.105 NA 
HETATM    7  C   UNL     1      -9.378   8.236  68.451  1.00  0.00    -0.136 A  
HETATM    8  C   UNL     1      -8.630   6.143  67.193  1.00  0.00    -0.103 C  
HETATM    9  C   UNL     1      -8.641   9.170  69.194  1.00  0.00    -0.133 A  
HETATM   10  C   UNL     1     -10.316   8.770  67.541  1.00  0.00    -0.268 A  
HETATM   11  C   UNL     1      -8.951   7.847  73.017  1.00  0.00    -0.225 A  
HETATM   12  H   UNL     1     -10.954   6.471  67.892  1.00  0.00     0.000 HD 
HETATM   13  F   UNL     1     -10.776   4.891  70.988  1.00  0.00    -0.252 F  
HETATM   14  C   UNL     1     -10.508  10.136  67.360  1.00  0.00    -0.310 A  
HETATM   15  F   UNL     1     -11.066   7.933  66.808  1.00  0.00    -0.336 F  
HETATM   16  N   UNL     1     -10.077   7.348  73.539  1.00  0.00    -0.327 NA 
HETATM   17  C   UNL     1      -9.757  11.018  68.112  1.00  0.00    -0.174 A  
HETATM   18  C   UNL     1      -8.835  10.549  69.034  1.00  0.00    -0.174 A  
HETATM   19  C   UNL     1     -10.665   6.372  72.816  1.00  0.00    -0.239 A  
HETATM   20  F   UNL     1      -9.917  12.337  67.946  1.00  0.00    -0.182 F  
HETATM   21  C   UNL     1     -10.169   5.901  71.622  1.00  0.00    -0.202 A  
ENDROOT
BRANCH   8  22
HETATM   22  N   UNL     1      -7.422   6.721  66.658  1.00  0.00    -0.077 NA 
HETATM   23  C   UNL     1      -6.167   8.087  65.719  1.00  0.00    -0.041 A  
HETATM   24  C   UNL     1      -6.133   6.357  66.905  1.00  0.00    -0.025 A  
HETATM   25  N   UNL     1      -5.318   7.178  66.283  1.00  0.00    -0.023 NA 
HETATM   26  N   UNL     1      -7.464   7.872  65.962  1.00  0.00    -0.077 NA 
ENDBRANCH   8  22
TORSDOF 1
ENDMDL
MODEL       97
REMARK 921   NORMALIZED FREE ENERGY PREDICTED BY IDOCK:   -3.90 KCAL/MOL
REMARK 922        TOTAL FREE ENERGY PREDICTED BY IDOCK:   -3.73 KCAL/MOL
REMARK 923 INTER-LIGAND FREE ENERGY PREDICTED BY IDOCK:   -3.70 KCAL/MOL
REMARK 924 INTRA-LIGAND FREE ENERGY PREDICTED BY IDOCK:   -0.02 KCAL/MOL
REMARK 927      BINDING AFFINITY PREDICTED BY RF-SCORE:    0.00 PKD
ROOT
HETATM    1  C   UNL     1      -8.967   8.777  70.707  1.00  0.00    -0.231 C  
HETATM    2  C   UNL     1      -8.292   7.395  70.736  1.00  0.00    -0.119 C  
HETATM    3  C   UNL     1      -7.744   6.804  69.364  1.00  0.00    -0.105 C  
HETATM    4  C   UNL     1      -9.166   6.411  71.514  1.00  0.00    -0.144 A  
HETATM    5  O   UNL     1      -6.889   5.704  69.808  1.00  0.00    -0.056 OA 
HETATM    6  N   UNL     1     -10.514   6.576  71.457  1.00  0.00    -0.212 NA 
HETATM    7  C   UNL     1      -8.733   6.227  68.331  1.00  0.00    -0.116 A  
HETATM    8  C   UNL     1      -6.729   7.773  68.672  1.00  0.00    -0.058 C  
HETATM    9  C   UNL     1     -10.108   6.498  68.330  1.00  0.00    -0.169 A  
HETATM   10  C   UNL     1      -8.262   5.413  67.278  1.00  0.00    -0.104 A  
HETATM   11  C   UNL     1     -11.269   5.694  72.134  1.00  0.00    -0.227 A  
HETATM   12  H   UNL     1      -6.562   5.350  68.988  1.00  0.00     0.000 HD 
HETATM   13  F   UNL     1      -7.280   5.236  72.391  1.00  0.00    -0.079 F  
HETATM   14  C   UNL     1      -9.087   4.908  66.278  1.00  0.00    -0.127 A  
HETATM   15  F   UNL     1      -6.958   5.101  67.226  1.00  0.00    -0.058 F  
HETATM   16  N   UNL     1     -10.814   4.653  72.843  1.00  0.00    -0.224 NA 
HETATM   17  C   UNL     1     -10.435   5.204  66.317  1.00  0.00    -0.289 A  
HETATM   18  C   UNL     1     -10.956   5.984  67.339  1.00  0.00    -0.344 A  
HETATM   19  C   UNL     1      -9.471   4.528  72.886  1.00  0.00    -0.130 A  
HETATM   20  F   UNL     1     -11.247   4.739  65.360  1.00  0.00    -0.313 F  
HETATM   21  C   UNL     1      -8.602   5.390  72.257  1.00  0.00    -0.126 A  
ENDROOT
BRANCH   8  22
HETATM   22  N   UNL     1      -7.262   8.871  67.904  1.00  0.00    -0.083 NA 
HETATM   23  C   UNL     1      -7.684  10.826  67.335  1.00  0.00    -0.107 A  
HETATM   24  C   UNL     1      -7.756   8.849  66.636  1.00  0.00    -0.100 A  
HETATM   25  N   UNL     1      -8.076  10.070  66.268  1.00  0.00    -0.115 NA 
HETATM   26  N   UNL     1      -7.136  10.138  68.342  1.00  0.00    -0.070 NA 
ENDBRANCH   8  22
TORSDOF 1
ENDMDL
MODEL       98
REMARK 921   NORMALIZED FREE ENERGY PREDICTED BY IDOCK:   -3.90 KCAL/MOL
REMARK 922        TOTAL FREE ENERGY PREDICTED BY IDOCK:   -3.73 KCAL/MOL
REMARK 923 INTER-LIGAND FREE ENERGY PREDICTED BY IDOCK:   -3.79 KCAL/MOL
REMARK 924 INTRA-LIGAND FREE ENERGY PREDICTED BY IDOCK:    0.06 KCAL/MOL
REMARK 927      BINDING AFFINITY PREDICTED BY RF-SCORE:    0.00 PKD
ROOT
HETATM    1  C   UNL     1      -7.501   7.668  67.162  1.00  0.00    -0.096 C  
HETATM    2  C   UNL     1      -8.928   7.126  67.352  1.00  0.00    -0.122 C  
HETATM    3  C   UNL     1      -9.618   7.325  68.772  1.00  0.00    -0.142 C  
HETATM    4  C   UNL     1      -9.006   5.688  66.837  1.00  0.00    -0.112 A  
HETATM    5  O   UNL     1     -11.023   7.029  68.490  1.00  0.00    -0.398 OA 
HETATM    6  N   UNL     1      -7.897   4.912  66.952  1.00  0.00    -0.098 NA 
HETATM    7  C   UNL     1      -9.193   6.439  69.960  1.00  0.00    -0.159 A  
HETATM    8  C   UNL     1      -9.661   8.831  69.197  1.00  0.00    -0.175 C  
HETATM    9  C   UNL     1      -7.997   5.709  70.001  1.00  0.00    -0.091 A  
HETATM   10  C   UNL     1     -10.002   6.368  71.115  1.00  0.00    -0.180 A  
HETATM   11  C   UNL     1      -7.987   3.646  66.508  1.00  0.00    -0.089 A  
HETATM   12  H   UNL     1     -11.435   7.148  69.338  1.00  0.00     0.000 HD 
HETATM   13  F   UNL     1     -11.255   5.951  66.076  1.00  0.00    -0.116 F  
HETATM   14  C   UNL     1      -9.652   5.637  72.246  1.00  0.00    -0.170 A  
HETATM   15  F   UNL     1     -11.169   7.031  71.139  1.00  0.00    -0.262 F  
HETATM   16  N   UNL     1      -9.077   3.074  65.982  1.00  0.00    -0.147 NA 
HETATM   17  C   UNL     1      -8.462   4.936  72.242  1.00  0.00    -0.123 A  
HETATM   18  C   UNL     1      -7.638   4.955  71.127  1.00  0.00    -0.082 A  
HETATM   19  C   UNL     1     -10.154   3.879  65.873  1.00  0.00    -0.004 A  
HETATM   20  F   UNL     1      -8.099   4.235  73.323  1.00  0.00    -0.086 F  
HETATM   21  C   UNL     1     -10.166   5.197  66.267  1.00  0.00    -0.253 A  
ENDROOT
BRANCH   8  22
HETATM   22  N   UNL     1      -8.470   9.402  69.775  1.00  0.00    -0.147 NA 
HETATM   23  C   UNL     1      -6.885  10.716  70.070  1.00  0.00    -0.148 A  
HETATM   24  C   UNL     1      -7.902   9.122  70.980  1.00  0.00    -0.116 A  
HETATM   25  N   UNL     1      -6.866   9.908  71.171  1.00  0.00    -0.332 NA 
HETATM   26  N   UNL     1      -7.879  10.472  69.210  1.00  0.00    -0.138 NA 
ENDBRANCH   8  22
TORSDOF 1
ENDMDL
MODEL       99
REMARK 921   NORMALIZED FREE ENERGY PREDICTED BY IDOCK:   -3.90 KCAL/MOL
REMARK 922        TOTAL FREE ENERGY PREDICTED BY IDOCK:   -3.72 KCAL/MOL
REMARK 923 INTER-LIGAND FREE ENERGY PREDICTED BY IDOCK:   -3.87 KCAL/MOL
REMARK 924 INTRA-LIGAND FREE ENERGY PREDICTED BY IDOCK:    0.14 KCAL/MOL
REMARK 927      BINDING AFFINITY PREDICTED BY RF-SCORE:    0.00 PKD
ROOT
HETATM    1  C   UNL     1      -6.385   7.420  66.702  1.00  0.00    -0.045 C  
HETATM    2  C   UNL     1      -7.882   7.166  66.454  1.00  0.00    -0.109 C  
HETATM    3  C   UNL     1      -8.911   8.303  66.876  1.00  0.00    -0.146 C  
HETATM    4  C   UNL     1      -8.262   5.780  66.976  1.00  0.00    -0.101 A  
HETATM    5  O   UNL     1     -10.139   7.893  66.195  1.00  0.00    -0.469 OA 
HETATM    6  N   UNL     1      -7.601   5.309  68.066  1.00  0.00    -0.080 NA 
HETATM    7  C   UNL     1      -9.259   8.506  68.365  1.00  0.00    -0.135 A  
HETATM    8  C   UNL     1      -8.581   9.674  66.196  1.00  0.00    -0.127 C  
HETATM    9  C   UNL     1      -8.480   8.016  69.422  1.00  0.00    -0.132 A  
HETATM   10  C   UNL     1     -10.392   9.265  68.730  1.00  0.00    -0.211 A  
HETATM   11  C   UNL     1      -7.957   4.095  68.522  1.00  0.00    -0.073 A  
HETATM   12  H   UNL     1     -10.754   8.572  66.447  1.00  0.00     0.000 HD 
HETATM   13  F   UNL     1      -9.867   5.430  65.242  1.00  0.00    -0.048 F  
HETATM   14  C   UNL     1     -10.732   9.538  70.051  1.00  0.00    -0.278 A  
HETATM   15  F   UNL     1     -11.191   9.752  67.768  1.00  0.00    -0.326 F  
HETATM   16  N   UNL     1      -8.920   3.317  68.012  1.00  0.00    -0.130 NA 
HETATM   17  C   UNL     1      -9.933   9.037  71.060  1.00  0.00    -0.279 A  
HETATM   18  C   UNL     1      -8.818   8.270  70.759  1.00  0.00    -0.162 A  
HETATM   19  C   UNL     1      -9.546   3.813  66.924  1.00  0.00    -0.179 A  
HETATM   20  F   UNL     1     -10.234   9.297  72.337  1.00  0.00    -0.245 F  
HETATM   21  C   UNL     1      -9.243   5.028  66.355  1.00  0.00    -0.139 A  
ENDROOT
BRANCH   8  22
HETATM   22  N   UNL     1      -7.549  10.488  66.788  1.00  0.00    -0.110 NA 
HETATM   23  C   UNL     1      -5.663  11.292  67.137  1.00  0.00    -0.077 A  
HETATM   24  C   UNL     1      -7.692  11.587  67.579  1.00  0.00    -0.132 A  
HETATM   25  N   UNL     1      -6.510  12.088  67.854  1.00  0.00    -0.065 NA 
HETATM   26  N   UNL     1      -6.261  10.327  66.431  1.00  0.00    -0.071 NA 
ENDBRANCH   8  22
TORSDOF 1
ENDMDL
MODEL      100
REMARK 921   NORMALIZED FREE ENERGY PREDICTED BY IDOCK:   -3.89 KCAL/MOL
REMARK 922        TOTAL FREE ENERGY PREDICTED BY IDOCK:   -3.71 KCAL/MOL
REMARK 923 INTER-LIGAND FREE ENERGY PREDICTED BY IDOCK:   -3.70 KCAL/MOL
REMARK 924 INTRA-LIGAND FREE ENERGY PREDICTED BY IDOCK:   -0.02 KCAL/MOL
REMARK 927      BINDING AFFINITY PREDICTED BY RF-SCORE:    0.00 PKD
ROOT
HETATM    1  C   UNL     1     -10.747   8.635  68.472  1.00  0.00    -0.091 C  
HETATM    2  C   UNL     1     -10.360   7.172  68.744  1.00  0.00    -0.200 C  
HETATM    3  C   UNL     1     -10.553   6.612  70.221  1.00  0.00    -0.222 C  
HETATM    4  C   UNL     1      -8.973   6.890  68.166  1.00  0.00    -0.123 A  
HETATM    5  O   UNL     1     -10.435   5.166  70.033  1.00  0.00    -0.293 OA 
HETATM    6  N   UNL     1      -8.070   7.906  68.157  1.00  0.00    -0.121 NA 
HETATM    7  C   UNL     1      -9.557   7.014  71.328  1.00  0.00    -0.164 A  
HETATM    8  C   UNL     1     -12.027   6.776  70.721  1.00  0.00    -0.378 C  
HETATM    9  C   UNL     1      -8.696   8.116  71.240  1.00  0.00    -0.173 A  
HETATM   10  C   UNL     1      -9.511   6.286  72.537  1.00  0.00    -0.142 A  
HETATM   11  C   UNL     1      -6.850   7.637  67.659  1.00  0.00    -0.069 A  
HETATM   12  H   UNL     1     -10.550   4.832  70.916  1.00  0.00     0.000 HD 
HETATM   13  F   UNL     1      -9.532   4.639  67.594  1.00  0.00    -0.135 F  
HETATM   14  C   UNL     1      -8.682   6.627  73.600  1.00  0.00    -0.140 A  
HETATM   15  F   UNL     1     -10.299   5.209  72.682  1.00  0.00    -0.202 F  
HETATM   16  N   UNL     1      -6.437   6.454  67.191  1.00  0.00    -0.044 NA 
HETATM   17  C   UNL     1      -7.852   7.723  73.469  1.00  0.00    -0.146 A  
HETATM   18  C   UNL     1      -7.842   8.463  72.297  1.00  0.00    -0.162 A  
HETATM   19  C   UNL     1      -7.364   5.473  67.205  1.00  0.00    -0.080 A  
HETATM   20  F   UNL     1      -7.053   8.077  74.483  1.00  0.00    -0.137 F  
HETATM   21  C   UNL     1      -8.650   5.643  67.663  1.00  0.00    -0.108 A  
ENDROOT
BRANCH   8  22
HETATM   22  N   UNL     1     -12.425   8.064  71.233  1.00  0.00    -0.286 NA 
HETATM   23  C   UNL     1     -13.396   9.900  71.346  1.00  0.00    -0.365 A  
HETATM   24  C   UNL     1     -12.264   8.556  72.493  1.00  0.00    -0.315 A  
HETATM   25  N   UNL     1     -12.828   9.739  72.578  1.00  0.00    -0.172 NA 
HETATM   26  N   UNL     1     -13.213   8.877  70.505  1.00  0.00     0.573 NA 
ENDBRANCH   8  22
TORSDOF 1
ENDMDL
MODEL      101
REMARK 921   NORMALIZED FREE ENERGY PREDICTED BY IDOCK:   -3.86 KCAL/MOL
REMARK 922        TOTAL FREE ENERGY PREDICTED BY IDOCK:   -3.68 KCAL/MOL
REMARK 923 INTER-LIGAND FREE ENERGY PREDICTED BY IDOCK:   -3.66 KCAL/MOL
REMARK 924 INTRA-LIGAND FREE ENERGY PREDICTED BY IDOCK:   -0.02 KCAL/MOL
REMARK 927      BINDING AFFINITY PREDICTED BY RF-SCORE:    0.00 PKD
ROOT
HETATM    1  C   UNL     1     -12.131   6.471  72.184  1.00  0.00    -0.309 C  
HETATM    2  C   UNL     1     -10.651   6.478  72.603  1.00  0.00    -0.248 C  
HETATM    3  C   UNL     1      -9.697   7.573  71.953  1.00  0.00    -0.159 C  
HETATM    4  C   UNL     1     -10.087   5.060  72.525  1.00  0.00    -0.183 A  
HETATM    5  O   UNL     1      -8.514   7.517  72.810  1.00  0.00    -0.108 OA 
HETATM    6  N   UNL     1     -10.582   4.231  71.568  1.00  0.00     0.125 NA 
HETATM    7  C   UNL     1      -9.217   7.402  70.497  1.00  0.00    -0.157 A  
HETATM    8  C   UNL     1     -10.227   9.027  72.189  1.00  0.00    -0.085 C  
HETATM    9  C   UNL     1      -9.830   6.550  69.568  1.00  0.00    -0.167 A  
HETATM   10  C   UNL     1      -8.130   8.163  70.016  1.00  0.00    -0.114 A  
HETATM   11  C   UNL     1     -10.065   2.992  71.503  1.00  0.00     0.066 A  
HETATM   12  H   UNL     1      -7.944   8.171  72.421  1.00  0.00     0.000 HD 
HETATM   13  F   UNL     1      -8.645   5.396  74.400  1.00  0.00    -0.111 F  
HETATM   14  C   UNL     1      -7.682   8.104  68.700  1.00  0.00    -0.112 A  
HETATM   15  F   UNL     1      -7.487   8.989  70.857  1.00  0.00    -0.070 F  
HETATM   16  N   UNL     1      -9.091   2.506  72.282  1.00  0.00    -0.081 NA 
HETATM   17  C   UNL     1      -8.319   7.252  67.819  1.00  0.00    -0.118 A  
HETATM   18  C   UNL     1      -9.380   6.467  68.243  1.00  0.00    -0.118 A  
HETATM   19  C   UNL     1      -8.632   3.353  73.227  1.00  0.00    -0.078 A  
HETATM   20  F   UNL     1      -7.913   7.187  66.546  1.00  0.00    -0.101 F  
HETATM   21  C   UNL     1      -9.109   4.632  73.404  1.00  0.00    -0.114 A  
ENDROOT
BRANCH   8  22
HETATM   22  N   UNL     1     -11.265   9.516  71.317  1.00  0.00    -0.358 NA 
HETATM   23  C   UNL     1     -13.120  10.233  70.707  1.00  0.00    -0.287 A  
HETATM   24  C   UNL     1     -11.143   9.991  70.047  1.00  0.00    -0.295 A  
HETATM   25  N   UNL     1     -12.313  10.408  69.619  1.00  0.00    -0.087 NA 
HETATM   26  N   UNL     1     -12.509   9.732  71.786  1.00  0.00    -0.391 NA 
ENDBRANCH   8  22
TORSDOF 1
ENDMDL
MODEL      102
REMARK 921   NORMALIZED FREE ENERGY PREDICTED BY IDOCK:   -3.86 KCAL/MOL
REMARK 922        TOTAL FREE ENERGY PREDICTED BY IDOCK:   -3.68 KCAL/MOL
REMARK 923 INTER-LIGAND FREE ENERGY PREDICTED BY IDOCK:   -3.78 KCAL/MOL
REMARK 924 INTRA-LIGAND FREE ENERGY PREDICTED BY IDOCK:    0.10 KCAL/MOL
REMARK 927      BINDING AFFINITY PREDICTED BY RF-SCORE:    0.00 PKD
ROOT
HETATM    1  C   UNL     1     -10.778   7.887  67.445  1.00  0.00    -0.278 C  
HETATM    2  C   UNL     1     -10.242   8.599  68.699  1.00  0.00    -0.214 C  
HETATM    3  C   UNL     1      -8.670   8.805  68.825  1.00  0.00    -0.137 C  
HETATM    4  C   UNL     1     -10.875   7.987  69.949  1.00  0.00    -0.217 A  
HETATM    5  O   UNL     1      -8.560   9.786  69.905  1.00  0.00    -0.190 OA 
HETATM    6  N   UNL     1     -11.182   6.663  69.922  1.00  0.00    -0.342 NA 
HETATM    7  C   UNL     1      -7.770   7.610  69.199  1.00  0.00    -0.109 A  
HETATM    8  C   UNL     1      -8.079   9.576  67.597  1.00  0.00    -0.110 C  
HETATM    9  C   UNL     1      -8.166   6.270  69.090  1.00  0.00    -0.114 A  
HETATM   10  C   UNL     1      -6.445   7.830  69.634  1.00  0.00    -0.031 A  
HETATM   11  C   UNL     1     -11.724   6.137  71.035  1.00  0.00    -0.118 A  
HETATM   12  H   UNL     1      -7.621   9.908  69.980  1.00  0.00     0.000 HD 
HETATM   13  F   UNL     1     -10.909  10.076  71.107  1.00  0.00    -0.383 F  
HETATM   14  C   UNL     1      -5.559   6.799  69.930  1.00  0.00    -0.019 A  
HETATM   15  F   UNL     1      -6.004   9.090  69.775  1.00  0.00    -0.034 F  
HETATM   16  N   UNL     1     -11.971   6.795  72.174  1.00  0.00    -0.294 NA 
HETATM   17  C   UNL     1      -5.993   5.494  69.806  1.00  0.00    -0.017 A  
HETATM   18  C   UNL     1      -7.290   5.220  69.400  1.00  0.00    -0.061 A  
HETATM   19  C   UNL     1     -11.664   8.109  72.159  1.00  0.00    -0.359 A  
HETATM   20  F   UNL     1      -5.155   4.486  70.074  1.00  0.00     0.000 F  
HETATM   21  C   UNL     1     -11.134   8.758  71.068  1.00  0.00    -0.270 A  
ENDROOT
BRANCH   8  22
HETATM   22  N   UNL     1      -7.813   8.825  66.396  1.00  0.00    -0.098 NA 
HETATM   23  C   UNL     1      -7.813   8.310  64.381  1.00  0.00    -0.135 A  
HETATM   24  C   UNL     1      -6.906   7.827  66.210  1.00  0.00    -0.062 A  
HETATM   25  N   UNL     1      -6.919   7.450  64.951  1.00  0.00    -0.050 NA 
HETATM   26  N   UNL     1      -8.351   9.201  65.220  1.00  0.00    -0.137 NA 
ENDBRANCH   8  22
TORSDOF 1
ENDMDL
MODEL      103
REMARK 921   NORMALIZED FREE ENERGY PREDICTED BY IDOCK:   -3.85 KCAL/MOL
REMARK 922        TOTAL FREE ENERGY PREDICTED BY IDOCK:   -3.67 KCAL/MOL
REMARK 923 INTER-LIGAND FREE ENERGY PREDICTED BY IDOCK:   -3.66 KCAL/MOL
REMARK 924 INTRA-LIGAND FREE ENERGY PREDICTED BY IDOCK:   -0.01 KCAL/MOL
REMARK 927      BINDING AFFINITY PREDICTED BY RF-SCORE:    0.00 PKD
ROOT
HETATM    1  C   UNL     1      -9.708  10.097  69.611  1.00  0.00    -0.250 C  
HETATM    2  C   UNL     1      -9.183   9.046  70.603  1.00  0.00    -0.279 C  
HETATM    3  C   UNL     1      -8.176   7.942  70.057  1.00  0.00    -0.119 C  
HETATM    4  C   UNL     1     -10.350   8.460  71.398  1.00  0.00    -0.222 A  
HETATM    5  O   UNL     1      -7.632   7.367  71.287  1.00  0.00    -0.080 OA 
HETATM    6  N   UNL     1     -11.554   8.356  70.776  1.00  0.00    -0.265 NA 
HETATM    7  C   UNL     1      -8.710   6.775  69.203  1.00  0.00    -0.131 A  
HETATM    8  C   UNL     1      -6.913   8.581  69.386  1.00  0.00    -0.049 C  
HETATM    9  C   UNL     1      -9.955   6.785  68.558  1.00  0.00    -0.149 A  
HETATM   10  C   UNL     1      -7.912   5.629  68.991  1.00  0.00    -0.096 A  
HETATM   11  C   UNL     1     -12.566   7.826  71.484  1.00  0.00    -0.333 A  
HETATM   12  H   UNL     1      -7.030   6.708  70.960  1.00  0.00     0.000 HD 
HETATM   13  F   UNL     1      -9.036   8.205  73.377  1.00  0.00    -0.279 F  
HETATM   14  C   UNL     1      -8.305   4.566  68.184  1.00  0.00    -0.095 A  
HETATM   15  F   UNL     1      -6.714   5.547  69.590  1.00  0.00    -0.048 F  
HETATM   16  N   UNL     1     -12.490   7.371  72.741  1.00  0.00     0.275 NA 
HETATM   17  C   UNL     1      -9.539   4.621  67.567  1.00  0.00    -0.163 A  
HETATM   18  C   UNL     1     -10.372   5.714  67.756  1.00  0.00    -0.260 A  
HETATM   19  C   UNL     1     -11.283   7.501  73.330  1.00  0.00    -0.149 A  
HETATM   20  F   UNL     1      -9.934   3.615  66.778  1.00  0.00    -0.215 F  
HETATM   21  C   UNL     1     -10.187   8.057  72.711  1.00  0.00    -0.319 A  
ENDROOT
BRANCH   8  22
HETATM   22  N   UNL     1      -7.034   9.042  68.026  1.00  0.00    -0.076 NA 
HETATM   23  C   UNL     1      -7.162  10.356  66.419  1.00  0.00    -0.119 A  
HETATM   24  C   UNL     1      -6.868   8.330  66.877  1.00  0.00    -0.069 A  
HETATM   25  N   UNL     1      -6.992   9.130  65.842  1.00  0.00    -0.087 NA 
HETATM   26  N   UNL     1      -7.148  10.357  67.756  1.00  0.00    -0.083 NA 
ENDBRANCH   8  22
TORSDOF 1
ENDMDL
MODEL      104
REMARK 921   NORMALIZED FREE ENERGY PREDICTED BY IDOCK:   -3.82 KCAL/MOL
REMARK 922        TOTAL FREE ENERGY PREDICTED BY IDOCK:   -3.64 KCAL/MOL
REMARK 923 INTER-LIGAND FREE ENERGY PREDICTED BY IDOCK:   -3.95 KCAL/MOL
REMARK 924 INTRA-LIGAND FREE ENERGY PREDICTED BY IDOCK:    0.32 KCAL/MOL
REMARK 927      BINDING AFFINITY PREDICTED BY RF-SCORE:    0.00 PKD
ROOT
HETATM    1  C   UNL     1      -8.678   6.226  66.248  1.00  0.00    -0.143 C  
HETATM    2  C   UNL     1      -9.631   6.843  67.286  1.00  0.00    -0.173 C  
HETATM    3  C   UNL     1      -9.614   8.423  67.468  1.00  0.00    -0.154 C  
HETATM    4  C   UNL     1      -9.516   6.080  68.607  1.00  0.00    -0.124 A  
HETATM    5  O   UNL     1     -10.836   8.671  68.232  1.00  0.00    -0.439 OA 
HETATM    6  N   UNL     1      -8.307   5.551  68.932  1.00  0.00    -0.101 NA 
HETATM    7  C   UNL     1      -8.453   9.093  68.231  1.00  0.00    -0.125 A  
HETATM    8  C   UNL     1      -9.891   9.171  66.121  1.00  0.00    -0.293 C  
HETATM    9  C   UNL     1      -7.219   8.475  68.475  1.00  0.00    -0.081 A  
HETATM   10  C   UNL     1      -8.580  10.424  68.685  1.00  0.00    -0.133 A  
HETATM   11  C   UNL     1      -8.220   4.896  70.103  1.00  0.00    -0.073 A  
HETATM   12  H   UNL     1     -10.826   9.615  68.340  1.00  0.00     0.000 HD 
HETATM   13  F   UNL     1     -11.830   6.376  69.122  1.00  0.00    -0.381 F  
HETATM   14  C   UNL     1      -7.553  11.111  69.326  1.00  0.00    -0.057 A  
HETATM   15  F   UNL     1      -9.740  11.072  68.498  1.00  0.00    -0.160 F  
HETATM   16  N   UNL     1      -9.211   4.736  70.988  1.00  0.00    -0.135 NA 
HETATM   17  C   UNL     1      -6.354  10.461  69.543  1.00  0.00    -0.059 A  
HETATM   18  C   UNL     1      -6.181   9.148  69.134  1.00  0.00    -0.042 A  
HETATM   19  C   UNL     1     -10.399   5.265  70.626  1.00  0.00    -0.254 A  
HETATM   20  F   UNL     1      -5.348  11.105  70.147  1.00  0.00    -0.050 F  
HETATM   21  C   UNL     1     -10.610   5.928  69.439  1.00  0.00    -0.309 A  
ENDROOT
BRANCH   8  22
HETATM   22  N   UNL     1      -8.791   9.336  65.204  1.00  0.00    -0.188 NA 
HETATM   23  C   UNL     1      -7.033  10.087  64.386  1.00  0.00    -0.129 A  
HETATM   24  C   UNL     1      -8.382   8.489  64.219  1.00  0.00    -0.105 A  
HETATM   25  N   UNL     1      -7.297   8.965  63.652  1.00  0.00    -0.100 NA 
HETATM   26  N   UNL     1      -7.897  10.327  65.377  1.00  0.00    -0.146 NA 
ENDBRANCH   8  22
TORSDOF 1
ENDMDL
MODEL      105
REMARK 921   NORMALIZED FREE ENERGY PREDICTED BY IDOCK:   -3.78 KCAL/MOL
REMARK 922        TOTAL FREE ENERGY PREDICTED BY IDOCK:   -3.60 KCAL/MOL
REMARK 923 INTER-LIGAND FREE ENERGY PREDICTED BY IDOCK:   -4.41 KCAL/MOL
REMARK 924 INTRA-LIGAND FREE ENERGY PREDICTED BY IDOCK:    0.81 KCAL/MOL
REMARK 927      BINDING AFFINITY PREDICTED BY RF-SCORE:    0.00 PKD
ROOT
HETATM    1  C   UNL     1     -10.880   9.401  67.996  1.00  0.00    -0.197 C  
HETATM    2  C   UNL     1     -10.037   9.685  66.742  1.00  0.00    -0.301 C  
HETATM    3  C   UNL     1      -8.484   9.971  66.937  1.00  0.00    -0.125 C  
HETATM    4  C   UNL     1     -10.740  10.729  65.874  1.00  0.00    -0.073 A  
HETATM    5  O   UNL     1      -7.961   9.843  65.577  1.00  0.00    -0.118 OA 
HETATM    6  N   UNL     1     -11.481  11.681  66.500  1.00  0.00    -0.447 NA 
HETATM    7  C   UNL     1      -8.019  11.337  67.479  1.00  0.00    -0.124 A  
HETATM    8  C   UNL     1      -7.764   8.805  67.694  1.00  0.00    -0.101 C  
HETATM    9  C   UNL     1      -8.856  12.233  68.158  1.00  0.00    -0.187 A  
HETATM   10  C   UNL     1      -6.668  11.728  67.350  1.00  0.00    -0.120 A  
HETATM   11  C   UNL     1     -12.081  12.600  65.723  1.00  0.00    -0.423 A  
HETATM   12  H   UNL     1      -7.033  10.013  65.694  1.00  0.00     0.000 HD 
HETATM   13  F   UNL     1      -9.966   9.741  63.841  1.00  0.00    -0.209 F  
HETATM   14  C   UNL     1      -6.167  12.919  67.868  1.00  0.00    -0.125 A  
HETATM   15  F   UNL     1      -5.814  10.924  66.698  1.00  0.00    -0.055 F  
HETATM   16  N   UNL     1     -11.997  12.675  64.389  1.00  0.00    -0.375 NA 
HETATM   17  C   UNL     1      -7.030  13.769  68.532  1.00  0.00    -0.103 A  
HETATM   18  C   UNL     1      -8.370  13.444  68.671  1.00  0.00    -0.010 A  
HETATM   19  C   UNL     1     -11.263  11.707  63.802  1.00  0.00    -0.414 A  
HETATM   20  F   UNL     1      -6.568  14.914  69.048  1.00  0.00    -0.094 F  
HETATM   21  C   UNL     1     -10.631  10.700  64.495  1.00  0.00    -0.075 A  
ENDROOT
BRANCH   8  22
HETATM   22  N   UNL     1      -7.866   8.772  69.132  1.00  0.00    -0.096 NA 
HETATM   23  C   UNL     1      -7.608   8.115  71.089  1.00  0.00    -0.082 A  
HETATM   24  C   UNL     1      -8.245   9.774  69.972  1.00  0.00    -0.191 A  
HETATM   25  N   UNL     1      -8.136   9.368  71.217  1.00  0.00    -0.287 NA 
HETATM   26  N   UNL     1      -7.383   7.727  69.829  1.00  0.00    -0.078 NA 
ENDBRANCH   8  22
TORSDOF 1
ENDMDL
MODEL      106
REMARK 921   NORMALIZED FREE ENERGY PREDICTED BY IDOCK:   -3.78 KCAL/MOL
REMARK 922        TOTAL FREE ENERGY PREDICTED BY IDOCK:   -3.60 KCAL/MOL
REMARK 923 INTER-LIGAND FREE ENERGY PREDICTED BY IDOCK:   -4.06 KCAL/MOL
REMARK 924 INTRA-LIGAND FREE ENERGY PREDICTED BY IDOCK:    0.46 KCAL/MOL
REMARK 927      BINDING AFFINITY PREDICTED BY RF-SCORE:    0.00 PKD
ROOT
HETATM    1  C   UNL     1      -8.621   8.568  72.479  1.00  0.00    -0.204 C  
HETATM    2  C   UNL     1      -9.121   7.648  71.352  1.00  0.00    -0.146 C  
HETATM    3  C   UNL     1      -8.628   7.950  69.870  1.00  0.00    -0.139 C  
HETATM    4  C   UNL     1     -10.636   7.474  71.463  1.00  0.00    -0.212 A  
HETATM    5  O   UNL     1      -8.988   6.724  69.157  1.00  0.00    -0.133 OA 
HETATM    6  N   UNL     1     -11.362   8.517  71.945  1.00  0.00    -0.305 NA 
HETATM    7  C   UNL     1      -9.237   9.131  69.087  1.00  0.00    -0.144 A  
HETATM    8  C   UNL     1      -7.067   7.965  69.763  1.00  0.00    -0.061 C  
HETATM    9  C   UNL     1      -9.932  10.190  69.687  1.00  0.00    -0.262 A  
HETATM   10  C   UNL     1      -9.066   9.216  67.688  1.00  0.00    -0.122 A  
HETATM   11  C   UNL     1     -12.694   8.353  72.022  1.00  0.00    -0.360 A  
HETATM   12  H   UNL     1      -8.694   6.905  68.271  1.00  0.00     0.000 HD 
HETATM   13  F   UNL     1     -10.559   5.219  70.677  1.00  0.00    -0.311 F  
HETATM   14  C   UNL     1      -9.535  10.282  66.927  1.00  0.00    -0.200 A  
HETATM   15  F   UNL     1      -8.422   8.228  67.046  1.00  0.00    -0.116 F  
HETATM   16  N   UNL     1     -13.373   7.262  71.648  1.00  0.00    -0.378 NA 
HETATM   17  C   UNL     1     -10.212  11.304  67.562  1.00  0.00    -0.189 A  
HETATM   18  C   UNL     1     -10.425  11.263  68.932  1.00  0.00    -0.232 A  
HETATM   19  C   UNL     1     -12.618   6.243  71.186  1.00  0.00     0.437 A  
HETATM   20  F   UNL     1     -10.662  12.345  66.852  1.00  0.00    -0.239 F  
HETATM   21  C   UNL     1     -11.247   6.290  71.092  1.00  0.00    -0.305 A  
ENDROOT
BRANCH   8  22
HETATM   22  N   UNL     1      -6.376   9.166  70.161  1.00  0.00    -0.041 NA 
HETATM   23  C   UNL     1      -5.411  11.002  70.002  1.00  0.00    -0.056 A  
HETATM   24  C   UNL     1      -6.272   9.703  71.408  1.00  0.00     0.036 A  
HETATM   25  N   UNL     1      -5.623  10.844  71.342  1.00  0.00    -0.337 NA 
HETATM   26  N   UNL     1      -5.897  10.020  69.236  1.00  0.00    -0.038 NA 
ENDBRANCH   8  22
TORSDOF 1
ENDMDL
MODEL      107
REMARK 921   NORMALIZED FREE ENERGY PREDICTED BY IDOCK:   -3.76 KCAL/MOL
REMARK 922        TOTAL FREE ENERGY PREDICTED BY IDOCK:   -3.58 KCAL/MOL
REMARK 923 INTER-LIGAND FREE ENERGY PREDICTED BY IDOCK:   -3.56 KCAL/MOL
REMARK 924 INTRA-LIGAND FREE ENERGY PREDICTED BY IDOCK:   -0.02 KCAL/MOL
REMARK 927      BINDING AFFINITY PREDICTED BY RF-SCORE:    0.00 PKD
ROOT
HETATM    1  C   UNL     1     -10.543  16.931  68.837  1.00  0.00    -0.353 C  
HETATM    2  C   UNL     1      -9.430  16.805  67.784  1.00  0.00    -0.228 C  
HETATM    3  C   UNL     1      -8.833  15.358  67.499  1.00  0.00    -0.180 C  
HETATM    4  C   UNL     1      -8.357  17.863  68.040  1.00  0.00    -0.258 A  
HETATM    5  O   UNL     1      -8.096  15.555  66.251  1.00  0.00    -0.315 OA 
HETATM    6  N   UNL     1      -8.121  18.231  69.327  1.00  0.00     0.089 NA 
HETATM    7  C   UNL     1      -7.860  14.719  68.510  1.00  0.00    -0.130 A  
HETATM    8  C   UNL     1      -9.945  14.336  67.086  1.00  0.00    -0.255 C  
HETATM    9  C   UNL     1      -7.725  15.144  69.839  1.00  0.00     0.041 A  
HETATM   10  C   UNL     1      -7.074  13.609  68.132  1.00  0.00    -0.118 A  
HETATM   11  C   UNL     1      -7.164  19.151  69.536  1.00  0.00    -0.091 A  
HETATM   12  H   UNL     1      -7.740  14.690  66.081  1.00  0.00     0.000 HD 
HETATM   13  F   UNL     1      -7.904  18.146  65.711  1.00  0.00    -0.240 F  
HETATM   14  C   UNL     1      -6.220  12.946  69.009  1.00  0.00    -0.095 A  
HETATM   15  F   UNL     1      -7.143  13.158  66.870  1.00  0.00    -0.062 F  
HETATM   16  N   UNL     1      -6.407  19.724  68.593  1.00  0.00    -0.260 NA 
HETATM   17  C   UNL     1      -6.122  13.399  70.310  1.00  0.00    -0.099 A  
HETATM   18  C   UNL     1      -6.856  14.498  70.730  1.00  0.00     0.464 A  
HETATM   19  C   UNL     1      -6.677  19.344  67.327  1.00  0.00    -0.196 A  
HETATM   20  F   UNL     1      -5.316  12.771  71.174  1.00  0.00    -0.139 F  
HETATM   21  C   UNL     1      -7.653  18.433  66.994  1.00  0.00    -0.220 A  
ENDROOT
BRANCH   8  22
HETATM   22  N   UNL     1     -10.726  13.730  68.135  1.00  0.00    -0.242 NA 
HETATM   23  C   UNL     1     -12.372  13.271  69.322  1.00  0.00    -0.008 A  
HETATM   24  C   UNL     1     -10.413  12.649  68.901  1.00  0.00    -0.080 A  
HETATM   25  N   UNL     1     -11.420  12.366  69.695  1.00  0.00    -0.232 NA 
HETATM   26  N   UNL     1     -12.006  14.098  68.336  1.00  0.00    -0.349 NA 
ENDBRANCH   8  22
TORSDOF 1
ENDMDL
MODEL      108
REMARK 921   NORMALIZED FREE ENERGY PREDICTED BY IDOCK:   -3.74 KCAL/MOL
REMARK 922        TOTAL FREE ENERGY PREDICTED BY IDOCK:   -3.56 KCAL/MOL
REMARK 923 INTER-LIGAND FREE ENERGY PREDICTED BY IDOCK:   -3.54 KCAL/MOL
REMARK 924 INTRA-LIGAND FREE ENERGY PREDICTED BY IDOCK:   -0.02 KCAL/MOL
REMARK 927      BINDING AFFINITY PREDICTED BY RF-SCORE:    0.00 PKD
ROOT
HETATM    1  C   UNL     1     -10.597   5.291  70.197  1.00  0.00    -0.297 C  
HETATM    2  C   UNL     1      -9.288   4.786  69.567  1.00  0.00    -0.198 C  
HETATM    3  C   UNL     1      -7.954   5.600  69.865  1.00  0.00    -0.095 C  
HETATM    4  C   UNL     1      -9.507   4.505  68.080  1.00  0.00    -0.149 A  
HETATM    5  O   UNL     1      -6.909   4.675  69.429  1.00  0.00    -0.047 OA 
HETATM    6  N   UNL     1     -10.400   5.281  67.412  1.00  0.00    -0.197 NA 
HETATM    7  C   UNL     1      -7.703   6.944  69.151  1.00  0.00    -0.106 A  
HETATM    8  C   UNL     1      -7.679   5.733  71.400  1.00  0.00    -0.107 C  
HETATM    9  C   UNL     1      -8.708   7.697  68.528  1.00  0.00    -0.128 A  
HETATM   10  C   UNL     1      -6.409   7.510  69.142  1.00  0.00    -0.035 A  
HETATM   11  C   UNL     1     -10.569   5.031  66.102  1.00  0.00    -0.265 A  
HETATM   12  H   UNL     1      -6.112   5.162  69.606  1.00  0.00     0.000 HD 
HETATM   13  F   UNL     1      -7.988   2.661  68.077  1.00  0.00    -0.058 F  
HETATM   14  C   UNL     1      -6.123   8.746  68.570  1.00  0.00    -0.046 A  
HETATM   15  F   UNL     1      -5.396   6.836  69.708  1.00  0.00    -0.013 F  
HETATM   16  N   UNL     1      -9.923   4.099  65.391  1.00  0.00    -0.207 NA 
HETATM   17  C   UNL     1      -7.146   9.453  67.970  1.00  0.00    -0.081 A  
HETATM   18  C   UNL     1      -8.432   8.936  67.933  1.00  0.00    -0.125 A  
HETATM   19  C   UNL     1      -9.053   3.340  66.090  1.00  0.00    -0.153 A  
HETATM   20  F   UNL     1      -6.896  10.649  67.423  1.00  0.00    -0.071 F  
HETATM   21  C   UNL     1      -8.823   3.488  67.438  1.00  0.00    -0.130 A  
ENDROOT
BRANCH   8  22
HETATM   22  N   UNL     1      -8.384   6.761  72.124  1.00  0.00    -0.107 NA 
HETATM   23  C   UNL     1      -9.732   7.640  73.442  1.00  0.00    -0.304 A  
HETATM   24  C   UNL     1      -8.042   8.070  72.276  1.00  0.00    -0.138 A  
HETATM   25  N   UNL     1      -8.906   8.662  73.069  1.00  0.00    -0.339 NA 
HETATM   26  N   UNL     1      -9.421   6.447  72.923  1.00  0.00    -0.146 NA 
ENDBRANCH   8  22
TORSDOF 1
ENDMDL
MODEL      109
REMARK 921   NORMALIZED FREE ENERGY PREDICTED BY IDOCK:   -3.73 KCAL/MOL
REMARK 922        TOTAL FREE ENERGY PREDICTED BY IDOCK:   -3.54 KCAL/MOL
REMARK 923 INTER-LIGAND FREE ENERGY PREDICTED BY IDOCK:   -3.57 KCAL/MOL
REMARK 924 INTRA-LIGAND FREE ENERGY PREDICTED BY IDOCK:    0.02 KCAL/MOL
REMARK 927      BINDING AFFINITY PREDICTED BY RF-SCORE:    0.00 PKD
ROOT
HETATM    1  C   UNL     1      -9.849   9.173  66.950  1.00  0.00    -0.280 C  
HETATM    2  C   UNL     1      -8.799   8.395  67.761  1.00  0.00    -0.137 C  
HETATM    3  C   UNL     1      -7.792   7.453  66.967  1.00  0.00    -0.116 C  
HETATM    4  C   UNL     1      -9.473   7.701  68.944  1.00  0.00    -0.149 A  
HETATM    5  O   UNL     1      -6.760   7.174  67.966  1.00  0.00    -0.056 OA 
HETATM    6  N   UNL     1     -10.752   7.272  68.784  1.00  0.00    -0.178 NA 
HETATM    7  C   UNL     1      -8.281   6.096  66.423  1.00  0.00    -0.113 A  
HETATM    8  C   UNL     1      -7.002   8.235  65.865  1.00  0.00    -0.064 C  
HETATM    9  C   UNL     1      -9.633   5.766  66.250  1.00  0.00    -0.159 A  
HETATM   10  C   UNL     1      -7.348   5.117  66.018  1.00  0.00    -0.081 A  
HETATM   11  C   UNL     1     -11.325   6.650  69.829  1.00  0.00    -0.354 A  
HETATM   12  H   UNL     1      -6.158   6.611  67.491  1.00  0.00     0.000 HD 
HETATM   13  F   UNL     1      -7.569   7.990  70.358  1.00  0.00    -0.073 F  
HETATM   14  C   UNL     1      -7.717   3.896  65.463  1.00  0.00    -0.085 A  
HETATM   15  F   UNL     1      -6.037   5.361  66.169  1.00  0.00    -0.026 F  
HETATM   16  N   UNL     1     -10.743   6.396  71.007  1.00  0.00    -0.240 NA 
HETATM   17  C   UNL     1      -9.061   3.616  65.309  1.00  0.00    -0.145 A  
HETATM   18  C   UNL     1     -10.021   4.533  65.707  1.00  0.00    -0.253 A  
HETATM   19  C   UNL     1      -9.477   6.847  71.133  1.00  0.00    -0.166 A  
HETATM   20  F   UNL     1      -9.440   2.453  64.767  1.00  0.00    -0.139 F  
HETATM   21  C   UNL     1      -8.804   7.522  70.141  1.00  0.00    -0.147 A  
ENDROOT
BRANCH   8  22
HETATM   22  N   UNL     1      -7.662   8.472  64.605  1.00  0.00    -0.109 NA 
HETATM   23  C   UNL     1      -8.440   9.508  62.978  1.00  0.00    -0.198 A  
HETATM   24  C   UNL     1      -7.955   7.573  63.626  1.00  0.00    -0.074 A  
HETATM   25  N   UNL     1      -8.493   8.196  62.602  1.00  0.00    -0.099 NA 
HETATM   26  N   UNL     1      -7.895   9.728  64.179  1.00  0.00    -0.128 NA 
ENDBRANCH   8  22
TORSDOF 1
ENDMDL
MODEL      110
REMARK 921   NORMALIZED FREE ENERGY PREDICTED BY IDOCK:   -3.58 KCAL/MOL
REMARK 922        TOTAL FREE ENERGY PREDICTED BY IDOCK:   -3.39 KCAL/MOL
REMARK 923 INTER-LIGAND FREE ENERGY PREDICTED BY IDOCK:   -3.74 KCAL/MOL
REMARK 924 INTRA-LIGAND FREE ENERGY PREDICTED BY IDOCK:    0.35 KCAL/MOL
REMARK 927      BINDING AFFINITY PREDICTED BY RF-SCORE:    0.00 PKD
ROOT
HETATM    1  C   UNL     1      -6.920  13.802  67.878  1.00  0.00    -0.158 C  
HETATM    2  C   UNL     1      -7.400  12.764  66.849  1.00  0.00     0.235 C  
HETATM    3  C   UNL     1      -8.962  12.668  66.561  1.00  0.00    -0.112 C  
HETATM    4  C   UNL     1      -6.755  11.410  67.144  1.00  0.00    -0.121 A  
HETATM    5  O   UNL     1      -9.013  11.875  65.333  1.00  0.00    -0.419 OA 
HETATM    6  N   UNL     1      -6.490  11.101  68.441  1.00  0.00    -0.056 NA 
HETATM    7  C   UNL     1      -9.889  11.985  67.587  1.00  0.00    -0.191 A  
HETATM    8  C   UNL     1      -9.560  14.042  66.109  1.00  0.00    -0.241 C  
HETATM    9  C   UNL     1      -9.537  11.753  68.924  1.00  0.00     0.030 A  
HETATM   10  C   UNL     1     -11.195  11.598  67.214  1.00  0.00    -0.304 A  
HETATM   11  C   UNL     1      -5.936   9.901  68.684  1.00  0.00    -0.038 A  
HETATM   12  H   UNL     1      -9.946  11.817  65.161  1.00  0.00     0.000 HD 
HETATM   13  F   UNL     1      -6.626  10.828  64.830  1.00  0.00    -0.080 F  
HETATM   14  C   UNL     1     -12.104  11.032  68.101  1.00  0.00     0.135 A  
HETATM   15  F   UNL     1     -11.593  11.778  65.945  1.00  0.00    -0.387 F  
HETATM   16  N   UNL     1      -5.640   8.973  67.766  1.00  0.00    -0.035 NA 
HETATM   17  C   UNL     1     -11.714  10.825  69.410  1.00  0.00    -0.306 A  
HETATM   18  C   UNL     1     -10.437  11.169  69.827  1.00  0.00     0.116 A  
HETATM   19  C   UNL     1      -5.905   9.319  66.489  1.00  0.00    -0.058 A  
HETATM   20  F   UNL     1     -12.575  10.293  70.285  1.00  0.00    -0.333 F  
HETATM   21  C   UNL     1      -6.443  10.531  66.122  1.00  0.00    -0.122 A  
ENDROOT
BRANCH   8  22
HETATM   22  N   UNL     1      -9.880  15.006  67.132  1.00  0.00    -0.231 NA 
HETATM   23  C   UNL     1     -10.957  15.985  68.618  1.00  0.00    -0.323 A  
HETATM   24  C   UNL     1      -9.037  15.856  67.781  1.00  0.00    -0.196 A  
HETATM   25  N   UNL     1      -9.704  16.523  68.696  1.00  0.00    -0.237 NA 
HETATM   26  N   UNL     1     -11.099  15.019  67.704  1.00  0.00    -0.306 NA 
ENDBRANCH   8  22
TORSDOF 1
ENDMDL
MODEL      111
REMARK 921   NORMALIZED FREE ENERGY PREDICTED BY IDOCK:   -3.54 KCAL/MOL
REMARK 922        TOTAL FREE ENERGY PREDICTED BY IDOCK:   -3.34 KCAL/MOL
REMARK 923 INTER-LIGAND FREE ENERGY PREDICTED BY IDOCK:   -4.19 KCAL/MOL
REMARK 924 INTRA-LIGAND FREE ENERGY PREDICTED BY IDOCK:    0.84 KCAL/MOL
REMARK 927      BINDING AFFINITY PREDICTED BY RF-SCORE:    0.00 PKD
ROOT
HETATM    1  C   UNL     1      -6.126   7.577  68.825  1.00  0.00    -0.031 C  
HETATM    2  C   UNL     1      -7.220   7.889  67.790  1.00  0.00    -0.091 C  
HETATM    3  C   UNL     1      -8.078   9.213  67.989  1.00  0.00    -0.105 C  
HETATM    4  C   UNL     1      -8.074   6.643  67.553  1.00  0.00    -0.118 A  
HETATM    5  O   UNL     1      -8.737   9.367  66.692  1.00  0.00    -0.128 OA 
HETATM    6  N   UNL     1      -8.262   5.793  68.596  1.00  0.00    -0.104 NA 
HETATM    7  C   UNL     1      -9.178   9.257  69.069  1.00  0.00    -0.144 A  
HETATM    8  C   UNL     1      -7.176  10.490  68.071  1.00  0.00    -0.087 C  
HETATM    9  C   UNL     1      -9.257   8.357  70.140  1.00  0.00    -0.159 A  
HETATM   10  C   UNL     1     -10.155  10.277  69.044  1.00  0.00    -0.213 A  
HETATM   11  C   UNL     1      -9.028   4.711  68.375  1.00  0.00    -0.113 A  
HETATM   12  H   UNL     1      -9.250  10.158  66.811  1.00  0.00     0.000 HD 
HETATM   13  F   UNL     1      -8.415   7.164  65.246  1.00  0.00    -0.138 F  
HETATM   14  C   UNL     1     -11.139  10.413  70.018  1.00  0.00    -0.379 A  
HETATM   15  F   UNL     1     -10.148  11.165  68.038  1.00  0.00    -0.166 F  
HETATM   16  N   UNL     1      -9.640   4.405  67.225  1.00  0.00    -0.178 NA 
HETATM   17  C   UNL     1     -11.176   9.503  71.056  1.00  0.00    -0.362 A  
HETATM   18  C   UNL     1     -10.252   8.470  71.121  1.00  0.00    -0.272 A  
HETATM   19  C   UNL     1      -9.422   5.265  66.208  1.00  0.00    -0.156 A  
HETATM   20  F   UNL     1     -12.106   9.620  72.011  1.00  0.00    -0.431 F  
HETATM   21  C   UNL     1      -8.632   6.387  66.313  1.00  0.00    -0.140 A  
ENDROOT
BRANCH   8  22
HETATM   22  N   UNL     1      -6.549  10.791  69.333  1.00  0.00    -0.072 NA 
HETATM   23  C   UNL     1      -5.381  10.544  71.036  1.00  0.00    -0.093 A  
HETATM   24  C   UNL     1      -6.410  12.005  69.936  1.00  0.00    -0.089 A  
HETATM   25  N   UNL     1      -5.714  11.869  71.042  1.00  0.00    -0.375 NA 
HETATM   26  N   UNL     1      -5.833   9.855  69.983  1.00  0.00    -0.042 NA 
ENDBRANCH   8  22
TORSDOF 1
ENDMDL
MODEL      112
REMARK 921   NORMALIZED FREE ENERGY PREDICTED BY IDOCK:   -3.51 KCAL/MOL
REMARK 922        TOTAL FREE ENERGY PREDICTED BY IDOCK:   -3.32 KCAL/MOL
REMARK 923 INTER-LIGAND FREE ENERGY PREDICTED BY IDOCK:   -3.30 KCAL/MOL
REMARK 924 INTRA-LIGAND FREE ENERGY PREDICTED BY IDOCK:   -0.01 KCAL/MOL
REMARK 927      BINDING AFFINITY PREDICTED BY RF-SCORE:    0.00 PKD
ROOT
HETATM    1  C   UNL     1      -5.562   8.160  66.981  1.00  0.00    -0.037 C  
HETATM    2  C   UNL     1      -6.699   7.410  67.695  1.00  0.00    -0.066 C  
HETATM    3  C   UNL     1      -8.190   7.678  67.210  1.00  0.00    -0.119 C  
HETATM    4  C   UNL     1      -6.524   7.531  69.209  1.00  0.00    -0.039 A  
HETATM    5  O   UNL     1      -8.932   6.582  67.832  1.00  0.00    -0.118 OA 
HETATM    6  N   UNL     1      -5.969   8.672  69.695  1.00  0.00    -0.032 NA 
HETATM    7  C   UNL     1      -8.898   8.991  67.601  1.00  0.00    -0.127 A  
HETATM    8  C   UNL     1      -8.369   7.392  65.681  1.00  0.00    -0.140 C  
HETATM    9  C   UNL     1      -8.226  10.136  68.050  1.00  0.00    -0.113 A  
HETATM   10  C   UNL     1     -10.299   9.106  67.471  1.00  0.00    -0.261 A  
HETATM   11  C   UNL     1      -5.836   8.769  71.030  1.00  0.00    -0.039 A  
HETATM   12  H   UNL     1      -9.823   6.742  67.542  1.00  0.00     0.000 HD 
HETATM   13  F   UNL     1      -7.398   5.344  69.611  1.00  0.00    -0.058 F  
HETATM   14  C   UNL     1     -10.996  10.278  67.748  1.00  0.00    -0.360 A  
HETATM   15  F   UNL     1     -11.007   8.042  67.060  1.00  0.00    -0.391 F  
HETATM   16  N   UNL     1      -6.219   7.851  71.925  1.00  0.00    -0.039 NA 
HETATM   17  C   UNL     1     -10.291  11.382  68.185  1.00  0.00    -0.188 A  
HETATM   18  C   UNL     1      -8.915  11.319  68.349  1.00  0.00    -0.167 A  
HETATM   19  C   UNL     1      -6.755   6.727  71.405  1.00  0.00    -0.061 A  
HETATM   20  F   UNL     1     -10.938  12.524  68.447  1.00  0.00    -0.222 F  
HETATM   21  C   UNL     1      -6.911   6.508  70.056  1.00  0.00    -0.063 A  
ENDROOT
BRANCH   8  22
HETATM   22  N   UNL     1      -7.958   8.414  64.752  1.00  0.00    -0.131 NA 
HETATM   23  C   UNL     1      -6.840   9.381  63.289  1.00  0.00    -0.096 A  
HETATM   24  C   UNL     1      -8.676   9.478  64.299  1.00  0.00    -0.207 A  
HETATM   25  N   UNL     1      -7.972  10.136  63.405  1.00  0.00    -0.157 NA 
HETATM   26  N   UNL     1      -6.808   8.291  64.062  1.00  0.00    -0.074 NA 
ENDBRANCH   8  22
TORSDOF 1
ENDMDL
MODEL      113
REMARK 921   NORMALIZED FREE ENERGY PREDICTED BY IDOCK:   -3.51 KCAL/MOL
REMARK 922        TOTAL FREE ENERGY PREDICTED BY IDOCK:   -3.31 KCAL/MOL
REMARK 923 INTER-LIGAND FREE ENERGY PREDICTED BY IDOCK:   -3.62 KCAL/MOL
REMARK 924 INTRA-LIGAND FREE ENERGY PREDICTED BY IDOCK:    0.31 KCAL/MOL
REMARK 927      BINDING AFFINITY PREDICTED BY RF-SCORE:    0.00 PKD
ROOT
HETATM    1  C   UNL     1     -10.785   5.150  71.951  1.00  0.00    -0.219 C  
HETATM    2  C   UNL     1      -9.367   5.247  72.540  1.00  0.00    -0.154 C  
HETATM    3  C   UNL     1      -8.639   6.661  72.501  1.00  0.00    -0.124 C  
HETATM    4  C   UNL     1      -8.505   4.107  71.997  1.00  0.00    -0.105 A  
HETATM    5  O   UNL     1      -7.521   6.472  73.425  1.00  0.00    -0.085 OA 
HETATM    6  N   UNL     1      -8.756   3.666  70.736  1.00  0.00    -0.071 NA 
HETATM    7  C   UNL     1      -8.054   7.185  71.174  1.00  0.00    -0.104 A  
HETATM    8  C   UNL     1      -9.484   7.775  73.206  1.00  0.00    -0.283 C  
HETATM    9  C   UNL     1      -8.415   6.691  69.913  1.00  0.00    -0.139 A  
HETATM   10  C   UNL     1      -7.133   8.255  71.179  1.00  0.00    -0.059 A  
HETATM   11  C   UNL     1      -7.979   2.673  70.269  1.00  0.00    -0.042 A  
HETATM   12  H   UNL     1      -7.086   7.316  73.401  1.00  0.00     0.000 HD 
HETATM   13  F   UNL     1      -7.277   3.900  74.036  1.00  0.00    -0.054 F  
HETATM   14  C   UNL     1      -6.610   8.816  70.019  1.00  0.00    -0.038 A  
HETATM   15  F   UNL     1      -6.731   8.766  72.354  1.00  0.00    -0.097 F  
HETATM   16  N   UNL     1      -6.967   2.093  70.926  1.00  0.00    -0.032 NA 
HETATM   17  C   UNL     1      -6.998   8.298  68.798  1.00  0.00    -0.067 A  
HETATM   18  C   UNL     1      -7.886   7.235  68.734  1.00  0.00    -0.121 A  
HETATM   19  C   UNL     1      -6.756   2.549  72.178  1.00  0.00    -0.015 A  
HETATM   20  F   UNL     1      -6.518   8.829  67.668  1.00  0.00    -0.056 F  
HETATM   21  C   UNL     1      -7.508   3.539  72.768  1.00  0.00    -0.059 A  
ENDROOT
BRANCH   8  22
HETATM   22  N   UNL     1     -10.554   8.385  72.457  1.00  0.00    -0.330 NA 
HETATM   23  C   UNL     1     -11.511   9.532  71.010  1.00  0.00    -0.349 A  
HETATM   24  C   UNL     1     -11.875   8.056  72.455  1.00  0.00    -0.361 A  
HETATM   25  N   UNL     1     -12.513   8.801  71.581  1.00  0.00    -0.323 NA 
HETATM   26  N   UNL     1     -10.287   9.276  71.483  1.00  0.00    -0.336 NA 
ENDBRANCH   8  22
TORSDOF 1
ENDMDL
MODEL      114
REMARK 921   NORMALIZED FREE ENERGY PREDICTED BY IDOCK:   -3.40 KCAL/MOL
REMARK 922        TOTAL FREE ENERGY PREDICTED BY IDOCK:   -3.20 KCAL/MOL
REMARK 923 INTER-LIGAND FREE ENERGY PREDICTED BY IDOCK:   -3.67 KCAL/MOL
REMARK 924 INTRA-LIGAND FREE ENERGY PREDICTED BY IDOCK:    0.47 KCAL/MOL
REMARK 927      BINDING AFFINITY PREDICTED BY RF-SCORE:    0.00 PKD
ROOT
HETATM    1  C   UNL     1      -7.384  10.927  69.766  1.00  0.00    -0.016 C  
HETATM    2  C   UNL     1      -8.325  10.310  68.718  1.00  0.00    -0.125 C  
HETATM    3  C   UNL     1      -8.720  11.198  67.458  1.00  0.00    -0.129 C  
HETATM    4  C   UNL     1      -9.529   9.678  69.415  1.00  0.00    -0.192 A  
HETATM    5  O   UNL     1      -9.298  10.215  66.542  1.00  0.00    -0.156 OA 
HETATM    6  N   UNL     1      -9.975  10.256  70.562  1.00  0.00     0.191 NA 
HETATM    7  C   UNL     1      -9.747  12.337  67.616  1.00  0.00    -0.194 A  
HETATM    8  C   UNL     1      -7.460  11.699  66.675  1.00  0.00    -0.037 C  
HETATM    9  C   UNL     1     -10.105  12.900  68.848  1.00  0.00     0.043 A  
HETATM   10  C   UNL     1     -10.352  12.908  66.475  1.00  0.00    -0.264 A  
HETATM   11  C   UNL     1     -11.044   9.697  71.155  1.00  0.00    -0.374 A  
HETATM   12  H   UNL     1      -9.534  10.745  65.789  1.00  0.00     0.000 HD 
HETATM   13  F   UNL     1      -9.691   7.916  67.810  1.00  0.00    -0.150 F  
HETATM   14  C   UNL     1     -11.241  13.977  66.539  1.00  0.00    -0.326 A  
HETATM   15  F   UNL     1     -10.065  12.408  65.263  1.00  0.00    -0.272 F  
HETATM   16  N   UNL     1     -11.723   8.634  70.706  1.00  0.00    -0.253 NA 
HETATM   17  C   UNL     1     -11.561  14.501  67.775  1.00  0.00    -0.365 A  
HETATM   18  C   UNL     1     -11.012  13.966  68.931  1.00  0.00    -0.290 A  
HETATM   19  C   UNL     1     -11.246   8.081  69.572  1.00  0.00     0.152 A  
HETATM   20  F   UNL     1     -12.405  15.536  67.861  1.00  0.00    -0.038 F  
HETATM   21  C   UNL     1     -10.142   8.551  68.899  1.00  0.00    -0.203 A  
ENDROOT
BRANCH   8  22
HETATM   22  N   UNL     1      -6.768  12.856  67.184  1.00  0.00    -0.121 NA 
HETATM   23  C   UNL     1      -6.464  14.781  67.912  1.00  0.00    -0.162 A  
HETATM   24  C   UNL     1      -5.507  12.927  67.693  1.00  0.00    -0.109 A  
HETATM   25  N   UNL     1      -5.272  14.148  68.118  1.00  0.00    -0.113 NA 
HETATM   26  N   UNL     1      -7.425  14.014  67.384  1.00  0.00    -0.164 NA 
ENDBRANCH   8  22
TORSDOF 1
ENDMDL
MODEL      115
REMARK 921   NORMALIZED FREE ENERGY PREDICTED BY IDOCK:   -3.31 KCAL/MOL
REMARK 922        TOTAL FREE ENERGY PREDICTED BY IDOCK:   -3.10 KCAL/MOL
REMARK 923 INTER-LIGAND FREE ENERGY PREDICTED BY IDOCK:   -3.15 KCAL/MOL
REMARK 924 INTRA-LIGAND FREE ENERGY PREDICTED BY IDOCK:    0.05 KCAL/MOL
REMARK 927      BINDING AFFINITY PREDICTED BY RF-SCORE:    0.00 PKD
ROOT
HETATM    1  C   UNL     1      -8.252  12.971  67.171  1.00  0.00    -0.132 C  
HETATM    2  C   UNL     1      -8.480  13.863  68.403  1.00  0.00    -0.159 C  
HETATM    3  C   UNL     1      -9.879  14.610  68.534  1.00  0.00    -0.228 C  
HETATM    4  C   UNL     1      -7.279  14.789  68.598  1.00  0.00    -0.119 A  
HETATM    5  O   UNL     1      -9.878  15.049  69.929  1.00  0.00    -0.453 OA 
HETATM    6  N   UNL     1      -6.616  15.211  67.489  1.00  0.00    -0.239 NA 
HETATM    7  C   UNL     1     -10.169  15.849  67.663  1.00  0.00    -0.263 A  
HETATM    8  C   UNL     1     -11.083  13.611  68.487  1.00  0.00    -0.275 C  
HETATM    9  C   UNL     1      -9.452  16.173  66.503  1.00  0.00    -0.289 A  
HETATM   10  C   UNL     1     -11.241  16.708  67.989  1.00  0.00    -0.164 A  
HETATM   11  C   UNL     1      -5.571  16.036  67.677  1.00  0.00    -0.141 A  
HETATM   12  H   UNL     1     -10.714  15.496  70.006  1.00  0.00     0.000 HD 
HETATM   13  F   UNL     1      -7.462  14.729  70.979  1.00  0.00     0.521 F  
HETATM   14  C   UNL     1     -11.597  17.808  67.216  1.00  0.00     1.337 A  
HETATM   15  F   UNL     1     -11.961  16.465  69.095  1.00  0.00    -0.251 F  
HETATM   16  N   UNL     1      -5.137  16.496  68.857  1.00  0.00    -0.116 NA 
HETATM   17  C   UNL     1     -10.863  18.087  66.079  1.00  0.00     0.039 A  
HETATM   18  C   UNL     1      -9.788  17.288  65.722  1.00  0.00    -0.051 A  
HETATM   19  C   UNL     1      -5.812  16.047  69.935  1.00  0.00    -0.170 A  
HETATM   20  F   UNL     1     -11.194  19.134  65.314  1.00  0.00    -0.320 F  
HETATM   21  C   UNL     1      -6.876  15.177  69.863  1.00  0.00    -0.154 A  
ENDROOT
BRANCH   8  22
HETATM   22  N   UNL     1     -11.529  13.153  67.195  1.00  0.00    -0.316 NA 
HETATM   23  C   UNL     1     -12.066  11.843  65.671  1.00  0.00     0.218 A  
HETATM   24  C   UNL     1     -12.153  13.867  66.218  1.00  0.00    -0.451 A  
HETATM   25  N   UNL     1     -12.462  13.070  65.220  1.00  0.00    -0.490 NA 
HETATM   26  N   UNL     1     -11.531  11.840  66.897  1.00  0.00    -0.477 NA 
ENDBRANCH   8  22
TORSDOF 1
ENDMDL
MODEL      116
REMARK 921   NORMALIZED FREE ENERGY PREDICTED BY IDOCK:   -3.27 KCAL/MOL
REMARK 922        TOTAL FREE ENERGY PREDICTED BY IDOCK:   -3.06 KCAL/MOL
REMARK 923 INTER-LIGAND FREE ENERGY PREDICTED BY IDOCK:   -3.81 KCAL/MOL
REMARK 924 INTRA-LIGAND FREE ENERGY PREDICTED BY IDOCK:    0.75 KCAL/MOL
REMARK 927      BINDING AFFINITY PREDICTED BY RF-SCORE:    0.00 PKD
ROOT
HETATM    1  C   UNL     1     -10.749   9.124  66.902  1.00  0.00    -0.149 C  
HETATM    2  C   UNL     1      -9.575   8.147  67.078  1.00  0.00    -0.253 C  
HETATM    3  C   UNL     1      -8.945   7.993  68.531  1.00  0.00    -0.133 C  
HETATM    4  C   UNL     1      -8.531   8.394  65.989  1.00  0.00    -0.132 A  
HETATM    5  O   UNL     1      -8.140   6.779  68.404  1.00  0.00    -0.117 OA 
HETATM    6  N   UNL     1      -8.375   9.665  65.535  1.00  0.00    -0.134 NA 
HETATM    7  C   UNL     1      -8.024   9.098  69.087  1.00  0.00    -0.097 A  
HETATM    8  C   UNL     1     -10.019   7.585  69.595  1.00  0.00    -0.184 C  
HETATM    9  C   UNL     1      -7.972  10.401  68.575  1.00  0.00    -0.114 A  
HETATM   10  C   UNL     1      -7.205   8.839  70.208  1.00  0.00    -0.049 A  
HETATM   11  C   UNL     1      -7.443   9.868  64.588  1.00  0.00    -0.140 A  
HETATM   12  H   UNL     1      -7.763   6.687  69.273  1.00  0.00     0.000 HD 
HETATM   13  F   UNL     1      -7.947   6.081  65.851  1.00  0.00    -0.097 F  
HETATM   14  C   UNL     1      -6.396   9.804  70.798  1.00  0.00    -0.095 A  
HETATM   15  F   UNL     1      -7.195   7.607  70.741  1.00  0.00    -0.058 F  
HETATM   16  N   UNL     1      -6.639   8.933  64.066  1.00  0.00    -0.083 NA 
HETATM   17  C   UNL     1      -6.379  11.076  70.260  1.00  0.00    -0.120 A  
HETATM   18  C   UNL     1      -7.149  11.381  69.148  1.00  0.00    -0.115 A  
HETATM   19  C   UNL     1      -6.830   7.682  64.532  1.00  0.00    -0.055 A  
HETATM   20  F   UNL     1      -5.616  12.024  70.818  1.00  0.00    -0.129 F  
HETATM   21  C   UNL     1      -7.775   7.355  65.477  1.00  0.00    -0.107 A  
ENDROOT
BRANCH   8  22
HETATM   22  N   UNL     1     -10.852   8.625  70.144  1.00  0.00    -0.235 NA 
HETATM   23  C   UNL     1     -12.382   9.529  71.226  1.00  0.00    -0.345 A  
HETATM   24  C   UNL     1     -10.596   9.961  70.212  1.00  0.00    -0.301 A  
HETATM   25  N   UNL     1     -11.573  10.564  70.851  1.00  0.00    -0.332 NA 
HETATM   26  N   UNL     1     -11.954   8.318  70.853  1.00  0.00    -0.235 NA 
ENDBRANCH   8  22
TORSDOF 1
ENDMDL
MODEL      117
REMARK 921   NORMALIZED FREE ENERGY PREDICTED BY IDOCK:   -3.23 KCAL/MOL
REMARK 922        TOTAL FREE ENERGY PREDICTED BY IDOCK:   -3.01 KCAL/MOL
REMARK 923 INTER-LIGAND FREE ENERGY PREDICTED BY IDOCK:   -3.32 KCAL/MOL
REMARK 924 INTRA-LIGAND FREE ENERGY PREDICTED BY IDOCK:    0.31 KCAL/MOL
REMARK 927      BINDING AFFINITY PREDICTED BY RF-SCORE:    0.00 PKD
ROOT
HETATM    1  C   UNL     1     -10.873   5.911  69.411  1.00  0.00    -0.422 C  
HETATM    2  C   UNL     1      -9.365   5.644  69.275  1.00  0.00    -0.150 C  
HETATM    3  C   UNL     1      -8.402   6.895  69.078  1.00  0.00    -0.125 C  
HETATM    4  C   UNL     1      -9.129   4.531  68.253  1.00  0.00    -0.124 A  
HETATM    5  O   UNL     1      -7.080   6.325  69.338  1.00  0.00    -0.068 OA 
HETATM    6  N   UNL     1      -9.997   4.431  67.211  1.00  0.00    -0.158 NA 
HETATM    7  C   UNL     1      -8.335   7.601  67.709  1.00  0.00    -0.118 A  
HETATM    8  C   UNL     1      -8.559   7.942  70.231  1.00  0.00    -0.137 C  
HETATM    9  C   UNL     1      -9.312   7.469  66.714  1.00  0.00    -0.209 A  
HETATM   10  C   UNL     1      -7.269   8.481  67.418  1.00  0.00    -0.084 A  
HETATM   11  C   UNL     1      -9.767   3.457  66.314  1.00  0.00     0.040 A  
HETATM   12  H   UNL     1      -6.504   7.072  69.221  1.00  0.00     0.000 HD 
HETATM   13  F   UNL     1      -7.236   3.677  69.434  1.00  0.00    -0.046 F  
HETATM   14  C   UNL     1      -7.176   9.197  66.229  1.00  0.00    -0.091 A  
HETATM   15  F   UNL     1      -6.290   8.644  68.321  1.00  0.00    -0.050 F  
HETATM   16  N   UNL     1      -8.748   2.589  66.341  1.00  0.00    -0.118 NA 
HETATM   17  C   UNL     1      -8.165   9.036  65.278  1.00  0.00    -0.137 A  
HETATM   18  C   UNL     1      -9.225   8.171  65.504  1.00  0.00     0.045 A  
HETATM   19  C   UNL     1      -7.914   2.712  67.395  1.00  0.00    -0.069 A  
HETATM   20  F   UNL     1      -8.103   9.723  64.131  1.00  0.00    -0.125 F  
HETATM   21  C   UNL     1      -8.071   3.651  68.388  1.00  0.00    -0.070 A  
ENDROOT
BRANCH   8  22
HETATM   22  N   UNL     1      -9.661   8.868  70.153  1.00  0.00    -0.171 NA 
HETATM   23  C   UNL     1     -10.812  10.477  69.510  1.00  0.00    -0.256 A  
HETATM   24  C   UNL     1     -10.911   8.735  70.676  1.00  0.00    -0.232 A  
HETATM   25  N   UNL     1     -11.647   9.765  70.323  1.00  0.00    -0.243 NA 
HETATM   26  N   UNL     1      -9.599   9.940  69.340  1.00  0.00    -0.202 NA 
ENDBRANCH   8  22
TORSDOF 1
ENDMDL
MODEL      118
REMARK 921   NORMALIZED FREE ENERGY PREDICTED BY IDOCK:   -3.19 KCAL/MOL
REMARK 922        TOTAL FREE ENERGY PREDICTED BY IDOCK:   -2.97 KCAL/MOL
REMARK 923 INTER-LIGAND FREE ENERGY PREDICTED BY IDOCK:   -2.96 KCAL/MOL
REMARK 924 INTRA-LIGAND FREE ENERGY PREDICTED BY IDOCK:   -0.01 KCAL/MOL
REMARK 927      BINDING AFFINITY PREDICTED BY RF-SCORE:    0.00 PKD
ROOT
HETATM    1  C   UNL     1      -9.696   7.854  71.123  1.00  0.00    -0.182 C  
HETATM    2  C   UNL     1      -8.646   6.891  71.700  1.00  0.00    -0.117 C  
HETATM    3  C   UNL     1      -7.614   6.222  70.691  1.00  0.00    -0.096 C  
HETATM    4  C   UNL     1      -9.326   5.883  72.627  1.00  0.00    -0.143 A  
HETATM    5  O   UNL     1      -6.592   5.683  71.588  1.00  0.00    -0.049 OA 
HETATM    6  N   UNL     1     -10.596   5.503  72.330  1.00  0.00    -0.216 NA 
HETATM    7  C   UNL     1      -8.075   5.069  69.777  1.00  0.00    -0.074 A  
HETATM    8  C   UNL     1      -6.821   7.292  69.868  1.00  0.00    -0.056 C  
HETATM    9  C   UNL     1      -9.419   4.787  69.494  1.00  0.00    -0.227 A  
HETATM   10  C   UNL     1      -7.121   4.254  69.128  1.00  0.00    -0.051 A  
HETATM   11  C   UNL     1     -11.174   4.605  73.147  1.00  0.00    -0.281 A  
HETATM   12  H   UNL     1      -5.975   5.284  70.984  1.00  0.00     0.000 HD 
HETATM   13  F   UNL     1      -7.446   5.781  74.099  1.00  0.00    -0.090 F  
HETATM   14  C   UNL     1      -7.465   3.236  68.245  1.00  0.00    -0.053 A  
HETATM   15  F   UNL     1      -5.816   4.459  69.365  1.00  0.00    -0.015 F  
HETATM   16  N   UNL     1     -10.604   4.035  74.216  1.00  0.00    -0.226 NA 
HETATM   17  C   UNL     1      -8.801   2.996  67.994  1.00  0.00    -0.127 A  
HETATM   18  C   UNL     1      -9.781   3.753  68.619  1.00  0.00    -0.089 A  
HETATM   19  C   UNL     1      -9.347   4.446  74.486  1.00  0.00    -0.111 A  
HETATM   20  F   UNL     1      -9.155   2.029  67.140  1.00  0.00    -0.134 F  
HETATM   21  C   UNL     1      -8.671   5.380  73.737  1.00  0.00    -0.115 A  
ENDROOT
BRANCH   8  22
HETATM   22  N   UNL     1      -7.467   7.868  68.714  1.00  0.00    -0.093 NA 
HETATM   23  C   UNL     1      -8.412   9.278  67.512  1.00  0.00    -0.115 A  
HETATM   24  C   UNL     1      -7.486   7.397  67.437  1.00  0.00    -0.104 A  
HETATM   25  N   UNL     1      -8.120   8.249  66.664  1.00  0.00    -0.101 NA 
HETATM   26  N   UNL     1      -7.989   9.108  68.769  1.00  0.00    -0.099 NA 
ENDBRANCH   8  22
TORSDOF 1
ENDMDL
MODEL      119
REMARK 921   NORMALIZED FREE ENERGY PREDICTED BY IDOCK:   -3.15 KCAL/MOL
REMARK 922        TOTAL FREE ENERGY PREDICTED BY IDOCK:   -2.93 KCAL/MOL
REMARK 923 INTER-LIGAND FREE ENERGY PREDICTED BY IDOCK:   -3.85 KCAL/MOL
REMARK 924 INTRA-LIGAND FREE ENERGY PREDICTED BY IDOCK:    0.92 KCAL/MOL
REMARK 927      BINDING AFFINITY PREDICTED BY RF-SCORE:    0.00 PKD
ROOT
HETATM    1  C   UNL     1     -10.751   7.124  68.009  1.00  0.00    -0.232 C  
HETATM    2  C   UNL     1     -10.365   8.426  68.730  1.00  0.00    -0.225 C  
HETATM    3  C   UNL     1      -8.826   8.675  69.046  1.00  0.00    -0.138 C  
HETATM    4  C   UNL     1     -11.274   8.632  69.942  1.00  0.00    -0.041 A  
HETATM    5  O   UNL     1      -8.795  10.097  69.389  1.00  0.00    -0.170 OA 
HETATM    6  N   UNL     1     -11.721   7.527  70.596  1.00  0.00    -0.256 NA 
HETATM    7  C   UNL     1      -8.149   7.910  70.202  1.00  0.00    -0.116 A  
HETATM    8  C   UNL     1      -7.944   8.612  67.754  1.00  0.00    -0.107 C  
HETATM    9  C   UNL     1      -8.672   6.745  70.779  1.00  0.00    -0.146 A  
HETATM   10  C   UNL     1      -6.904   8.347  70.706  1.00  0.00    -0.041 A  
HETATM   11  C   UNL     1     -12.507   7.726  71.668  1.00  0.00    -0.326 A  
HETATM   12  H   UNL     1      -7.875  10.245  69.578  1.00  0.00     0.000 HD 
HETATM   13  F   UNL     1     -11.268  11.008  69.699  1.00  0.00    -0.252 F  
HETATM   14  C   UNL     1      -6.209   7.673  71.705  1.00  0.00    -0.039 A  
HETATM   15  F   UNL     1      -6.353   9.464  70.209  1.00  0.00    -0.041 F  
HETATM   16  N   UNL     1     -12.872   8.914  72.164  1.00  0.00    -0.383 NA 
HETATM   17  C   UNL     1      -6.762   6.527  72.242  1.00  0.00    -0.067 A  
HETATM   18  C   UNL     1      -7.991   6.063  71.797  1.00  0.00    -0.107 A  
HETATM   19  C   UNL     1     -12.418   9.987  71.483  1.00  0.00    -0.419 A  
HETATM   20  F   UNL     1      -6.106   5.855  73.196  1.00  0.00    -0.046 F  
HETATM   21  C   UNL     1     -11.634   9.901  70.356  1.00  0.00    -0.282 A  
ENDROOT
BRANCH   8  22
HETATM   22  N   UNL     1      -7.560   7.312  67.264  1.00  0.00    -0.102 NA 
HETATM   23  C   UNL     1      -7.265   5.253  67.226  1.00  0.00    -0.075 A  
HETATM   24  C   UNL     1      -7.283   6.943  65.983  1.00  0.00    -0.074 A  
HETATM   25  N   UNL     1      -7.046   5.651  65.939  1.00  0.00    -0.066 NA 
HETATM   26  N   UNL     1      -7.628   6.230  68.064  1.00  0.00    -0.100 NA 
ENDBRANCH   8  22
TORSDOF 1
ENDMDL
MODEL      120
REMARK 921   NORMALIZED FREE ENERGY PREDICTED BY IDOCK:   -3.14 KCAL/MOL
REMARK 922        TOTAL FREE ENERGY PREDICTED BY IDOCK:   -2.92 KCAL/MOL
REMARK 923 INTER-LIGAND FREE ENERGY PREDICTED BY IDOCK:   -3.59 KCAL/MOL
REMARK 924 INTRA-LIGAND FREE ENERGY PREDICTED BY IDOCK:    0.67 KCAL/MOL
REMARK 927      BINDING AFFINITY PREDICTED BY RF-SCORE:    0.00 PKD
ROOT
HETATM    1  C   UNL     1     -10.640   8.325  66.418  1.00  0.00     0.353 C  
HETATM    2  C   UNL     1     -10.618   9.078  67.759  1.00  0.00    -0.278 C  
HETATM    3  C   UNL     1     -10.341  10.644  67.731  1.00  0.00    -0.204 C  
HETATM    4  C   UNL     1      -9.738   8.325  68.758  1.00  0.00    -0.157 A  
HETATM    5  O   UNL     1     -10.736  11.064  69.075  1.00  0.00    -0.198 OA 
HETATM    6  N   UNL     1      -8.667   7.644  68.273  1.00  0.00    -0.124 NA 
HETATM    7  C   UNL     1      -8.909  11.164  67.490  1.00  0.00    -0.139 A  
HETATM    8  C   UNL     1     -11.362  11.403  66.819  1.00  0.00    -0.179 C  
HETATM    9  C   UNL     1      -7.880  10.389  66.936  1.00  0.00    -0.114 A  
HETATM   10  C   UNL     1      -8.584  12.506  67.785  1.00  0.00    -0.178 A  
HETATM   11  C   UNL     1      -7.895   7.000  69.166  1.00  0.00    -0.114 A  
HETATM   12  H   UNL     1     -10.570  12.000  69.058  1.00  0.00     0.000 HD 
HETATM   13  F   UNL     1     -11.110   8.935  70.616  1.00  0.00    -0.249 F  
HETATM   14  C   UNL     1      -7.331  13.058  67.538  1.00  0.00    -0.154 A  
HETATM   15  F   UNL     1      -9.518  13.300  68.331  1.00  0.00    -0.204 F  
HETATM   16  N   UNL     1      -8.074   6.986  70.492  1.00  0.00    -0.113 NA 
HETATM   17  C   UNL     1      -6.349  12.257  66.989  1.00  0.00    -0.050 A  
HETATM   18  C   UNL     1      -6.608  10.926  66.697  1.00  0.00    -0.120 A  
HETATM   19  C   UNL     1      -9.154   7.664  70.936  1.00  0.00    -0.149 A  
HETATM   20  F   UNL     1      -5.140  12.769  66.732  1.00  0.00     0.095 F  
HETATM   21  C   UNL     1     -10.028   8.332  70.110  1.00  0.00    -0.187 A  
ENDROOT
BRANCH   8  22
HETATM   22  N   UNL     1     -11.122  11.407  65.397  1.00  0.00    -0.186 NA 
HETATM   23  C   UNL     1     -11.478  11.645  63.362  1.00  0.00    -0.260 A  
HETATM   24  C   UNL     1      -9.928  11.351  64.745  1.00  0.00    -0.267 A  
HETATM   25  N   UNL     1     -10.129  11.452  63.450  1.00  0.00    -0.371 NA 
HETATM   26  N   UNL     1     -12.121  11.671  64.534  1.00  0.00    -0.045 NA 
ENDBRANCH   8  22
TORSDOF 1
ENDMDL
MODEL      121
REMARK 921   NORMALIZED FREE ENERGY PREDICTED BY IDOCK:   -3.06 KCAL/MOL
REMARK 922        TOTAL FREE ENERGY PREDICTED BY IDOCK:   -2.83 KCAL/MOL
REMARK 923 INTER-LIGAND FREE ENERGY PREDICTED BY IDOCK:   -2.93 KCAL/MOL
REMARK 924 INTRA-LIGAND FREE ENERGY PREDICTED BY IDOCK:    0.10 KCAL/MOL
REMARK 927      BINDING AFFINITY PREDICTED BY RF-SCORE:    0.00 PKD
ROOT
HETATM    1  C   UNL     1      -7.044   6.727  64.349  1.00  0.00    -0.061 C  
HETATM    2  C   UNL     1      -8.334   6.073  64.873  1.00  0.00    -0.104 C  
HETATM    3  C   UNL     1      -9.028   6.715  66.152  1.00  0.00    -0.139 C  
HETATM    4  C   UNL     1      -8.137   4.562  64.985  1.00  0.00    -0.100 A  
HETATM    5  O   UNL     1     -10.352   6.092  66.145  1.00  0.00    -0.425 OA 
HETATM    6  N   UNL     1      -6.895   4.104  65.296  1.00  0.00    -0.052 NA 
HETATM    7  C   UNL     1      -8.420   6.482  67.550  1.00  0.00    -0.120 A  
HETATM    8  C   UNL     1      -9.359   8.231  65.942  1.00  0.00    -0.096 C  
HETATM    9  C   UNL     1      -7.104   6.052  67.767  1.00  0.00    -0.074 A  
HETATM   10  C   UNL     1      -9.182   6.752  68.708  1.00  0.00    -0.130 A  
HETATM   11  C   UNL     1      -6.742   2.773  65.405  1.00  0.00    -0.040 A  
HETATM   12  H   UNL     1     -10.766   6.475  66.910  1.00  0.00     0.000 HD 
HETATM   13  F   UNL     1     -10.405   4.097  64.396  1.00  0.00    -0.197 F  
HETATM   14  C   UNL     1      -8.679   6.622  69.998  1.00  0.00    -0.141 A  
HETATM   15  F   UNL     1     -10.456   7.154  68.574  1.00  0.00    -0.183 F  
HETATM   16  N   UNL     1      -7.707   1.857  65.256  1.00  0.00    -0.070 NA 
HETATM   17  C   UNL     1      -7.375   6.198  70.163  1.00  0.00    -0.082 A  
HETATM   18  C   UNL     1      -6.587   5.900  69.061  1.00  0.00    -0.051 A  
HETATM   19  C   UNL     1      -8.923   2.348  64.936  1.00  0.00    -0.124 A  
HETATM   20  F   UNL     1      -6.866   6.076  71.395  1.00  0.00    -0.058 F  
HETATM   21  C   UNL     1      -9.187   3.688  64.769  1.00  0.00    -0.145 A  
ENDROOT
BRANCH   8  22
HETATM   22  N   UNL     1      -8.294   9.184  66.129  1.00  0.00    -0.117 NA 
HETATM   23  C   UNL     1      -6.731  10.475  65.665  1.00  0.00    -0.110 A  
HETATM   24  C   UNL     1      -8.036   9.954  67.222  1.00  0.00    -0.113 A  
HETATM   25  N   UNL     1      -7.020  10.748  66.971  1.00  0.00    -0.093 NA 
HETATM   26  N   UNL     1      -7.517   9.556  65.095  1.00  0.00    -0.105 NA 
ENDBRANCH   8  22
TORSDOF 1
ENDMDL
MODEL      122
REMARK 921   NORMALIZED FREE ENERGY PREDICTED BY IDOCK:   -3.01 KCAL/MOL
REMARK 922        TOTAL FREE ENERGY PREDICTED BY IDOCK:   -2.79 KCAL/MOL
REMARK 923 INTER-LIGAND FREE ENERGY PREDICTED BY IDOCK:   -2.76 KCAL/MOL
REMARK 924 INTRA-LIGAND FREE ENERGY PREDICTED BY IDOCK:   -0.03 KCAL/MOL
REMARK 927      BINDING AFFINITY PREDICTED BY RF-SCORE:    0.00 PKD
ROOT
HETATM    1  C   UNL     1      -9.814   9.085  70.087  1.00  0.00    -0.213 C  
HETATM    2  C   UNL     1      -8.285   9.193  70.212  1.00  0.00    -0.170 C  
HETATM    3  C   UNL     1      -7.467   9.697  68.944  1.00  0.00    -0.075 C  
HETATM    4  C   UNL     1      -7.726   7.907  70.822  1.00  0.00    -0.083 A  
HETATM    5  O   UNL     1      -6.155  10.008  69.512  1.00  0.00    -0.040 OA 
HETATM    6  N   UNL     1      -8.366   6.741  70.542  1.00  0.00    -0.128 NA 
HETATM    7  C   UNL     1      -7.237   8.744  67.754  1.00  0.00    -0.084 A  
HETATM    8  C   UNL     1      -7.966  11.094  68.443  1.00  0.00    -0.137 C  
HETATM    9  C   UNL     1      -7.989   7.583  67.527  1.00  0.00    -0.116 A  
HETATM   10  C   UNL     1      -6.255   9.046  66.785  1.00  0.00    -0.062 A  
HETATM   11  C   UNL     1      -7.853   5.618  71.073  1.00  0.00    -0.105 A  
HETATM   12  H   UNL     1      -5.667  10.309  68.754  1.00  0.00     0.000 HD 
HETATM   13  F   UNL     1      -5.993   9.066  71.988  1.00  0.00    -0.067 F  
HETATM   14  C   UNL     1      -6.035   8.265  65.655  1.00  0.00    -0.045 A  
HETATM   15  F   UNL     1      -5.489  10.136  66.947  1.00  0.00    -0.043 F  
HETATM   16  N   UNL     1      -6.755   5.541  71.836  1.00  0.00    -0.056 NA 
HETATM   17  C   UNL     1      -6.802   7.131  65.472  1.00  0.00    -0.052 A  
HETATM   18  C   UNL     1      -7.767   6.776  66.402  1.00  0.00    -0.098 A  
HETATM   19  C   UNL     1      -6.154   6.719  72.102  1.00  0.00    -0.038 A  
HETATM   20  F   UNL     1      -6.615   6.370  64.387  1.00  0.00    -0.032 F  
HETATM   21  C   UNL     1      -6.609   7.931  71.637  1.00  0.00    -0.044 A  
ENDROOT
BRANCH   8  22
HETATM   22  N   UNL     1      -9.142  11.129  67.610  1.00  0.00    -0.145 NA 
HETATM   23  C   UNL     1     -11.089  11.539  67.006  1.00  0.00    -0.307 A  
HETATM   24  C   UNL     1      -9.234  10.889  66.273  1.00  0.00    -0.177 A  
HETATM   25  N   UNL     1     -10.469  11.095  65.873  1.00  0.00    -0.257 NA 
HETATM   26  N   UNL     1     -10.302  11.620  68.084  1.00  0.00    -0.187 NA 
ENDBRANCH   8  22
TORSDOF 1
ENDMDL
MODEL      123
REMARK 921   NORMALIZED FREE ENERGY PREDICTED BY IDOCK:   -2.98 KCAL/MOL
REMARK 922        TOTAL FREE ENERGY PREDICTED BY IDOCK:   -2.75 KCAL/MOL
REMARK 923 INTER-LIGAND FREE ENERGY PREDICTED BY IDOCK:   -3.67 KCAL/MOL
REMARK 924 INTRA-LIGAND FREE ENERGY PREDICTED BY IDOCK:    0.92 KCAL/MOL
REMARK 927      BINDING AFFINITY PREDICTED BY RF-SCORE:    0.00 PKD
ROOT
HETATM    1  C   UNL     1      -9.256   7.190  66.630  1.00  0.00    -0.193 C  
HETATM    2  C   UNL     1      -8.240   8.110  67.328  1.00  0.00    -0.121 C  
HETATM    3  C   UNL     1      -7.720   7.688  68.771  1.00  0.00    -0.118 C  
HETATM    4  C   UNL     1      -8.724   9.559  67.258  1.00  0.00    -0.128 A  
HETATM    5  O   UNL     1      -6.558   8.555  68.959  1.00  0.00    -0.047 OA 
HETATM    6  N   UNL     1     -10.065   9.782  67.281  1.00  0.00    -0.194 NA 
HETATM    7  C   UNL     1      -8.635   7.876  69.999  1.00  0.00    -0.135 A  
HETATM    8  C   UNL     1      -7.087   6.257  68.771  1.00  0.00    -0.082 C  
HETATM    9  C   UNL     1     -10.023   8.053  69.918  1.00  0.00    -0.189 A  
HETATM   10  C   UNL     1      -8.092   7.824  71.301  1.00  0.00    -0.095 A  
HETATM   11  C   UNL     1     -10.474  11.062  67.234  1.00  0.00    -0.231 A  
HETATM   12  H   UNL     1      -6.247   8.303  69.822  1.00  0.00     0.000 HD 
HETATM   13  F   UNL     1      -6.505  10.423  67.074  1.00  0.00    -0.066 F  
HETATM   14  C   UNL     1      -8.865   7.925  72.453  1.00  0.00    -0.209 A  
HETATM   15  F   UNL     1      -6.767   7.671  71.451  1.00  0.00    -0.047 F  
HETATM   16  N   UNL     1      -9.679  12.138  67.187  1.00  0.00    -0.197 NA 
HETATM   17  C   UNL     1     -10.229   8.096  72.324  1.00  0.00    -0.278 A  
HETATM   18  C   UNL     1     -10.814   8.173  71.069  1.00  0.00    -0.265 A  
HETATM   19  C   UNL     1      -8.356  11.877  67.154  1.00  0.00    -0.174 A  
HETATM   20  F   UNL     1     -10.995   8.184  73.418  1.00  0.00    -0.335 F  
HETATM   21  C   UNL     1      -7.827  10.607  67.167  1.00  0.00    -0.117 A  
ENDROOT
BRANCH   8  22
HETATM   22  N   UNL     1      -7.978   5.126  68.839  1.00  0.00    -0.085 NA 
HETATM   23  C   UNL     1      -8.724   3.263  69.387  1.00  0.00    -0.079 A  
HETATM   24  C   UNL     1      -9.284   5.059  68.457  1.00  0.00    -0.120 A  
HETATM   25  N   UNL     1      -9.767   3.873  68.750  1.00  0.00    -0.114 NA 
HETATM   26  N   UNL     1      -7.622   4.012  69.505  1.00  0.00    -0.053 NA 
ENDBRANCH   8  22
TORSDOF 1
ENDMDL
MODEL      124
REMARK 921   NORMALIZED FREE ENERGY PREDICTED BY IDOCK:   -2.97 KCAL/MOL
REMARK 922        TOTAL FREE ENERGY PREDICTED BY IDOCK:   -2.74 KCAL/MOL
REMARK 923 INTER-LIGAND FREE ENERGY PREDICTED BY IDOCK:   -3.23 KCAL/MOL
REMARK 924 INTRA-LIGAND FREE ENERGY PREDICTED BY IDOCK:    0.50 KCAL/MOL
REMARK 927      BINDING AFFINITY PREDICTED BY RF-SCORE:    0.00 PKD
ROOT
HETATM    1  C   UNL     1      -8.554   8.756  65.579  1.00  0.00    -0.198 C  
HETATM    2  C   UNL     1      -9.080   7.334  65.842  1.00  0.00    -0.064 C  
HETATM    3  C   UNL     1      -9.800   7.051  67.232  1.00  0.00    -0.166 C  
HETATM    4  C   UNL     1      -7.994   6.313  65.503  1.00  0.00    -0.115 A  
HETATM    5  O   UNL     1     -10.457   5.765  66.997  1.00  0.00    -0.220 OA 
HETATM    6  N   UNL     1      -6.698   6.673  65.703  1.00  0.00    -0.050 NA 
HETATM    7  C   UNL     1      -8.957   6.906  68.515  1.00  0.00    -0.122 A  
HETATM    8  C   UNL     1     -11.008   8.016  67.474  1.00  0.00     0.105 C  
HETATM    9  C   UNL     1      -7.635   7.357  68.636  1.00  0.00    -0.110 A  
HETATM   10  C   UNL     1      -9.526   6.337  69.676  1.00  0.00    -0.146 A  
HETATM   11  C   UNL     1      -5.757   5.758  65.415  1.00  0.00    -0.017 A  
HETATM   12  H   UNL     1     -10.887   5.596  67.827  1.00  0.00     0.000 HD 
HETATM   13  F   UNL     1      -9.577   4.700  64.730  1.00  0.00    -0.161 F  
HETATM   14  C   UNL     1      -8.844   6.230  70.884  1.00  0.00    -0.136 A  
HETATM   15  F   UNL     1     -10.783   5.872  69.627  1.00  0.00    -0.280 F  
HETATM   16  N   UNL     1      -5.980   4.516  64.967  1.00  0.00    -0.022 NA 
HETATM   17  C   UNL     1      -7.544   6.690  70.956  1.00  0.00    -0.085 A  
HETATM   18  C   UNL     1      -6.929   7.241  69.841  1.00  0.00    -0.057 A  
HETATM   19  C   UNL     1      -7.276   4.199  64.770  1.00  0.00    -0.070 A  
HETATM   20  F   UNL     1      -6.872   6.608  72.110  1.00  0.00    -0.062 F  
HETATM   21  C   UNL     1      -8.319   5.065  65.003  1.00  0.00    -0.140 A  
ENDROOT
BRANCH   8  22
HETATM   22  N   UNL     1     -10.724   9.339  67.972  1.00  0.00    -0.211 NA 
HETATM   23  C   UNL     1     -10.951  11.374  68.335  1.00  0.00    -0.215 A  
HETATM   24  C   UNL     1      -9.839   9.702  68.941  1.00  0.00    -0.174 A  
HETATM   25  N   UNL     1      -9.929  10.995  69.157  1.00  0.00    -0.167 NA 
HETATM   26  N   UNL     1     -11.499  10.383  67.624  1.00  0.00    -0.351 NA 
ENDBRANCH   8  22
TORSDOF 1
ENDMDL
MODEL      125
REMARK 921   NORMALIZED FREE ENERGY PREDICTED BY IDOCK:   -2.91 KCAL/MOL
REMARK 922        TOTAL FREE ENERGY PREDICTED BY IDOCK:   -2.68 KCAL/MOL
REMARK 923 INTER-LIGAND FREE ENERGY PREDICTED BY IDOCK:   -3.30 KCAL/MOL
REMARK 924 INTRA-LIGAND FREE ENERGY PREDICTED BY IDOCK:    0.62 KCAL/MOL
REMARK 927      BINDING AFFINITY PREDICTED BY RF-SCORE:    0.00 PKD
ROOT
HETATM    1  C   UNL     1      -6.518   5.055  69.931  1.00  0.00    -0.035 C  
HETATM    2  C   UNL     1      -6.661   6.288  70.839  1.00  0.00    -0.058 C  
HETATM    3  C   UNL     1      -7.789   6.261  71.961  1.00  0.00    -0.097 C  
HETATM    4  C   UNL     1      -6.686   7.556  69.986  1.00  0.00    -0.046 A  
HETATM    5  O   UNL     1      -7.413   7.383  72.821  1.00  0.00    -0.074 OA 
HETATM    6  N   UNL     1      -7.243   7.479  68.749  1.00  0.00    -0.080 NA 
HETATM    7  C   UNL     1      -9.266   6.462  71.566  1.00  0.00    -0.145 A  
HETATM    8  C   UNL     1      -7.638   5.029  72.915  1.00  0.00    -0.096 C  
HETATM    9  C   UNL     1      -9.752   6.311  70.260  1.00  0.00    -0.189 A  
HETATM   10  C   UNL     1     -10.228   6.769  72.553  1.00  0.00    -0.179 A  
HETATM   11  C   UNL     1      -7.271   8.606  68.017  1.00  0.00    -0.087 A  
HETATM   12  H   UNL     1      -8.087   7.367  73.491  1.00  0.00     0.000 HD 
HETATM   13  F   UNL     1      -5.536   8.841  71.639  1.00  0.00    -0.034 F  
HETATM   14  C   UNL     1     -11.585   6.904  72.278  1.00  0.00    -0.309 A  
HETATM   15  F   UNL     1      -9.829   6.942  73.823  1.00  0.00    -0.196 F  
HETATM   16  N   UNL     1      -6.817   9.805  68.405  1.00  0.00    -0.060 NA 
HETATM   17  C   UNL     1     -12.018   6.744  70.977  1.00  0.00    -0.379 A  
HETATM   18  C   UNL     1     -11.114   6.460  69.964  1.00  0.00    -0.442 A  
HETATM   19  C   UNL     1      -6.261   9.841  69.633  1.00  0.00    -0.045 A  
HETATM   20  F   UNL     1     -13.320   6.858  70.690  1.00  0.00    -0.286 F  
HETATM   21  C   UNL     1      -6.152   8.743  70.456  1.00  0.00    -0.033 A  
ENDROOT
BRANCH   8  22
HETATM   22  N   UNL     1      -8.155   3.761  72.464  1.00  0.00    -0.080 NA 
HETATM   23  C   UNL     1      -8.444   1.705  72.352  1.00  0.00    -0.053 A  
HETATM   24  C   UNL     1      -9.250   3.526  71.691  1.00  0.00    -0.123 A  
HETATM   25  N   UNL     1      -9.428   2.230  71.564  1.00  0.00    -0.122 NA 
HETATM   26  N   UNL     1      -7.668   2.608  72.960  1.00  0.00    -0.049 NA 
ENDBRANCH   8  22
TORSDOF 1
ENDMDL
MODEL      126
REMARK 921   NORMALIZED FREE ENERGY PREDICTED BY IDOCK:   -2.85 KCAL/MOL
REMARK 922        TOTAL FREE ENERGY PREDICTED BY IDOCK:   -2.61 KCAL/MOL
REMARK 923 INTER-LIGAND FREE ENERGY PREDICTED BY IDOCK:   -2.59 KCAL/MOL
REMARK 924 INTRA-LIGAND FREE ENERGY PREDICTED BY IDOCK:   -0.03 KCAL/MOL
REMARK 927      BINDING AFFINITY PREDICTED BY RF-SCORE:    0.00 PKD
ROOT
HETATM    1  C   UNL     1      -7.758   9.634  65.288  1.00  0.00    -0.115 C  
HETATM    2  C   UNL     1      -7.543   9.480  66.803  1.00  0.00    -0.098 C  
HETATM    3  C   UNL     1      -6.906   8.120  67.330  1.00  0.00    -0.074 C  
HETATM    4  C   UNL     1      -8.817   9.881  67.547  1.00  0.00    -0.128 A  
HETATM    5  O   UNL     1      -6.531   8.454  68.704  1.00  0.00    -0.052 OA 
HETATM    6  N   UNL     1     -10.009   9.644  66.940  1.00  0.00    -0.198 NA 
HETATM    7  C   UNL     1      -7.769   6.843  67.388  1.00  0.00    -0.110 A  
HETATM    8  C   UNL     1      -5.525   7.821  66.658  1.00  0.00    -0.028 C  
HETATM    9  C   UNL     1      -8.968   6.678  66.681  1.00  0.00    -0.150 A  
HETATM   10  C   UNL     1      -7.339   5.732  68.146  1.00  0.00    -0.077 A  
HETATM   11  C   UNL     1     -11.120   9.989  67.615  1.00  0.00    -0.153 A  
HETATM   12  H   UNL     1      -6.151   7.642  69.019  1.00  0.00     0.000 HD 
HETATM   13  F   UNL     1      -7.600  10.783  69.395  1.00  0.00    -0.110 F  
HETATM   14  C   UNL     1      -8.035   4.529  68.195  1.00  0.00    -0.080 A  
HETATM   15  F   UNL     1      -6.206   5.826  68.859  1.00  0.00    -0.023 F  
HETATM   16  N   UNL     1     -11.158  10.527  68.840  1.00  0.00    -0.245 NA 
HETATM   17  C   UNL     1      -9.211   4.412  67.480  1.00  0.00    -0.143 A  
HETATM   18  C   UNL     1      -9.690   5.478  66.734  1.00  0.00    -0.168 A  
HETATM   19  C   UNL     1      -9.956  10.758  69.406  1.00  0.00    -0.110 A  
HETATM   20  F   UNL     1      -9.892   3.260  67.503  1.00  0.00    -0.237 F  
HETATM   21  C   UNL     1      -8.756  10.473  68.796  1.00  0.00    -0.154 A  
ENDROOT
BRANCH   8  22
HETATM   22  N   UNL     1      -5.529   7.226  65.345  1.00  0.00    -0.028 NA 
HETATM   23  C   UNL     1      -5.239   7.029  63.295  1.00  0.00    -0.032 A  
HETATM   24  C   UNL     1      -5.688   5.915  65.015  1.00  0.00    -0.024 A  
HETATM   25  N   UNL     1      -5.556   5.769  63.716  1.00  0.00    -0.017 NA 
HETATM   26  N   UNL     1      -5.166   7.945  64.266  1.00  0.00    -0.036 NA 
ENDBRANCH   8  22
TORSDOF 1
ENDMDL
MODEL      127
REMARK 921   NORMALIZED FREE ENERGY PREDICTED BY IDOCK:   -2.42 KCAL/MOL
REMARK 922        TOTAL FREE ENERGY PREDICTED BY IDOCK:   -2.15 KCAL/MOL
REMARK 923 INTER-LIGAND FREE ENERGY PREDICTED BY IDOCK:   -2.14 KCAL/MOL
REMARK 924 INTRA-LIGAND FREE ENERGY PREDICTED BY IDOCK:   -0.01 KCAL/MOL
REMARK 927      BINDING AFFINITY PREDICTED BY RF-SCORE:    0.00 PKD
ROOT
HETATM    1  C   UNL     1      -5.142   8.255  67.753  1.00  0.00    -0.033 C  
HETATM    2  C   UNL     1      -6.059   7.699  66.651  1.00  0.00    -0.044 C  
HETATM    3  C   UNL     1      -7.528   8.298  66.529  1.00  0.00    -0.081 C  
HETATM    4  C   UNL     1      -6.029   6.170  66.680  1.00  0.00    -0.025 A  
HETATM    5  O   UNL     1      -7.962   7.820  65.217  1.00  0.00    -0.112 OA 
HETATM    6  N   UNL     1      -5.862   5.561  67.883  1.00  0.00    -0.016 NA 
HETATM    7  C   UNL     1      -8.609   7.885  67.548  1.00  0.00    -0.122 A  
HETATM    8  C   UNL     1      -7.513   9.853  66.343  1.00  0.00    -0.101 C  
HETATM    9  C   UNL     1      -8.329   7.302  68.791  1.00  0.00    -0.129 A  
HETATM   10  C   UNL     1      -9.972   8.134  67.274  1.00  0.00    -0.218 A  
HETATM   11  C   UNL     1      -5.853   4.216  67.893  1.00  0.00    -0.023 A  
HETATM   12  H   UNL     1      -8.839   8.179  65.145  1.00  0.00     0.000 HD 
HETATM   13  F   UNL     1      -6.260   5.997  64.308  1.00  0.00    -0.027 F  
HETATM   14  C   UNL     1     -10.995   7.844  68.171  1.00  0.00     0.123 A  
HETATM   15  F   UNL     1     -10.313   8.677  66.095  1.00  0.00    -0.360 F  
HETATM   16  N   UNL     1      -6.015   3.423  66.827  1.00  0.00    -0.023 NA 
HETATM   17  C   UNL     1     -10.670   7.272  69.386  1.00  0.00    -0.225 A  
HETATM   18  C   UNL     1      -9.349   6.988  69.700  1.00  0.00    -0.149 A  
HETATM   19  C   UNL     1      -6.167   4.063  65.649  1.00  0.00    -0.031 A  
HETATM   20  F   UNL     1     -11.636   6.994  70.269  1.00  0.00    -0.309 F  
HETATM   21  C   UNL     1      -6.161   5.432  65.517  1.00  0.00    -0.034 A  
ENDROOT
BRANCH   8  22
HETATM   22  N   UNL     1      -7.352  10.670  67.520  1.00  0.00    -0.090 NA 
HETATM   23  C   UNL     1      -6.462  11.951  68.895  1.00  0.00    -0.082 A  
HETATM   24  C   UNL     1      -8.317  11.125  68.367  1.00  0.00    -0.149 A  
HETATM   25  N   UNL     1      -7.772  11.901  69.276  1.00  0.00     0.168 NA 
HETATM   26  N   UNL     1      -6.168  11.249  67.796  1.00  0.00    -0.050 NA 
ENDBRANCH   8  22
TORSDOF 1
ENDMDL
MODEL      128
REMARK 921   NORMALIZED FREE ENERGY PREDICTED BY IDOCK:   -2.11 KCAL/MOL
REMARK 922        TOTAL FREE ENERGY PREDICTED BY IDOCK:   -1.83 KCAL/MOL
REMARK 923 INTER-LIGAND FREE ENERGY PREDICTED BY IDOCK:   -1.86 KCAL/MOL
REMARK 924 INTRA-LIGAND FREE ENERGY PREDICTED BY IDOCK:    0.03 KCAL/MOL
REMARK 927      BINDING AFFINITY PREDICTED BY RF-SCORE:    0.00 PKD
ROOT
HETATM    1  C   UNL     1     -10.975  11.437  70.068  1.00  0.00     0.078 C  
HETATM    2  C   UNL     1     -10.755  10.546  68.834  1.00  0.00    -0.253 C  
HETATM    3  C   UNL     1     -10.766   8.969  69.043  1.00  0.00    -0.141 C  
HETATM    4  C   UNL     1      -9.542  11.045  68.049  1.00  0.00    -0.170 A  
HETATM    5  O   UNL     1     -10.886   8.465  67.675  1.00  0.00    -0.483 OA 
HETATM    6  N   UNL     1      -8.522  11.610  68.746  1.00  0.00    -0.082 NA 
HETATM    7  C   UNL     1      -9.547   8.273  69.682  1.00  0.00    -0.167 A  
HETATM    8  C   UNL     1     -12.094   8.475  69.709  1.00  0.00     1.108 C  
HETATM    9  C   UNL     1      -8.568   8.943  70.429  1.00  0.00    -0.198 A  
HETATM   10  C   UNL     1      -9.395   6.873  69.576  1.00  0.00    -0.147 A  
HETATM   11  C   UNL     1      -7.456  12.029  68.041  1.00  0.00    -0.113 A  
HETATM   12  H   UNL     1     -10.892   7.523  67.799  1.00  0.00     0.000 HD 
HETATM   13  F   UNL     1     -10.501  10.442  65.945  1.00  0.00    -0.305 F  
HETATM   14  C   UNL     1      -8.354   6.173  70.177  1.00  0.00    -0.128 A  
HETATM   15  F   UNL     1     -10.288   6.170  68.863  1.00  0.00    -0.170 F  
HETATM   16  N   UNL     1      -7.300  11.922  66.716  1.00  0.00    -0.069 NA 
HETATM   17  C   UNL     1      -7.414   6.875  70.906  1.00  0.00    -0.083 A  
HETATM   18  C   UNL     1      -7.505   8.254  71.027  1.00  0.00    -0.068 A  
HETATM   19  C   UNL     1      -8.338  11.367  66.056  1.00  0.00    -0.019 A  
HETATM   20  F   UNL     1      -6.411   6.222  71.502  1.00  0.00    -0.040 F  
HETATM   21  C   UNL     1      -9.489  10.930  66.671  1.00  0.00    -0.179 A  
ENDROOT
BRANCH   8  22
HETATM   22  N   UNL     1     -12.213   8.594  71.141  1.00  0.00    -0.274 NA 
HETATM   23  C   UNL     1     -12.989   9.136  72.993  1.00  0.00     0.512 A  
HETATM   24  C   UNL     1     -11.564   7.880  72.102  1.00  0.00    -0.328 A  
HETATM   25  N   UNL     1     -12.004   8.238  73.288  1.00  0.00     0.236 NA 
HETATM   26  N   UNL     1     -13.184   9.350  71.687  1.00  0.00    -0.375 NA 
ENDBRANCH   8  22
TORSDOF 1
ENDMDL
MODEL      129
REMARK 921   NORMALIZED FREE ENERGY PREDICTED BY IDOCK:   -1.54 KCAL/MOL
REMARK 922        TOTAL FREE ENERGY PREDICTED BY IDOCK:   -1.23 KCAL/MOL
REMARK 923 INTER-LIGAND FREE ENERGY PREDICTED BY IDOCK:   -2.29 KCAL/MOL
REMARK 924 INTRA-LIGAND FREE ENERGY PREDICTED BY IDOCK:    1.06 KCAL/MOL
REMARK 927      BINDING AFFINITY PREDICTED BY RF-SCORE:    0.00 PKD
ROOT
HETATM    1  C   UNL     1      -5.783   5.633  69.332  1.00  0.00    -0.012 C  
HETATM    2  C   UNL     1      -7.128   4.953  69.638  1.00  0.00    -0.055 C  
HETATM    3  C   UNL     1      -8.373   5.316  68.717  1.00  0.00    -0.092 C  
HETATM    4  C   UNL     1      -7.430   5.059  71.133  1.00  0.00    -0.074 A  
HETATM    5  O   UNL     1      -9.336   4.266  69.051  1.00  0.00    -0.133 OA 
HETATM    6  N   UNL     1      -6.989   6.162  71.794  1.00  0.00    -0.075 NA 
HETATM    7  C   UNL     1      -9.090   6.669  68.897  1.00  0.00    -0.132 A  
HETATM    8  C   UNL     1      -8.081   5.046  67.203  1.00  0.00    -0.107 C  
HETATM    9  C   UNL     1      -8.527   7.769  69.558  1.00  0.00    -0.131 A  
HETATM   10  C   UNL     1     -10.371   6.872  68.337  1.00  0.00    -0.190 A  
HETATM   11  C   UNL     1      -7.276   6.247  73.104  1.00  0.00    -0.087 A  
HETATM   12  H   UNL     1     -10.080   4.483  68.501  1.00  0.00     0.000 HD 
HETATM   13  F   UNL     1      -8.513   2.930  71.192  1.00  0.00    -0.063 F  
HETATM   14  C   UNL     1     -11.049   8.084  68.409  1.00  0.00     0.327 A  
HETATM   15  F   UNL     1     -10.976   5.856  67.702  1.00  0.00    -0.304 F  
HETATM   16  N   UNL     1      -7.974   5.352  73.814  1.00  0.00    -0.108 NA 
HETATM   17  C   UNL     1     -10.453   9.141  69.068  1.00  0.00    -0.221 A  
HETATM   18  C   UNL     1      -9.205   8.992  69.653  1.00  0.00    -0.160 A  
HETATM   19  C   UNL     1      -8.385   4.265  73.128  1.00  0.00    -0.091 A  
HETATM   20  F   UNL     1     -11.082  10.320  69.140  1.00  0.00    -0.216 F  
HETATM   21  C   UNL     1      -8.122   4.060  71.793  1.00  0.00    -0.082 A  
ENDROOT
BRANCH   8  22
HETATM   22  N   UNL     1      -7.340   6.043  66.472  1.00  0.00    -0.080 NA 
HETATM   23  C   UNL     1      -6.246   7.773  66.098  1.00  0.00    -0.045 A  
HETATM   24  C   UNL     1      -6.792   5.943  65.229  1.00  0.00    -0.051 A  
HETATM   25  N   UNL     1      -6.134   7.045  64.948  1.00  0.00    -0.036 NA 
HETATM   26  N   UNL     1      -6.938   7.177  67.076  1.00  0.00    -0.075 NA 
ENDBRANCH   8  22
TORSDOF 1
ENDMDL
MODEL      130
REMARK 921   NORMALIZED FREE ENERGY PREDICTED BY IDOCK:   -1.43 KCAL/MOL
REMARK 922        TOTAL FREE ENERGY PREDICTED BY IDOCK:   -1.11 KCAL/MOL
REMARK 923 INTER-LIGAND FREE ENERGY PREDICTED BY IDOCK:   -1.53 KCAL/MOL
REMARK 924 INTRA-LIGAND FREE ENERGY PREDICTED BY IDOCK:    0.41 KCAL/MOL
REMARK 927      BINDING AFFINITY PREDICTED BY RF-SCORE:    0.00 PKD
ROOT
HETATM    1  C   UNL     1      -9.374  11.713  64.058  1.00  0.00     0.027 C  
HETATM    2  C   UNL     1      -9.246  12.974  64.930  1.00  0.00     0.933 C  
HETATM    3  C   UNL     1      -8.927  12.781  66.476  1.00  0.00    -0.092 C  
HETATM    4  C   UNL     1     -10.430  13.904  64.667  1.00  0.00    -0.396 A  
HETATM    5  O   UNL     1      -8.536  14.127  66.893  1.00  0.00    -0.350 OA 
HETATM    6  N   UNL     1     -11.625  13.338  64.353  1.00  0.00    -0.365 NA 
HETATM    7  C   UNL     1     -10.040  12.310  67.434  1.00  0.00    -0.207 A  
HETATM    8  C   UNL     1      -7.618  11.954  66.707  1.00  0.00    -0.034 C  
HETATM    9  C   UNL     1     -11.223  11.689  67.011  1.00  0.00    -0.376 A  
HETATM   10  C   UNL     1      -9.879  12.449  68.830  1.00  0.00     0.122 A  
HETATM   11  C   UNL     1     -12.660  14.170  64.140  1.00  0.00    -0.069 A  
HETATM   12  H   UNL     1      -8.345  14.012  67.818  1.00  0.00     0.000 HD 
HETATM   13  F   UNL     1      -9.113  15.873  64.979  1.00  0.00     0.227 F  
HETATM   14  C   UNL     1     -10.814  11.993  69.754  1.00  0.00     0.285 A  
HETATM   15  F   UNL     1      -8.775  13.048  69.305  1.00  0.00     0.296 F  
HETATM   16  N   UNL     1     -12.625  15.505  64.228  1.00  0.00    -0.398 NA 
HETATM   17  C   UNL     1     -11.964  11.384  69.290  1.00  0.00    -0.332 A  
HETATM   18  C   UNL     1     -12.183  11.239  67.928  1.00  0.00     0.457 A  
HETATM   19  C   UNL     1     -11.420  16.031  64.530  1.00  0.00    -0.271 A  
HETATM   20  F   UNL     1     -12.872  10.928  70.160  1.00  0.00    -0.352 F  
HETATM   21  C   UNL     1     -10.287  15.278  64.739  1.00  0.00    -0.097 A  
ENDROOT
BRANCH   8  22
HETATM   22  N   UNL     1      -7.704  10.518  66.618  1.00  0.00    -0.117 NA 
HETATM   23  C   UNL     1      -7.940   8.540  67.216  1.00  0.00    -0.102 A  
HETATM   24  C   UNL     1      -7.870   9.751  65.505  1.00  0.00    -0.120 A  
HETATM   25  N   UNL     1      -7.975   8.489  65.852  1.00  0.00    -0.101 NA 
HETATM   26  N   UNL     1      -7.822   9.769  67.730  1.00  0.00    -0.094 NA 
ENDBRANCH   8  22
TORSDOF 1
ENDMDL
MODEL      131
REMARK 921   NORMALIZED FREE ENERGY PREDICTED BY IDOCK:   -0.54 KCAL/MOL
REMARK 922        TOTAL FREE ENERGY PREDICTED BY IDOCK:   -0.17 KCAL/MOL
REMARK 923 INTER-LIGAND FREE ENERGY PREDICTED BY IDOCK:   -0.24 KCAL/MOL
REMARK 924 INTRA-LIGAND FREE ENERGY PREDICTED BY IDOCK:    0.07 KCAL/MOL
REMARK 927      BINDING AFFINITY PREDICTED BY RF-SCORE:    0.00 PKD
ROOT
HETATM    1  C   UNL     1     -11.899  16.928  66.402  1.00  0.00     2.130 C  
HETATM    2  C   UNL     1     -11.687  16.657  67.902  1.00  0.00     0.493 C  
HETATM    3  C   UNL     1     -10.413  17.304  68.602  1.00  0.00    -0.356 C  
HETATM    4  C   UNL     1     -11.838  15.162  68.181  1.00  0.00    -0.228 A  
HETATM    5  O   UNL     1     -10.715  17.146  70.025  1.00  0.00    -0.286 OA 
HETATM    6  N   UNL     1     -11.456  14.292  67.209  1.00  0.00    -0.333 NA 
HETATM    7  C   UNL     1      -9.016  16.697  68.361  1.00  0.00    -0.223 A  
HETATM    8  C   UNL     1     -10.375  18.859  68.428  1.00  0.00    -0.298 C  
HETATM    9  C   UNL     1      -8.711  15.842  67.293  1.00  0.00    -0.210 A  
HETATM   10  C   UNL     1      -7.941  17.035  69.211  1.00  0.00     0.047 A  
HETATM   11  C   UNL     1     -11.581  12.981  67.477  1.00  0.00    -0.356 A  
HETATM   12  H   UNL     1      -9.954  17.533  70.443  1.00  0.00     0.000 HD 
HETATM   13  F   UNL     1     -12.802  15.536  70.335  1.00  0.00    -0.425 F  
HETATM   14  C   UNL     1      -6.643  16.573  69.018  1.00  0.00    -0.193 A  
HETATM   15  F   UNL     1      -8.165  17.839  70.262  1.00  0.00     1.533 F  
HETATM   16  N   UNL     1     -12.029  12.453  68.623  1.00  0.00    -0.286 NA 
HETATM   17  C   UNL     1      -6.389  15.734  67.950  1.00  0.00    -0.143 A  
HETATM   18  C   UNL     1      -7.411  15.355  67.094  1.00  0.00    -0.224 A  
HETATM   19  C   UNL     1     -12.410  13.347  69.560  1.00  0.00    -0.102 A  
HETATM   20  F   UNL     1      -5.146  15.286  67.738  1.00  0.00    -0.115 F  
HETATM   21  C   UNL     1     -12.353  14.710  69.382  1.00  0.00    -0.164 A  
ENDROOT
BRANCH   8  22
HETATM   22  N   UNL     1      -9.869  19.385  67.184  1.00  0.00    -0.322 NA 
HETATM   23  C   UNL     1      -9.869  20.181  65.263  1.00  0.00     0.549 A  
HETATM   24  C   UNL     1      -8.615  19.837  66.909  1.00  0.00    -0.329 A  
HETATM   25  N   UNL     1      -8.575  20.304  65.681  1.00  0.00     0.061 NA 
HETATM   26  N   UNL     1     -10.707  19.666  66.169  1.00  0.00    -0.457 NA 
ENDBRANCH   8  22
TORSDOF 1
ENDMDL
MODEL      132
REMARK 921   NORMALIZED FREE ENERGY PREDICTED BY IDOCK:   -0.28 KCAL/MOL
REMARK 922        TOTAL FREE ENERGY PREDICTED BY IDOCK:    0.10 KCAL/MOL
REMARK 923 INTER-LIGAND FREE ENERGY PREDICTED BY IDOCK:   -0.65 KCAL/MOL
REMARK 924 INTRA-LIGAND FREE ENERGY PREDICTED BY IDOCK:    0.75 KCAL/MOL
REMARK 927      BINDING AFFINITY PREDICTED BY RF-SCORE:    0.00 PKD
ROOT
HETATM    1  C   UNL     1     -10.352   5.013  68.617  1.00  0.00    -0.098 C  
HETATM    2  C   UNL     1      -8.975   4.526  68.135  1.00  0.00    -0.140 C  
HETATM    3  C   UNL     1      -7.945   4.003  69.229  1.00  0.00    -0.055 C  
HETATM    4  C   UNL     1      -8.372   5.554  67.178  1.00  0.00    -0.104 A  
HETATM    5  O   UNL     1      -6.938   3.318  68.419  1.00  0.00    -0.048 OA 
HETATM    6  N   UNL     1      -8.663   6.865  67.387  1.00  0.00    -0.120 NA 
HETATM    7  C   UNL     1      -7.202   5.013  70.126  1.00  0.00    -0.058 A  
HETATM    8  C   UNL     1      -8.544   2.840  70.089  1.00  0.00    -0.061 C  
HETATM    9  C   UNL     1      -7.614   6.340  70.314  1.00  0.00    -0.096 A  
HETATM   10  C   UNL     1      -6.064   4.608  70.857  1.00  0.00    -0.018 A  
HETATM   11  C   UNL     1      -8.112   7.757  66.546  1.00  0.00    -0.111 A  
HETATM   12  H   UNL     1      -6.323   3.005  69.072  1.00  0.00     0.000 HD 
HETATM   13  F   UNL     1      -7.307   3.877  65.850  1.00  0.00    -0.067 F  
HETATM   14  C   UNL     1      -5.381   5.448  71.730  1.00  0.00    -0.009 A  
HETATM   15  F   UNL     1      -5.606   3.355  70.713  1.00  0.00    -0.010 F  
HETATM   16  N   UNL     1      -7.286   7.473  65.532  1.00  0.00    -0.067 NA 
HETATM   17  C   UNL     1      -5.824   6.747  71.885  1.00  0.00    -0.037 A  
HETATM   18  C   UNL     1      -6.926   7.204  71.178  1.00  0.00    -0.061 A  
HETATM   19  C   UNL     1      -7.029   6.161  65.347  1.00  0.00    -0.056 A  
HETATM   20  F   UNL     1      -5.190   7.570  72.728  1.00  0.00    -0.036 F  
HETATM   21  C   UNL     1      -7.561   5.161  66.128  1.00  0.00    -0.087 A  
ENDROOT
BRANCH   8  22
HETATM   22  N   UNL     1      -9.417   3.192  71.182  1.00  0.00    -0.143 NA 
HETATM   23  C   UNL     1     -11.070   3.957  72.187  1.00  0.00     0.692 A  
HETATM   24  C   UNL     1      -9.388   2.734  72.464  1.00  0.00    -0.099 A  
HETATM   25  N   UNL     1     -10.397   3.241  73.135  1.00  0.00    -0.150 NA 
HETATM   26  N   UNL     1     -10.530   3.917  70.964  1.00  0.00     0.394 NA 
ENDBRANCH   8  22
TORSDOF 1
ENDMDL
MODEL      133
REMARK 921   NORMALIZED FREE ENERGY PREDICTED BY IDOCK:    0.97 KCAL/MOL
REMARK 922        TOTAL FREE ENERGY PREDICTED BY IDOCK:    1.43 KCAL/MOL
REMARK 923 INTER-LIGAND FREE ENERGY PREDICTED BY IDOCK:    0.36 KCAL/MOL
REMARK 924 INTRA-LIGAND FREE ENERGY PREDICTED BY IDOCK:    1.06 KCAL/MOL
REMARK 927      BINDING AFFINITY PREDICTED BY RF-SCORE:    0.00 PKD
ROOT
HETATM    1  C   UNL     1      -5.167   6.038  69.052  1.00  0.00    -0.004 C  
HETATM    2  C   UNL     1      -5.771   4.683  69.460  1.00  0.00    -0.016 C  
HETATM    3  C   UNL     1      -6.925   4.077  68.547  1.00  0.00    -0.048 C  
HETATM    4  C   UNL     1      -6.123   4.703  70.947  1.00  0.00    -0.018 A  
HETATM    5  O   UNL     1      -6.999   2.690  69.005  1.00  0.00    -0.043 OA 
HETATM    6  N   UNL     1      -6.518   5.885  71.491  1.00  0.00    -0.048 NA 
HETATM    7  C   UNL     1      -8.349   4.662  68.625  1.00  0.00    -0.084 A  
HETATM    8  C   UNL     1      -6.473   3.925  67.056  1.00  0.00    -0.041 C  
HETATM    9  C   UNL     1      -8.648   5.921  69.166  1.00  0.00    -0.115 A  
HETATM   10  C   UNL     1      -9.440   3.945  68.088  1.00  0.00    -0.161 A  
HETATM   11  C   UNL     1      -6.837   5.881  72.797  1.00  0.00    -0.075 A  
HETATM   12  H   UNL     1      -7.689   2.328  68.460  1.00  0.00     0.000 HD 
HETATM   13  F   UNL     1      -5.586   2.393  71.232  1.00  0.00    -0.007 F  
HETATM   14  C   UNL     1     -10.741   4.437  68.070  1.00  0.00     1.128 A  
HETATM   15  F   UNL     1      -9.228   2.726  67.567  1.00  0.00    -0.163 F  
HETATM   16  N   UNL     1      -6.822   4.815  73.606  1.00  0.00    -0.068 NA 
HETATM   17  C   UNL     1     -10.987   5.683  68.612  1.00  0.00    -0.006 A  
HETATM   18  C   UNL     1      -9.956   6.424  69.170  1.00  0.00    -0.173 A  
HETATM   19  C   UNL     1      -6.414   3.663  73.034  1.00  0.00    -0.024 A  
HETATM   20  F   UNL     1     -12.228   6.183  68.596  1.00  0.00     0.560 F  
HETATM   21  C   UNL     1      -6.035   3.557  71.716  1.00  0.00    -0.013 A  
ENDROOT
BRANCH   8  22
HETATM   22  N   UNL     1      -6.521   5.095  66.215  1.00  0.00    -0.043 NA 
HETATM   23  C   UNL     1      -6.780   7.081  65.654  1.00  0.00    -0.052 A  
HETATM   24  C   UNL     1      -5.997   5.259  64.970  1.00  0.00    -0.022 A  
HETATM   25  N   UNL     1      -6.189   6.496  64.570  1.00  0.00    -0.037 NA 
HETATM   26  N   UNL     1      -6.960   6.271  66.702  1.00  0.00    -0.066 NA 
ENDBRANCH   8  22
TORSDOF 1
ENDMDL
MODEL      134
REMARK 921   NORMALIZED FREE ENERGY PREDICTED BY IDOCK:    1.18 KCAL/MOL
REMARK 922        TOTAL FREE ENERGY PREDICTED BY IDOCK:    1.66 KCAL/MOL
REMARK 923 INTER-LIGAND FREE ENERGY PREDICTED BY IDOCK:    0.81 KCAL/MOL
REMARK 924 INTRA-LIGAND FREE ENERGY PREDICTED BY IDOCK:    0.85 KCAL/MOL
REMARK 927      BINDING AFFINITY PREDICTED BY RF-SCORE:    0.00 PKD
ROOT
HETATM    1  C   UNL     1      -7.983  15.613  65.653  1.00  0.00     2.418 C  
HETATM    2  C   UNL     1      -9.356  16.139  66.105  1.00  0.00    -0.372 C  
HETATM    3  C   UNL     1      -9.750  15.972  67.638  1.00  0.00    -0.224 C  
HETATM    4  C   UNL     1     -10.438  15.645  65.145  1.00  0.00    -0.389 A  
HETATM    5  O   UNL     1     -10.902  16.863  67.771  1.00  0.00    -0.345 OA 
HETATM    6  N   UNL     1     -10.265  14.429  64.563  1.00  0.00    -0.161 NA 
HETATM    7  C   UNL     1     -10.174  14.590  68.173  1.00  0.00    -0.230 A  
HETATM    8  C   UNL     1      -8.694  16.630  68.589  1.00  0.00    -0.250 C  
HETATM    9  C   UNL     1      -9.904  13.382  67.516  1.00  0.00    -0.227 A  
HETATM   10  C   UNL     1     -10.834  14.484  69.417  1.00  0.00    -0.226 A  
HETATM   11  C   UNL     1     -11.232  14.003  63.733  1.00  0.00     0.462 A  
HETATM   12  H   UNL     1     -11.137  16.763  68.687  1.00  0.00     0.000 HD 
HETATM   13  F   UNL     1     -11.727  17.644  65.372  1.00  0.00     0.845 F  
HETATM   14  C   UNL     1     -11.192  13.268  69.988  1.00  0.00     0.148 A  
HETATM   15  F   UNL     1     -11.137  15.603  70.094  1.00  0.00    -0.233 F  
HETATM   16  N   UNL     1     -12.362  14.659  63.443  1.00  0.00    -0.317 NA 
HETATM   17  C   UNL     1     -10.902  12.102  69.305  1.00  0.00    -0.051 A  
HETATM   18  C   UNL     1     -10.273  12.148  68.071  1.00  0.00    -0.203 A  
HETATM   19  C   UNL     1     -12.494  15.867  64.029  1.00  0.00     0.670 A  
HETATM   20  F   UNL     1     -11.227  10.920  69.840  1.00  0.00    -0.276 F  
HETATM   21  C   UNL     1     -11.554  16.415  64.871  1.00  0.00     0.187 A  
ENDROOT
BRANCH   8  22
HETATM   22  N   UNL     1      -7.499  15.881  68.888  1.00  0.00    -0.164 NA 
HETATM   23  C   UNL     1      -5.984  14.993  70.003  1.00  0.00    -0.142 A  
HETATM   24  C   UNL     1      -6.815  15.027  68.076  1.00  0.00    -0.141 A  
HETATM   25  N   UNL     1      -5.821  14.487  68.745  1.00  0.00    -0.083 NA 
HETATM   26  N   UNL     1      -7.028  15.816  70.147  1.00  0.00     0.110 NA 
ENDBRANCH   8  22
TORSDOF 1
ENDMDL
MODEL      135
REMARK 921   NORMALIZED FREE ENERGY PREDICTED BY IDOCK:    1.52 KCAL/MOL
REMARK 922        TOTAL FREE ENERGY PREDICTED BY IDOCK:    2.01 KCAL/MOL
REMARK 923 INTER-LIGAND FREE ENERGY PREDICTED BY IDOCK:    1.01 KCAL/MOL
REMARK 924 INTRA-LIGAND FREE ENERGY PREDICTED BY IDOCK:    1.00 KCAL/MOL
REMARK 927      BINDING AFFINITY PREDICTED BY RF-SCORE:    0.00 PKD
ROOT
HETATM    1  C   UNL     1      -9.654  13.553  70.310  1.00  0.00     3.373 C  
HETATM    2  C   UNL     1      -9.431  12.251  69.523  1.00  0.00     1.365 C  
HETATM    3  C   UNL     1      -9.087  12.366  67.974  1.00  0.00    -0.195 C  
HETATM    4  C   UNL     1     -10.565  11.269  69.820  1.00  0.00     0.163 A  
HETATM    5  O   UNL     1      -8.607  11.023  67.651  1.00  0.00    -0.123 OA 
HETATM    6  N   UNL     1     -11.799  11.781  70.072  1.00  0.00    -0.341 NA 
HETATM    7  C   UNL     1     -10.203  12.709  66.965  1.00  0.00    -0.233 A  
HETATM    8  C   UNL     1      -7.824  13.254  67.718  1.00  0.00    -0.157 C  
HETATM    9  C   UNL     1     -11.430  13.282  67.324  1.00  0.00    -0.378 A  
HETATM   10  C   UNL     1      -9.999  12.493  65.584  1.00  0.00    -0.245 A  
HETATM   11  C   UNL     1     -12.788  10.903  70.317  1.00  0.00    -0.142 A  
HETATM   12  H   UNL     1      -8.402  11.091  66.726  1.00  0.00     0.000 HD 
HETATM   13  F   UNL     1      -9.127   9.368  69.661  1.00  0.00    -0.140 F  
HETATM   14  C   UNL     1     -10.937  12.834  64.615  1.00  0.00    -0.355 A  
HETATM   15  F   UNL     1      -8.852  11.933  65.172  1.00  0.00     0.037 F  
HETATM   16  N   UNL     1     -12.672   9.570  70.314  1.00  0.00     0.296 NA 
HETATM   17  C   UNL     1     -12.131  13.399  65.015  1.00  0.00    -0.401 A  
HETATM   18  C   UNL     1     -12.392  13.616  66.360  1.00  0.00    -0.441 A  
HETATM   19  C   UNL     1     -11.431   9.099  70.071  1.00  0.00    -0.013 A  
HETATM   20  F   UNL     1     -13.044  13.746  64.100  1.00  0.00     0.033 F  
HETATM   21  C   UNL     1     -10.340   9.905  69.838  1.00  0.00    -0.258 A  
ENDROOT
BRANCH   8  22
HETATM   22  N   UNL     1      -7.996  14.685  67.714  1.00  0.00    -0.142 NA 
HETATM   23  C   UNL     1      -8.949  16.533  67.789  1.00  0.00    -0.202 A  
HETATM   24  C   UNL     1      -7.049  15.649  67.882  1.00  0.00    -0.138 A  
HETATM   25  N   UNL     1      -7.620  16.832  67.886  1.00  0.00    -0.166 NA 
HETATM   26  N   UNL     1      -9.229  15.227  67.728  1.00  0.00    -0.186 NA 
ENDBRANCH   8  22
TORSDOF 1
ENDMDL
MODEL      136
REMARK 921   NORMALIZED FREE ENERGY PREDICTED BY IDOCK:    2.01 KCAL/MOL
REMARK 922        TOTAL FREE ENERGY PREDICTED BY IDOCK:    2.53 KCAL/MOL
REMARK 923 INTER-LIGAND FREE ENERGY PREDICTED BY IDOCK:    1.55 KCAL/MOL
REMARK 924 INTRA-LIGAND FREE ENERGY PREDICTED BY IDOCK:    0.98 KCAL/MOL
REMARK 927      BINDING AFFINITY PREDICTED BY RF-SCORE:    0.00 PKD
ROOT
HETATM    1  C   UNL     1      -8.760  13.907  65.198  1.00  0.00     2.871 C  
HETATM    2  C   UNL     1      -9.740  13.514  66.316  1.00  0.00    -0.287 C  
HETATM    3  C   UNL     1      -9.692  14.342  67.674  1.00  0.00    -0.220 C  
HETATM    4  C   UNL     1      -9.699  12.001  66.527  1.00  0.00    -0.216 A  
HETATM    5  O   UNL     1     -10.939  13.952  68.331  1.00  0.00    -0.237 OA 
HETATM    6  N   UNL     1      -8.518  11.361  66.318  1.00  0.00    -0.167 NA 
HETATM    7  C   UNL     1      -8.548  14.098  68.679  1.00  0.00    -0.126 A  
HETATM    8  C   UNL     1      -9.894  15.875  67.433  1.00  0.00    -0.234 C  
HETATM    9  C   UNL     1      -7.341  13.466  68.350  1.00  0.00    -0.112 A  
HETATM   10  C   UNL     1      -8.661  14.564  70.007  1.00  0.00     0.973 A  
HETATM   11  C   UNL     1      -8.496  10.032  66.523  1.00  0.00    -0.126 A  
HETATM   12  H   UNL     1     -10.910  14.446  69.142  1.00  0.00     0.000 HD 
HETATM   13  F   UNL     1     -12.025  11.888  67.063  1.00  0.00    -0.365 F  
HETATM   14  C   UNL     1      -7.646  14.432  70.949  1.00  0.00     2.065 A  
HETATM   15  F   UNL     1      -9.797  15.165  70.395  1.00  0.00    -0.176 F  
HETATM   16  N   UNL     1      -9.528   9.285  66.935  1.00  0.00    -0.153 NA 
HETATM   17  C   UNL     1      -6.473  13.805  70.578  1.00  0.00     0.139 A  
HETATM   18  C   UNL     1      -6.315  13.310  69.292  1.00  0.00    -0.108 A  
HETATM   19  C   UNL     1     -10.686   9.952  67.121  1.00  0.00    -0.207 A  
HETATM   20  F   UNL     1      -5.479  13.676  71.464  1.00  0.00    -0.154 F  
HETATM   21  C   UNL     1     -10.831  11.304  66.913  1.00  0.00    -0.282 A  
ENDROOT
BRANCH   8  22
HETATM   22  N   UNL     1      -8.753  16.646  67.006  1.00  0.00    -0.191 NA 
HETATM   23  C   UNL     1      -6.783  17.105  66.522  1.00  0.00    -0.255 A  
HETATM   24  C   UNL     1      -8.740  17.840  66.351  1.00  0.00    -0.228 A  
HETATM   25  N   UNL     1      -7.501  18.177  66.075  1.00  0.00    -0.444 NA 
HETATM   26  N   UNL     1      -7.514  16.122  67.058  1.00  0.00    -0.208 NA 
ENDBRANCH   8  22
TORSDOF 1
ENDMDL
MODEL      137
REMARK 921   NORMALIZED FREE ENERGY PREDICTED BY IDOCK:    2.11 KCAL/MOL
REMARK 922        TOTAL FREE ENERGY PREDICTED BY IDOCK:    2.64 KCAL/MOL
REMARK 923 INTER-LIGAND FREE ENERGY PREDICTED BY IDOCK:    1.90 KCAL/MOL
REMARK 924 INTRA-LIGAND FREE ENERGY PREDICTED BY IDOCK:    0.74 KCAL/MOL
REMARK 927      BINDING AFFINITY PREDICTED BY RF-SCORE:    0.00 PKD
ROOT
HETATM    1  C   UNL     1     -12.149  13.284  68.849  1.00  0.00    -0.260 C  
HETATM    2  C   UNL     1     -10.975  12.372  69.243  1.00  0.00    -0.145 C  
HETATM    3  C   UNL     1      -9.700  12.346  68.291  1.00  0.00    -0.218 C  
HETATM    4  C   UNL     1     -11.500  10.979  69.591  1.00  0.00    -0.303 A  
HETATM    5  O   UNL     1      -8.693  11.687  69.122  1.00  0.00    -0.367 OA 
HETATM    6  N   UNL     1     -12.598  10.530  68.928  1.00  0.00     0.134 NA 
HETATM    7  C   UNL     1      -9.760  11.583  66.953  1.00  0.00    -0.205 A  
HETATM    8  C   UNL     1      -9.095  13.775  68.083  1.00  0.00    -0.194 C  
HETATM    9  C   UNL     1     -10.954  11.204  66.323  1.00  0.00    -0.227 A  
HETATM   10  C   UNL     1      -8.569  11.270  66.262  1.00  0.00    -0.172 A  
HETATM   11  C   UNL     1     -13.037   9.297  69.236  1.00  0.00     4.144 A  
HETATM   12  H   UNL     1      -7.932  11.671  68.554  1.00  0.00     0.000 HD 
HETATM   13  F   UNL     1      -9.839  10.639  71.275  1.00  0.00     1.395 F  
HETATM   14  C   UNL     1      -8.551  10.637  65.023  1.00  0.00    -0.166 A  
HETATM   15  F   UNL     1      -7.389  11.591  66.814  1.00  0.00    -0.127 F  
HETATM   16  N   UNL     1     -12.478   8.463  70.121  1.00  0.00     0.799 NA 
HETATM   17  C   UNL     1      -9.752  10.285  64.440  1.00  0.00    -0.315 A  
HETATM   18  C   UNL     1     -10.952  10.551  65.082  1.00  0.00     0.346 A  
HETATM   19  C   UNL     1     -11.398   8.948  70.768  1.00  0.00    -0.278 A  
HETATM   20  F   UNL     1      -9.760   9.685  63.243  1.00  0.00    -0.195 F  
HETATM   21  C   UNL     1     -10.880  10.205  70.555  1.00  0.00    -0.273 A  
ENDROOT
BRANCH   8  22
HETATM   22  N   UNL     1      -9.717  14.634  67.107  1.00  0.00    -0.230 NA 
HETATM   23  C   UNL     1     -10.141  16.350  66.011  1.00  0.00    -0.353 A  
HETATM   24  C   UNL     1     -10.471  14.278  66.030  1.00  0.00    -0.301 A  
HETATM   25  N   UNL     1     -10.793  15.352  65.345  1.00  0.00    -0.369 NA 
HETATM   26  N   UNL     1      -9.431  15.949  67.071  1.00  0.00    -0.218 NA 
ENDBRANCH   8  22
TORSDOF 1
ENDMDL
MODEL      138
REMARK 921   NORMALIZED FREE ENERGY PREDICTED BY IDOCK:    2.48 KCAL/MOL
REMARK 922        TOTAL FREE ENERGY PREDICTED BY IDOCK:    3.02 KCAL/MOL
REMARK 923 INTER-LIGAND FREE ENERGY PREDICTED BY IDOCK:    2.19 KCAL/MOL
REMARK 924 INTRA-LIGAND FREE ENERGY PREDICTED BY IDOCK:    0.83 KCAL/MOL
REMARK 927      BINDING AFFINITY PREDICTED BY RF-SCORE:    0.00 PKD
ROOT
HETATM    1  C   UNL     1     -12.187  15.866  68.863  1.00  0.00     0.099 C  
HETATM    2  C   UNL     1     -12.225  14.805  67.750  1.00  0.00    -0.011 C  
HETATM    3  C   UNL     1     -11.913  13.297  68.148  1.00  0.00    -0.304 C  
HETATM    4  C   UNL     1     -11.419  15.293  66.546  1.00  0.00    -0.095 A  
HETATM    5  O   UNL     1     -12.373  12.554  66.975  1.00  0.00    -0.403 OA 
HETATM    6  N   UNL     1     -10.337  16.081  66.783  1.00  0.00    -0.295 NA 
HETATM    7  C   UNL     1     -10.459  12.863  68.423  1.00  0.00    -0.260 A  
HETATM    8  C   UNL     1     -12.865  12.780  69.278  1.00  0.00     1.165 C  
HETATM    9  C   UNL     1      -9.418  13.757  68.707  1.00  0.00    -0.015 A  
HETATM   10  C   UNL     1     -10.123  11.492  68.450  1.00  0.00    -0.204 A  
HETATM   11  C   UNL     1      -9.630  16.489  65.715  1.00  0.00    -0.156 A  
HETATM   12  H   UNL     1     -12.187  11.653  67.212  1.00  0.00     0.000 HD 
HETATM   13  F   UNL     1     -12.879  14.232  64.981  1.00  0.00    -0.442 F  
HETATM   14  C   UNL     1      -8.846  11.027  68.750  1.00  0.00    -0.149 A  
HETATM   15  F   UNL     1     -11.068  10.580  68.173  1.00  0.00    -0.247 F  
HETATM   16  N   UNL     1      -9.884  16.173  64.439  1.00  0.00     1.478 NA 
HETATM   17  C   UNL     1      -7.852  11.945  69.026  1.00  0.00     0.101 A  
HETATM   18  C   UNL     1      -8.123  13.305  68.995  1.00  0.00     0.300 A  
HETATM   19  C   UNL     1     -10.971  15.399  64.242  1.00  0.00     0.181 A  
HETATM   20  F   UNL     1      -6.620  11.521  69.328  1.00  0.00    -0.074 F  
HETATM   21  C   UNL     1     -11.784  14.949  65.257  1.00  0.00    -0.263 A  
ENDROOT
BRANCH   8  22
HETATM   22  N   UNL     1     -12.546  13.130  70.640  1.00  0.00    -0.257 NA 
HETATM   23  C   UNL     1     -12.165  12.903  72.672  1.00  0.00     2.061 A  
HETATM   24  C   UNL     1     -12.007  14.290  71.106  1.00  0.00    -0.282 A  
HETATM   25  N   UNL     1     -11.800  14.190  72.400  1.00  0.00     0.436 NA 
HETATM   26  N   UNL     1     -12.585  12.201  71.613  1.00  0.00    -0.172 NA 
ENDBRANCH   8  22
TORSDOF 1
ENDMDL
MODEL      139
REMARK 921   NORMALIZED FREE ENERGY PREDICTED BY IDOCK:    3.12 KCAL/MOL
REMARK 922        TOTAL FREE ENERGY PREDICTED BY IDOCK:    3.71 KCAL/MOL
REMARK 923 INTER-LIGAND FREE ENERGY PREDICTED BY IDOCK:    3.73 KCAL/MOL
REMARK 924 INTRA-LIGAND FREE ENERGY PREDICTED BY IDOCK:   -0.02 KCAL/MOL
REMARK 927      BINDING AFFINITY PREDICTED BY RF-SCORE:    0.00 PKD
ROOT
HETATM    1  C   UNL     1      -5.636  10.300  69.142  1.00  0.00    -0.037 C  
HETATM    2  C   UNL     1      -5.944  10.221  70.647  1.00  0.00    -0.106 C  
HETATM    3  C   UNL     1      -7.086   9.221  71.122  1.00  0.00    -0.041 C  
HETATM    4  C   UNL     1      -6.100  11.632  71.215  1.00  0.00     0.967 A  
HETATM    5  O   UNL     1      -6.865   9.145  72.566  1.00  0.00    -0.315 OA 
HETATM    6  N   UNL     1      -6.616  12.591  70.401  1.00  0.00     0.219 NA 
HETATM    7  C   UNL     1      -8.567   9.590  70.904  1.00  0.00     0.007 A  
HETATM    8  C   UNL     1      -6.811   7.752  70.654  1.00  0.00    -0.042 C  
HETATM    9  C   UNL     1      -9.002  10.569  70.000  1.00  0.00     0.442 A  
HETATM   10  C   UNL     1      -9.581   8.895  71.599  1.00  0.00    -0.293 A  
HETATM   11  C   UNL     1      -6.760  13.822  70.921  1.00  0.00     0.905 A  
HETATM   12  H   UNL     1      -7.547   8.548  72.850  1.00  0.00     0.000 HD 
HETATM   13  F   UNL     1      -5.148  11.024  73.320  1.00  0.00     0.015 F  
HETATM   14  C   UNL     1     -10.937   9.134  71.407  1.00  0.00    -0.414 A  
HETATM   15  F   UNL     1      -9.234   7.954  72.492  1.00  0.00    -0.174 F  
HETATM   16  N   UNL     1      -6.461  14.186  72.174  1.00  0.00     0.554 NA 
HETATM   17  C   UNL     1     -11.319  10.106  70.504  1.00  0.00    -0.338 A  
HETATM   18  C   UNL     1     -10.366  10.834  69.808  1.00  0.00    -0.073 A  
HETATM   19  C   UNL     1      -5.940  13.210  72.948  1.00  0.00     1.605 A  
HETATM   20  F   UNL     1     -12.619  10.346  70.294  1.00  0.00    -0.339 F  
HETATM   21  C   UNL     1      -5.721  11.924  72.512  1.00  0.00     1.619 A  
ENDROOT
BRANCH   8  22
HETATM   22  N   UNL     1      -7.164   7.400  69.302  1.00  0.00    -0.078 NA 
HETATM   23  C   UNL     1      -6.935   6.839  67.312  1.00  0.00    -0.074 A  
HETATM   24  C   UNL     1      -8.384   7.036  68.817  1.00  0.00    -0.122 A  
HETATM   25  N   UNL     1      -8.276   6.722  67.546  1.00  0.00    -0.121 NA 
HETATM   26  N   UNL     1      -6.209   7.208  68.372  1.00  0.00    -0.034 NA 
ENDBRANCH   8  22
TORSDOF 1
ENDMDL
MODEL      140
REMARK 921   NORMALIZED FREE ENERGY PREDICTED BY IDOCK:    3.40 KCAL/MOL
REMARK 922        TOTAL FREE ENERGY PREDICTED BY IDOCK:    4.00 KCAL/MOL
REMARK 923 INTER-LIGAND FREE ENERGY PREDICTED BY IDOCK:    3.69 KCAL/MOL
REMARK 924 INTRA-LIGAND FREE ENERGY PREDICTED BY IDOCK:    0.30 KCAL/MOL
REMARK 927      BINDING AFFINITY PREDICTED BY RF-SCORE:    0.00 PKD
ROOT
HETATM    1  C   UNL     1      -9.229  10.670  67.983  1.00  0.00    -0.148 C  
HETATM    2  C   UNL     1     -10.097  10.138  66.830  1.00  0.00    -0.279 C  
HETATM    3  C   UNL     1      -9.699   8.741  66.182  1.00  0.00    -0.250 C  
HETATM    4  C   UNL     1     -10.316  11.244  65.798  1.00  0.00    -0.258 A  
HETATM    5  O   UNL     1     -10.891   8.396  65.408  1.00  0.00     2.471 OA 
HETATM    6  N   UNL     1      -9.321  12.152  65.619  1.00  0.00    -0.104 NA 
HETATM    7  C   UNL     1      -8.492   8.657  65.226  1.00  0.00    -0.196 A  
HETATM    8  C   UNL     1      -9.637   7.596  67.248  1.00  0.00    -0.157 C  
HETATM    9  C   UNL     1      -7.487   9.631  65.150  1.00  0.00    -0.115 A  
HETATM   10  C   UNL     1      -8.324   7.527  64.395  1.00  0.00     0.074 A  
HETATM   11  C   UNL     1      -9.524  13.110  64.697  1.00  0.00     0.636 A  
HETATM   12  H   UNL     1     -10.653   7.561  65.020  1.00  0.00     0.000 HD 
HETATM   13  F   UNL     1     -12.520  10.487  65.272  1.00  0.00     2.718 F  
HETATM   14  C   UNL     1      -7.229   7.357  63.554  1.00  0.00    -0.076 A  
HETATM   15  F   UNL     1      -9.256   6.562  64.407  1.00  0.00     0.502 F  
HETATM   16  N   UNL     1     -10.609  13.238  63.924  1.00  0.00    -0.220 NA 
HETATM   17  C   UNL     1      -6.262   8.342  63.515  1.00  0.00    -0.073 A  
HETATM   18  C   UNL     1      -6.386   9.482  64.295  1.00  0.00    -0.098 A  
HETATM   19  C   UNL     1     -11.580  12.326  64.139  1.00  0.00    -0.388 A  
HETATM   20  F   UNL     1      -5.194   8.195  62.721  1.00  0.00    -0.054 F  
HETATM   21  C   UNL     1     -11.493  11.322  65.076  1.00  0.00     0.161 A  
ENDROOT
BRANCH   8  22
HETATM   22  N   UNL     1      -8.442   7.485  68.047  1.00  0.00    -0.123 NA 
HETATM   23  C   UNL     1      -7.233   7.154  69.706  1.00  0.00    -0.079 A  
HETATM   24  C   UNL     1      -7.151   7.395  67.624  1.00  0.00    -0.085 A  
HETATM   25  N   UNL     1      -6.359   7.233  68.659  1.00  0.00    -0.035 NA 
HETATM   26  N   UNL     1      -8.523   7.256  69.372  1.00  0.00    -0.133 NA 
ENDBRANCH   8  22
TORSDOF 1
ENDMDL
MODEL      141
REMARK 921   NORMALIZED FREE ENERGY PREDICTED BY IDOCK:    3.84 KCAL/MOL
REMARK 922        TOTAL FREE ENERGY PREDICTED BY IDOCK:    4.46 KCAL/MOL
REMARK 923 INTER-LIGAND FREE ENERGY PREDICTED BY IDOCK:    3.61 KCAL/MOL
REMARK 924 INTRA-LIGAND FREE ENERGY PREDICTED BY IDOCK:    0.85 KCAL/MOL
REMARK 927      BINDING AFFINITY PREDICTED BY RF-SCORE:    0.00 PKD
ROOT
HETATM    1  C   UNL     1      -9.275  14.499  69.084  1.00  0.00     0.019 C  
HETATM    2  C   UNL     1      -8.528  15.789  69.464  1.00  0.00    -0.138 C  
HETATM    3  C   UNL     1      -9.382  17.120  69.642  1.00  0.00     0.593 C  
HETATM    4  C   UNL     1      -7.313  15.968  68.554  1.00  0.00    -0.146 A  
HETATM    5  O   UNL     1      -8.445  18.014  70.322  1.00  0.00     2.269 OA 
HETATM    6  N   UNL     1      -7.403  15.512  67.277  1.00  0.00    -0.209 NA 
HETATM    7  C   UNL     1      -9.906  17.866  68.398  1.00  0.00    -0.355 A  
HETATM    8  C   UNL     1     -10.523  16.947  70.700  1.00  0.00     1.018 C  
HETATM    9  C   UNL     1     -10.005  17.287  67.125  1.00  0.00    -0.282 A  
HETATM   10  C   UNL     1     -10.368  19.195  68.512  1.00  0.00    -0.283 A  
HETATM   11  C   UNL     1      -6.331  15.690  66.485  1.00  0.00     1.544 A  
HETATM   12  H   UNL     1      -8.955  18.808  70.429  1.00  0.00     0.000 HD 
HETATM   13  F   UNL     1      -6.006  16.967  70.287  1.00  0.00    -0.225 F  
HETATM   14  C   UNL     1     -10.908  19.907  67.446  1.00  0.00    -0.365 A  
HETATM   15  F   UNL     1     -10.289  19.816  69.699  1.00  0.00    -0.401 F  
HETATM   16  N   UNL     1      -5.189  16.294  66.835  1.00  0.00    -0.338 NA 
HETATM   17  C   UNL     1     -10.988  19.295  66.211  1.00  0.00    -0.112 A  
HETATM   18  C   UNL     1     -10.531  17.997  66.037  1.00  0.00    -0.317 A  
HETATM   19  C   UNL     1      -5.131  16.723  68.114  1.00  0.00    -0.116 A  
HETATM   20  F   UNL     1     -11.514  19.957  65.173  1.00  0.00    -0.179 F  
HETATM   21  C   UNL     1      -6.156  16.567  69.019  1.00  0.00    -0.155 A  
ENDROOT
BRANCH   8  22
HETATM   22  N   UNL     1     -11.743  16.305  70.276  1.00  0.00    -0.178 NA 
HETATM   23  C   UNL     1     -13.682  15.558  70.360  1.00  0.00     0.543 A  
HETATM   24  C   UNL     1     -12.144  16.015  69.007  1.00  0.00    -0.014 A  
HETATM   25  N   UNL     1     -13.351  15.496  69.036  1.00  0.00     1.757 NA 
HETATM   26  N   UNL     1     -12.744  16.090  71.150  1.00  0.00    -0.317 NA 
ENDBRANCH   8  22
TORSDOF 1
ENDMDL
MODEL      142
REMARK 921   NORMALIZED FREE ENERGY PREDICTED BY IDOCK:    9.63 KCAL/MOL
REMARK 922        TOTAL FREE ENERGY PREDICTED BY IDOCK:   10.60 KCAL/MOL
REMARK 923 INTER-LIGAND FREE ENERGY PREDICTED BY IDOCK:   10.34 KCAL/MOL
REMARK 924 INTRA-LIGAND FREE ENERGY PREDICTED BY IDOCK:    0.26 KCAL/MOL
REMARK 927      BINDING AFFINITY PREDICTED BY RF-SCORE:    0.00 PKD
ROOT
HETATM    1  C   UNL     1      -7.797  11.053  66.606  1.00  0.00    -0.153 C  
HETATM    2  C   UNL     1      -9.014  11.505  67.431  1.00  0.00    -0.156 C  
HETATM    3  C   UNL     1     -10.456  11.349  66.778  1.00  0.00    -0.244 C  
HETATM    4  C   UNL     1      -8.757  12.898  68.006  1.00  0.00    -0.191 A  
HETATM    5  O   UNL     1     -11.347  11.528  67.924  1.00  0.00    -0.259 OA 
HETATM    6  N   UNL     1      -7.995  13.756  67.278  1.00  0.00    -0.154 NA 
HETATM    7  C   UNL     1     -10.912  12.336  65.685  1.00  0.00    -0.338 A  
HETATM    8  C   UNL     1     -10.746   9.873  66.343  1.00  0.00     0.036 C  
HETATM    9  C   UNL     1     -10.036  13.148  64.952  1.00  0.00    -0.236 A  
HETATM   10  C   UNL     1     -12.277  12.424  65.335  1.00  0.00    -0.319 A  
HETATM   11  C   UNL     1      -7.791  14.982  67.791  1.00  0.00    -0.148 A  
HETATM   12  H   UNL     1     -12.209  11.434  67.534  1.00  0.00     0.000 HD 
HETATM   13  F   UNL     1      -9.974  12.432  70.008  1.00  0.00     1.141 F  
HETATM   14  C   UNL     1     -12.752  13.247  64.319  1.00  0.00    -0.146 A  
HETATM   15  F   UNL     1     -13.174  11.684  66.007  1.00  0.00     2.589 F  
HETATM   16  N   UNL     1      -8.288  15.442  68.946  1.00  0.00    -0.185 NA 
HETATM   17  C   UNL     1     -11.851  14.028  63.622  1.00  0.00     0.011 A  
HETATM   18  C   UNL     1     -10.500  13.995  63.936  1.00  0.00     1.142 A  
HETATM   19  C   UNL     1      -9.029  14.558  69.647  1.00  0.00     0.474 A  
HETATM   20  F   UNL     1     -12.282  14.819  62.633  1.00  0.00     1.170 F  
HETATM   21  C   UNL     1      -9.277  13.270  69.233  1.00  0.00     0.844 A  
ENDROOT
BRANCH   8  22
HETATM   22  N   UNL     1     -10.205   9.425  65.084  1.00  0.00     0.422 NA 
HETATM   23  C   UNL     1      -9.308   8.176  63.683  1.00  0.00     2.065 A  
HETATM   24  C   UNL     1     -10.385   9.969  63.849  1.00  0.00     1.029 A  
HETATM   25  N   UNL     1      -9.786   9.223  62.948  1.00  0.00     1.067 NA 
HETATM   26  N   UNL     1      -9.583   8.235  64.991  1.00  0.00     0.878 NA 
ENDBRANCH   8  22
TORSDOF 1
ENDMDL
MODEL      143
REMARK 921   NORMALIZED FREE ENERGY PREDICTED BY IDOCK:   10.30 KCAL/MOL
REMARK 922        TOTAL FREE ENERGY PREDICTED BY IDOCK:   11.31 KCAL/MOL
REMARK 923 INTER-LIGAND FREE ENERGY PREDICTED BY IDOCK:   10.95 KCAL/MOL
REMARK 924 INTRA-LIGAND FREE ENERGY PREDICTED BY IDOCK:    0.36 KCAL/MOL
REMARK 927      BINDING AFFINITY PREDICTED BY RF-SCORE:    0.00 PKD
ROOT
HETATM    1  C   UNL     1      -5.687   5.943  68.696  1.00  0.00    -0.012 C  
HETATM    2  C   UNL     1      -6.740   6.155  67.596  1.00  0.00    -0.058 C  
HETATM    3  C   UNL     1      -8.197   6.617  68.038  1.00  0.00    -0.117 C  
HETATM    4  C   UNL     1      -6.748   4.953  66.651  1.00  0.00    -0.051 A  
HETATM    5  O   UNL     1      -8.794   7.049  66.775  1.00  0.00    -0.117 OA 
HETATM    6  N   UNL     1      -6.457   3.732  67.174  1.00  0.00    -0.037 NA 
HETATM    7  C   UNL     1      -9.163   5.599  68.677  1.00  0.00    -0.134 A  
HETATM    8  C   UNL     1      -8.163   7.941  68.874  1.00  0.00    -0.126 C  
HETATM    9  C   UNL     1      -8.754   4.379  69.235  1.00  0.00    -0.120 A  
HETATM   10  C   UNL     1     -10.541   5.891  68.769  1.00  0.00    -0.272 A  
HETATM   11  C   UNL     1      -6.482   2.684  66.333  1.00  0.00    -0.028 A  
HETATM   12  H   UNL     1      -9.664   7.325  67.039  1.00  0.00     0.000 HD 
HETATM   13  F   UNL     1      -7.258   6.298  64.744  1.00  0.00    -0.054 F  
HETATM   14  C   UNL     1     -11.459   5.046  69.385  1.00  0.00     3.053 A  
HETATM   15  F   UNL     1     -11.004   7.035  68.242  1.00  0.00    -0.235 F  
HETATM   16  N   UNL     1      -6.788   2.730  65.030  1.00  0.00    -0.043 NA 
HETATM   17  C   UNL     1     -11.010   3.857  69.923  1.00  0.00     3.619 A  
HETATM   18  C   UNL     1      -9.669   3.510  69.844  1.00  0.00    -0.131 A  
HETATM   19  C   UNL     1      -7.059   3.959  64.545  1.00  0.00    -0.054 A  
HETATM   20  F   UNL     1     -11.873   3.033  70.530  1.00  0.00     6.345 F  
HETATM   21  C   UNL     1      -7.034   5.105  65.307  1.00  0.00    -0.062 A  
ENDROOT
BRANCH   8  22
HETATM   22  N   UNL     1      -7.845   7.844  70.277  1.00  0.00    -0.088 NA 
HETATM   23  C   UNL     1      -8.116   7.575  72.321  1.00  0.00    -0.103 A  
HETATM   24  C   UNL     1      -6.621   7.698  70.854  1.00  0.00    -0.038 A  
HETATM   25  N   UNL     1      -6.760   7.574  72.155  1.00  0.00    -0.054 NA 
HETATM   26  N   UNL     1      -8.821   7.691  71.191  1.00  0.00    -0.136 NA 
ENDBRANCH   8  22
TORSDOF 1
ENDMDL
MODEL      144
REMARK 921   NORMALIZED FREE ENERGY PREDICTED BY IDOCK:   12.74 KCAL/MOL
REMARK 922        TOTAL FREE ENERGY PREDICTED BY IDOCK:   13.89 KCAL/MOL
REMARK 923 INTER-LIGAND FREE ENERGY PREDICTED BY IDOCK:   13.06 KCAL/MOL
REMARK 924 INTRA-LIGAND FREE ENERGY PREDICTED BY IDOCK:    0.83 KCAL/MOL
REMARK 927      BINDING AFFINITY PREDICTED BY RF-SCORE:    0.00 PKD
ROOT
HETATM    1  C   UNL     1      -7.450   8.065  64.598  1.00  0.00    -0.097 C  
HETATM    2  C   UNL     1      -7.593   7.760  66.099  1.00  0.00    -0.087 C  
HETATM    3  C   UNL     1      -7.820   6.247  66.534  1.00  0.00    -0.104 C  
HETATM    4  C   UNL     1      -8.597   8.728  66.727  1.00  0.00    -0.115 A  
HETATM    5  O   UNL     1      -7.560   6.285  67.973  1.00  0.00    -0.098 OA 
HETATM    6  N   UNL     1      -9.629   9.161  65.956  1.00  0.00    -0.257 NA 
HETATM    7  C   UNL     1      -9.202   5.592  66.335  1.00  0.00    -0.160 A  
HETATM    8  C   UNL     1      -6.685   5.308  66.003  1.00  0.00    -0.053 C  
HETATM    9  C   UNL     1     -10.188   6.095  65.475  1.00  0.00     1.063 A  
HETATM   10  C   UNL     1      -9.518   4.389  67.002  1.00  0.00    -0.175 A  
HETATM   11  C   UNL     1     -10.511  10.000  66.528  1.00  0.00    -0.153 A  
HETATM   12  H   UNL     1      -7.696   5.381  68.233  1.00  0.00     0.000 HD 
HETATM   13  F   UNL     1      -7.415   8.802  68.802  1.00  0.00    -0.077 F  
HETATM   14  C   UNL     1     -10.721   3.712  66.824  1.00  0.00     2.300 A  
HETATM   15  F   UNL     1      -8.626   3.858  67.853  1.00  0.00    -0.091 F  
HETATM   16  N   UNL     1     -10.476  10.431  67.795  1.00  0.00    -0.209 NA 
HETATM   17  C   UNL     1     -11.661   4.244  65.963  1.00  0.00     3.255 A  
HETATM   18  C   UNL     1     -11.411   5.434  65.296  1.00  0.00     1.605 A  
HETATM   19  C   UNL     1      -9.431   9.989  68.526  1.00  0.00    -0.148 A  
HETATM   20  F   UNL     1     -12.820   3.606  65.767  1.00  0.00     6.997 F  
HETATM   21  C   UNL     1      -8.454   9.154  68.035  1.00  0.00    -0.121 A  
ENDROOT
BRANCH   8  22
HETATM   22  N   UNL     1      -6.771   4.854  64.638  1.00  0.00    -0.047 NA 
HETATM   23  C   UNL     1      -6.274   3.857  62.881  1.00  0.00    -0.018 A  
HETATM   24  C   UNL     1      -7.844   4.903  63.800  1.00  0.00    -0.085 A  
HETATM   25  N   UNL     1      -7.540   4.320  62.662  1.00  0.00    -0.052 NA 
HETATM   26  N   UNL     1      -5.780   4.122  64.096  1.00  0.00    -0.014 NA 
ENDBRANCH   8  22
TORSDOF 1
ENDMDL
MODEL      145
REMARK 921   NORMALIZED FREE ENERGY PREDICTED BY IDOCK:   13.69 KCAL/MOL
REMARK 922        TOTAL FREE ENERGY PREDICTED BY IDOCK:   14.90 KCAL/MOL
REMARK 923 INTER-LIGAND FREE ENERGY PREDICTED BY IDOCK:   13.99 KCAL/MOL
REMARK 924 INTRA-LIGAND FREE ENERGY PREDICTED BY IDOCK:    0.91 KCAL/MOL
REMARK 927      BINDING AFFINITY PREDICTED BY RF-SCORE:    0.00 PKD
ROOT
HETATM    1  C   UNL     1     -13.902  13.667  70.560  1.00  0.00     1.232 C  
HETATM    2  C   UNL     1     -12.749  12.774  71.049  1.00  0.00    -0.331 C  
HETATM    3  C   UNL     1     -11.297  13.039  70.457  1.00  0.00     0.779 C  
HETATM    4  C   UNL     1     -13.172  11.306  70.982  1.00  0.00     0.091 A  
HETATM    5  O   UNL     1     -10.436  12.287  71.369  1.00  0.00     5.202 OA 
HETATM    6  N   UNL     1     -14.028  10.936  69.993  1.00  0.00     2.033 NA 
HETATM    7  C   UNL     1     -10.959  12.580  69.024  1.00  0.00    -0.237 A  
HETATM    8  C   UNL     1     -10.832  14.517  70.684  1.00  0.00     0.349 C  
HETATM    9  C   UNL     1     -11.924  12.265  68.057  1.00  0.00    -0.251 A  
HETATM   10  C   UNL     1      -9.613  12.504  68.604  1.00  0.00    -0.021 A  
HETATM   11  C   UNL     1     -14.378   9.639  69.939  1.00  0.00     2.792 A  
HETATM   12  H   UNL     1      -9.568  12.445  71.015  1.00  0.00     0.000 HD 
HETATM   13  F   UNL     1     -11.912  10.725  72.927  1.00  0.00     1.922 F  
HETATM   14  C   UNL     1      -9.238  12.156  67.310  1.00  0.00    -0.185 A  
HETATM   15  F   UNL     1      -8.637  12.778  69.483  1.00  0.00     0.631 F  
HETATM   16  N   UNL     1     -13.943   8.674  70.758  1.00  0.00     0.287 NA 
HETATM   17  C   UNL     1     -10.223  11.856  66.391  1.00  0.00    -0.209 A  
HETATM   18  C   UNL     1     -11.561  11.896  66.754  1.00  0.00    -0.341 A  
HETATM   19  C   UNL     1     -13.103   9.080  71.733  1.00  0.00    -0.381 A  
HETATM   20  F   UNL     1      -9.887  11.529  65.137  1.00  0.00    -0.247 F  
HETATM   21  C   UNL     1     -12.702  10.386  71.902  1.00  0.00    -0.357 A  
ENDROOT
BRANCH   8  22
HETATM   22  N   UNL     1     -11.312  15.522  69.769  1.00  0.00    -0.291 NA 
HETATM   23  C   UNL     1     -11.474  17.353  68.796  1.00  0.00     0.915 A  
HETATM   24  C   UNL     1     -12.090  15.352  68.664  1.00  0.00    -0.099 A  
HETATM   25  N   UNL     1     -12.247  16.506  68.055  1.00  0.00     0.970 NA 
HETATM   26  N   UNL     1     -10.845  16.783  69.829  1.00  0.00    -0.265 NA 
ENDBRANCH   8  22
TORSDOF 1
ENDMDL
MODEL      146
REMARK 921   NORMALIZED FREE ENERGY PREDICTED BY IDOCK:   14.05 KCAL/MOL
REMARK 922        TOTAL FREE ENERGY PREDICTED BY IDOCK:   15.27 KCAL/MOL
REMARK 923 INTER-LIGAND FREE ENERGY PREDICTED BY IDOCK:   14.81 KCAL/MOL
REMARK 924 INTRA-LIGAND FREE ENERGY PREDICTED BY IDOCK:    0.46 KCAL/MOL
REMARK 927      BINDING AFFINITY PREDICTED BY RF-SCORE:    0.00 PKD
ROOT
HETATM    1  C   UNL     1     -12.270   9.049  68.781  1.00  0.00     2.863 C  
HETATM    2  C   UNL     1     -11.709   8.840  67.365  1.00  0.00     2.868 C  
HETATM    3  C   UNL     1     -10.702   7.629  67.133  1.00  0.00    -0.290 C  
HETATM    4  C   UNL     1     -11.194  10.169  66.813  1.00  0.00     0.342 A  
HETATM    5  O   UNL     1     -10.663   7.520  65.675  1.00  0.00     1.623 OA 
HETATM    6  N   UNL     1     -10.670  11.062  67.693  1.00  0.00    -0.220 NA 
HETATM    7  C   UNL     1      -9.245   7.742  67.624  1.00  0.00    -0.146 A  
HETATM    8  C   UNL     1     -11.324   6.259  67.565  1.00  0.00     0.095 C  
HETATM    9  C   UNL     1      -8.812   8.673  68.578  1.00  0.00    -0.142 A  
HETATM   10  C   UNL     1      -8.266   6.843  67.148  1.00  0.00    -0.118 A  
HETATM   11  C   UNL     1     -10.209  12.220  67.190  1.00  0.00    -0.211 A  
HETATM   12  H   UNL     1     -10.061   6.797  65.537  1.00  0.00     0.000 HD 
HETATM   13  F   UNL     1     -11.836   9.631  64.575  1.00  0.00     4.491 F  
HETATM   14  C   UNL     1      -6.947   6.848  67.591  1.00  0.00    -0.083 A  
HETATM   15  F   UNL     1      -8.608   5.933  66.222  1.00  0.00    -0.116 F  
HETATM   16  N   UNL     1     -10.200  12.566  65.896  1.00  0.00    -0.256 NA 
HETATM   17  C   UNL     1      -6.567   7.782  68.534  1.00  0.00    -0.057 A  
HETATM   18  C   UNL     1      -7.483   8.702  69.022  1.00  0.00    -0.089 A  
HETATM   19  C   UNL     1     -10.738  11.659  65.054  1.00  0.00    -0.296 A  
HETATM   20  F   UNL     1      -5.307   7.799  68.983  1.00  0.00    -0.017 F  
HETATM   21  C   UNL     1     -11.267  10.456  65.462  1.00  0.00     0.901 A  
ENDROOT
BRANCH   8  22
HETATM   22  N   UNL     1     -11.298   5.920  68.966  1.00  0.00    -0.126 NA 
HETATM   23  C   UNL     1     -10.549   5.607  70.881  1.00  0.00    -0.258 A  
HETATM   24  C   UNL     1     -12.350   5.791  69.821  1.00  0.00     3.512 A  
HETATM   25  N   UNL     1     -11.904   5.545  71.033  1.00  0.00     0.729 NA 
HETATM   26  N   UNL     1     -10.133   5.881  69.640  1.00  0.00    -0.184 NA 
ENDBRANCH   8  22
TORSDOF 1
ENDMDL
MODEL      147
REMARK 921   NORMALIZED FREE ENERGY PREDICTED BY IDOCK:   16.88 KCAL/MOL
REMARK 922        TOTAL FREE ENERGY PREDICTED BY IDOCK:   18.27 KCAL/MOL
REMARK 923 INTER-LIGAND FREE ENERGY PREDICTED BY IDOCK:   17.71 KCAL/MOL
REMARK 924 INTRA-LIGAND FREE ENERGY PREDICTED BY IDOCK:    0.56 KCAL/MOL
REMARK 927      BINDING AFFINITY PREDICTED BY RF-SCORE:    0.00 PKD
ROOT
HETATM    1  C   UNL     1      -6.103  10.744  68.303  1.00  0.00    -0.046 C  
HETATM    2  C   UNL     1      -7.477  10.880  68.981  1.00  0.00    -0.124 C  
HETATM    3  C   UNL     1      -8.083  12.341  69.152  1.00  0.00     0.429 C  
HETATM    4  C   UNL     1      -7.497  10.061  70.272  1.00  0.00    -0.129 A  
HETATM    5  O   UNL     1      -9.481  12.071  69.485  1.00  0.00     0.168 OA 
HETATM    6  N   UNL     1      -6.335   9.943  70.967  1.00  0.00    -0.265 NA 
HETATM    7  C   UNL     1      -7.524  13.278  70.241  1.00  0.00     2.000 A  
HETATM    8  C   UNL     1      -8.194  13.093  67.783  1.00  0.00    -0.168 C  
HETATM    9  C   UNL     1      -6.284  13.095  70.868  1.00  0.00     0.441 A  
HETATM   10  C   UNL     1      -8.249  14.427  70.626  1.00  0.00     2.457 A  
HETATM   11  C   UNL     1      -6.373   9.233  72.108  1.00  0.00     0.174 A  
HETATM   12  H   UNL     1      -9.843  12.944  69.587  1.00  0.00     0.000 HD 
HETATM   13  F   UNL     1      -9.804   9.492  70.022  1.00  0.00    -0.188 F  
HETATM   14  C   UNL     1      -7.779  15.347  71.558  1.00  0.00     3.880 A  
HETATM   15  F   UNL     1      -9.452  14.657  70.076  1.00  0.00     0.126 F  
HETATM   16  N   UNL     1      -7.457   8.647  72.632  1.00  0.00    -0.344 NA 
HETATM   17  C   UNL     1      -6.550  15.126  72.148  1.00  0.00     1.931 A  
HETATM   18  C   UNL     1      -5.804  14.004  71.821  1.00  0.00    -0.102 A  
HETATM   19  C   UNL     1      -8.589   8.776  71.909  1.00  0.00    -0.099 A  
HETATM   20  F   UNL     1      -6.072  16.003  73.038  1.00  0.00     1.291 F  
HETATM   21  C   UNL     1      -8.659   9.454  70.713  1.00  0.00    -0.145 A  
ENDROOT
BRANCH   8  22
HETATM   22  N   UNL     1      -7.006  13.723  67.263  1.00  0.00    -0.136 NA 
HETATM   23  C   UNL     1      -5.127  13.920  66.394  1.00  0.00     3.625 A  
HETATM   24  C   UNL     1      -6.822  15.032  66.935  1.00  0.00     0.726 A  
HETATM   25  N   UNL     1      -5.621  15.193  66.426  1.00  0.00     2.181 NA 
HETATM   26  N   UNL     1      -5.959  12.981  66.855  1.00  0.00     0.026 NA 
ENDBRANCH   8  22
TORSDOF 1
ENDMDL
MODEL      148
REMARK 921   NORMALIZED FREE ENERGY PREDICTED BY IDOCK:   18.06 KCAL/MOL
REMARK 922        TOTAL FREE ENERGY PREDICTED BY IDOCK:   19.52 KCAL/MOL
REMARK 923 INTER-LIGAND FREE ENERGY PREDICTED BY IDOCK:   18.57 KCAL/MOL
REMARK 924 INTRA-LIGAND FREE ENERGY PREDICTED BY IDOCK:    0.95 KCAL/MOL
REMARK 927      BINDING AFFINITY PREDICTED BY RF-SCORE:    0.00 PKD
ROOT
HETATM    1  C   UNL     1     -10.150  15.719  70.165  1.00  0.00    -0.095 C  
HETATM    2  C   UNL     1     -10.742  16.220  68.837  1.00  0.00    -0.300 C  
HETATM    3  C   UNL     1      -9.940  15.909  67.499  1.00  0.00    -0.238 C  
HETATM    4  C   UNL     1     -11.146  17.688  68.974  1.00  0.00     0.690 A  
HETATM    5  O   UNL     1     -10.927  16.198  66.458  1.00  0.00    -0.205 OA 
HETATM    6  N   UNL     1     -10.407  18.475  69.800  1.00  0.00     0.572 NA 
HETATM    7  C   UNL     1      -8.670  16.718  67.162  1.00  0.00    -0.218 A  
HETATM    8  C   UNL     1      -9.681  14.376  67.313  1.00  0.00    -0.233 C  
HETATM    9  C   UNL     1      -7.948  17.465  68.104  1.00  0.00    -0.233 A  
HETATM   10  C   UNL     1      -8.141  16.693  65.854  1.00  0.00     0.175 A  
HETATM   11  C   UNL     1     -10.766  19.767  69.898  1.00  0.00     1.233 A  
HETATM   12  H   UNL     1     -10.447  16.012  65.659  1.00  0.00     0.000 HD 
HETATM   13  F   UNL     1     -13.022  17.437  67.517  1.00  0.00     3.275 F  
HETATM   14  C   UNL     1      -6.968  17.349  65.494  1.00  0.00     0.566 A  
HETATM   15  F   UNL     1      -8.789  16.009  64.898  1.00  0.00     0.929 F  
HETATM   16  N   UNL     1     -11.773  20.354  69.240  1.00  0.00     3.264 NA 
HETATM   17  C   UNL     1      -6.289  18.071  66.456  1.00  0.00    -0.204 A  
HETATM   18  C   UNL     1      -6.774  18.145  67.753  1.00  0.00    -0.204 A  
HETATM   19  C   UNL     1     -12.491  19.539  68.438  1.00  0.00     6.102 A  
HETATM   20  F   UNL     1      -5.152  18.701  66.137  1.00  0.00    -0.143 F  
HETATM   21  C   UNL     1     -12.232  18.196  68.285  1.00  0.00     4.266 A  
ENDROOT
BRANCH   8  22
HETATM   22  N   UNL     1      -8.575  13.789  68.028  1.00  0.00    -0.167 NA 
HETATM   23  C   UNL     1      -6.969  12.534  68.441  1.00  0.00    -0.096 A  
HETATM   24  C   UNL     1      -7.911  14.287  69.107  1.00  0.00     0.018 A  
HETATM   25  N   UNL     1      -6.917  13.486  69.419  1.00  0.00    -0.018 NA 
HETATM   26  N   UNL     1      -7.941  12.706  67.539  1.00  0.00    -0.163 NA 
ENDBRANCH   8  22
TORSDOF 1
ENDMDL
MODEL      149
REMARK 921   NORMALIZED FREE ENERGY PREDICTED BY IDOCK:   18.95 KCAL/MOL
REMARK 922        TOTAL FREE ENERGY PREDICTED BY IDOCK:   20.46 KCAL/MOL
REMARK 923 INTER-LIGAND FREE ENERGY PREDICTED BY IDOCK:   19.92 KCAL/MOL
REMARK 924 INTRA-LIGAND FREE ENERGY PREDICTED BY IDOCK:    0.54 KCAL/MOL
REMARK 927      BINDING AFFINITY PREDICTED BY RF-SCORE:    0.00 PKD
ROOT
HETATM    1  C   UNL     1      -8.596  13.355  67.742  1.00  0.00    -0.194 C  
HETATM    2  C   UNL     1      -9.577  14.212  68.560  1.00  0.00    -0.214 C  
HETATM    3  C   UNL     1     -10.760  14.938  67.783  1.00  0.00    -0.271 C  
HETATM    4  C   UNL     1      -8.797  15.146  69.485  1.00  0.00    -0.124 A  
HETATM    5  O   UNL     1     -11.656  15.340  68.867  1.00  0.00    -0.310 OA 
HETATM    6  N   UNL     1      -7.592  15.606  69.055  1.00  0.00    -0.170 NA 
HETATM    7  C   UNL     1     -10.465  16.196  66.942  1.00  0.00    -0.300 A  
HETATM    8  C   UNL     1     -11.635  13.926  66.970  1.00  0.00    -0.369 C  
HETATM    9  C   UNL     1      -9.183  16.559  66.505  1.00  0.00    -0.300 A  
HETATM   10  C   UNL     1     -11.522  17.033  66.525  1.00  0.00     1.118 A  
HETATM   11  C   UNL     1      -6.926  16.438  69.874  1.00  0.00     0.242 A  
HETATM   12  H   UNL     1     -12.363  15.774  68.403  1.00  0.00     0.000 HD 
HETATM   13  F   UNL     1     -10.447  15.021  71.208  1.00  0.00    -0.153 F  
HETATM   14  C   UNL     1     -11.336  18.149  65.716  1.00  0.00     1.248 A  
HETATM   15  F   UNL     1     -12.774  16.752  66.919  1.00  0.00     2.744 F  
HETATM   16  N   UNL     1      -7.351  16.872  71.067  1.00  0.00     3.996 NA 
HETATM   17  C   UNL     1     -10.055  18.467  65.307  1.00  0.00     1.074 A  
HETATM   18  C   UNL     1      -8.977  17.691  65.703  1.00  0.00     0.557 A  
HETATM   19  C   UNL     1      -8.545  16.386  71.466  1.00  0.00     7.767 A  
HETATM   20  F   UNL     1      -9.853  19.530  64.519  1.00  0.00     2.112 F  
HETATM   21  C   UNL     1      -9.298  15.506  70.723  1.00  0.00     1.697 A  
ENDROOT
BRANCH   8  22
HETATM   22  N   UNL     1     -11.148  13.497  65.683  1.00  0.00    -0.289 NA 
HETATM   23  C   UNL     1     -10.306  13.605  63.784  1.00  0.00     1.138 A  
HETATM   24  C   UNL     1     -10.861  12.232  65.270  1.00  0.00    -0.293 A  
HETATM   25  N   UNL     1     -10.370  12.268  64.051  1.00  0.00    -0.370 NA 
HETATM   26  N   UNL     1     -10.729  14.398  64.774  1.00  0.00    -0.417 NA 
ENDBRANCH   8  22
TORSDOF 1
ENDMDL
MODEL      150
REMARK 921   NORMALIZED FREE ENERGY PREDICTED BY IDOCK:   19.69 KCAL/MOL
REMARK 922        TOTAL FREE ENERGY PREDICTED BY IDOCK:   21.25 KCAL/MOL
REMARK 923 INTER-LIGAND FREE ENERGY PREDICTED BY IDOCK:   21.00 KCAL/MOL
REMARK 924 INTRA-LIGAND FREE ENERGY PREDICTED BY IDOCK:    0.24 KCAL/MOL
REMARK 927      BINDING AFFINITY PREDICTED BY RF-SCORE:    0.00 PKD
ROOT
HETATM    1  C   UNL     1      -8.294  14.339  69.235  1.00  0.00     0.223 C  
HETATM    2  C   UNL     1      -7.646  12.967  68.982  1.00  0.00     0.142 C  
HETATM    3  C   UNL     1      -8.478  11.891  68.157  1.00  0.00    -0.163 C  
HETATM    4  C   UNL     1      -7.075  12.419  70.290  1.00  0.00     1.540 A  
HETATM    5  O   UNL     1      -7.463  10.894  67.816  1.00  0.00    -0.091 OA 
HETATM    6  N   UNL     1      -7.718  12.734  71.445  1.00  0.00     7.387 NA 
HETATM    7  C   UNL     1      -9.645  11.143  68.834  1.00  0.00    -0.154 A  
HETATM    8  C   UNL     1      -8.913  12.435  66.755  1.00  0.00    -0.205 C  
HETATM    9  C   UNL     1     -10.275  11.579  70.007  1.00  0.00     1.196 A  
HETATM   10  C   UNL     1     -10.172   9.973  68.246  1.00  0.00    -0.173 A  
HETATM   11  C   UNL     1      -7.211  12.231  72.585  1.00  0.00    11.107 A  
HETATM   12  H   UNL     1      -7.960  10.251  67.323  1.00  0.00     0.000 HD 
HETATM   13  F   UNL     1      -5.239  11.359  69.189  1.00  0.00    -0.045 F  
HETATM   14  C   UNL     1     -11.260   9.281  68.768  1.00  0.00     0.169 A  
HETATM   15  F   UNL     1      -9.606   9.490  67.128  1.00  0.00    -0.163 F  
HETATM   16  N   UNL     1      -6.142  11.432  72.683  1.00  0.00     1.904 NA 
HETATM   17  C   UNL     1     -11.852   9.750  69.925  1.00  0.00     0.056 A  
HETATM   18  C   UNL     1     -11.363  10.885  70.555  1.00  0.00    -0.212 A  
HETATM   19  C   UNL     1      -5.524  11.150  71.517  1.00  0.00     0.164 A  
HETATM   20  F   UNL     1     -12.907   9.109  70.439  1.00  0.00     0.052 F  
HETATM   21  C   UNL     1      -5.936  11.634  70.297  1.00  0.00    -0.159 A  
ENDROOT
BRANCH   8  22
HETATM   22  N   UNL     1     -10.079  13.279  66.693  1.00  0.00    -0.260 NA 
HETATM   23  C   UNL     1     -11.238  15.006  66.730  1.00  0.00    -0.322 A  
HETATM   24  C   UNL     1     -11.313  12.976  66.203  1.00  0.00    -0.314 A  
HETATM   25  N   UNL     1     -12.082  14.040  66.259  1.00  0.00    -0.435 NA 
HETATM   26  N   UNL     1      -9.988  14.594  66.966  1.00  0.00    -0.243 NA 
ENDBRANCH   8  22
TORSDOF 1
ENDMDL
MODEL      151
REMARK 921   NORMALIZED FREE ENERGY PREDICTED BY IDOCK:   19.77 KCAL/MOL
REMARK 922        TOTAL FREE ENERGY PREDICTED BY IDOCK:   21.33 KCAL/MOL
REMARK 923 INTER-LIGAND FREE ENERGY PREDICTED BY IDOCK:   20.64 KCAL/MOL
REMARK 924 INTRA-LIGAND FREE ENERGY PREDICTED BY IDOCK:    0.69 KCAL/MOL
REMARK 927      BINDING AFFINITY PREDICTED BY RF-SCORE:    0.00 PKD
ROOT
HETATM    1  C   UNL     1     -11.151   7.732  71.393  1.00  0.00    -0.268 C  
HETATM    2  C   UNL     1      -9.799   8.308  70.937  1.00  0.00    -0.215 C  
HETATM    3  C   UNL     1      -9.069   7.610  69.707  1.00  0.00    -0.147 C  
HETATM    4  C   UNL     1      -8.889   8.506  72.149  1.00  0.00    -0.216 A  
HETATM    5  O   UNL     1      -8.049   8.593  69.341  1.00  0.00    -0.106 OA 
HETATM    6  N   UNL     1      -9.012   7.636  73.185  1.00  0.00    -0.169 NA 
HETATM    7  C   UNL     1      -8.352   6.260  69.909  1.00  0.00    -0.129 A  
HETATM    8  C   UNL     1      -9.978   7.565  68.434  1.00  0.00    -0.170 C  
HETATM    9  C   UNL     1      -8.587   5.406  70.996  1.00  0.00    -0.127 A  
HETATM   10  C   UNL     1      -7.435   5.793  68.942  1.00  0.00    -0.085 A  
HETATM   11  C   UNL     1      -8.194   7.816  74.237  1.00  0.00    -0.238 A  
HETATM   12  H   UNL     1      -7.613   8.176  68.607  1.00  0.00     0.000 HD 
HETATM   13  F   UNL     1      -7.871  10.458  71.221  1.00  0.00     1.039 F  
HETATM   14  C   UNL     1      -6.798   4.560  69.029  1.00  0.00    -0.050 A  
HETATM   15  F   UNL     1      -7.152   6.567  67.882  1.00  0.00    -0.073 F  
HETATM   16  N   UNL     1      -7.254   8.762  74.347  1.00  0.00    -0.401 NA 
HETATM   17  C   UNL     1      -7.062   3.751  70.118  1.00  0.00    -0.041 A  
HETATM   18  C   UNL     1      -7.940   4.167  71.107  1.00  0.00    -0.071 A  
HETATM   19  C   UNL     1      -7.169   9.614  73.304  1.00  0.00     2.038 A  
HETATM   20  F   UNL     1      -6.470   2.555  70.217  1.00  0.00    -0.025 F  
HETATM   21  C   UNL     1      -7.975   9.543  72.191  1.00  0.00     1.514 A  
ENDROOT
BRANCH   8  22
HETATM   22  N   UNL     1     -10.966   6.519  68.349  1.00  0.00    -0.288 NA 
HETATM   23  C   UNL     1     -12.661   5.399  68.796  1.00  0.00     9.930 A  
HETATM   24  C   UNL     1     -11.190   5.654  67.321  1.00  0.00     0.523 A  
HETATM   25  N   UNL     1     -12.230   4.900  67.600  1.00  0.00     8.072 NA 
HETATM   26  N   UNL     1     -11.944   6.423  69.270  1.00  0.00     0.344 NA 
ENDBRANCH   8  22
TORSDOF 1
ENDMDL
MODEL      152
REMARK 921   NORMALIZED FREE ENERGY PREDICTED BY IDOCK:   22.89 KCAL/MOL
REMARK 922        TOTAL FREE ENERGY PREDICTED BY IDOCK:   24.63 KCAL/MOL
REMARK 923 INTER-LIGAND FREE ENERGY PREDICTED BY IDOCK:   24.59 KCAL/MOL
REMARK 924 INTRA-LIGAND FREE ENERGY PREDICTED BY IDOCK:    0.04 KCAL/MOL
REMARK 927      BINDING AFFINITY PREDICTED BY RF-SCORE:    0.00 PKD
ROOT
HETATM    1  C   UNL     1      -7.988   8.921  67.633  1.00  0.00    -0.102 C  
HETATM    2  C   UNL     1      -9.147   9.292  66.693  1.00  0.00    -0.177 C  
HETATM    3  C   UNL     1      -9.327  10.823  66.298  1.00  0.00    -0.180 C  
HETATM    4  C   UNL     1     -10.439   8.638  67.185  1.00  0.00    -0.289 A  
HETATM    5  O   UNL     1     -10.250  10.756  65.166  1.00  0.00    -0.280 OA 
HETATM    6  N   UNL     1     -10.596   8.471  68.524  1.00  0.00    -0.160 NA 
HETATM    7  C   UNL     1      -9.925  11.812  67.320  1.00  0.00    -0.208 A  
HETATM    8  C   UNL     1      -8.031  11.417  65.652  1.00  0.00     0.338 C  
HETATM    9  C   UNL     1      -9.998  11.562  68.697  1.00  0.00    -0.207 A  
HETATM   10  C   UNL     1     -10.394  13.073  66.893  1.00  0.00    -0.245 A  
HETATM   11  C   UNL     1     -11.744   7.908  68.941  1.00  0.00     1.436 A  
HETATM   12  H   UNL     1     -10.357  11.671  64.931  1.00  0.00     0.000 HD 
HETATM   13  F   UNL     1     -11.265   8.312  64.967  1.00  0.00     4.960 F  
HETATM   14  C   UNL     1     -10.890  14.036  67.766  1.00  0.00    -0.257 A  
HETATM   15  F   UNL     1     -10.367  13.373  65.585  1.00  0.00    -0.267 F  
HETATM   16  N   UNL     1     -12.755   7.516  68.157  1.00  0.00     6.163 NA 
HETATM   17  C   UNL     1     -10.940  13.747  69.116  1.00  0.00    -0.208 A  
HETATM   18  C   UNL     1     -10.510  12.516  69.588  1.00  0.00     0.711 A  
HETATM   19  C   UNL     1     -12.559   7.688  66.833  1.00  0.00     9.595 A  
HETATM   20  F   UNL     1     -11.403  14.662  69.975  1.00  0.00    -0.259 F  
HETATM   21  C   UNL     1     -11.413   8.224  66.294  1.00  0.00     4.006 A  
ENDROOT
BRANCH   8  22
HETATM   22  N   UNL     1      -6.972  11.842  66.534  1.00  0.00     0.090 NA 
HETATM   23  C   UNL     1      -5.179  11.799  67.587  1.00  0.00    -0.065 A  
HETATM   24  C   UNL     1      -6.735  13.090  67.025  1.00  0.00     0.401 A  
HETATM   25  N   UNL     1      -5.630  13.080  67.735  1.00  0.00    -0.126 NA 
HETATM   26  N   UNL     1      -5.947  11.018  66.820  1.00  0.00    -0.085 NA 
ENDBRANCH   8  22
TORSDOF 1
ENDMDL
MODEL      153
REMARK 921   NORMALIZED FREE ENERGY PREDICTED BY IDOCK:   29.27 KCAL/MOL
REMARK 922        TOTAL FREE ENERGY PREDICTED BY IDOCK:   31.39 KCAL/MOL
REMARK 923 INTER-LIGAND FREE ENERGY PREDICTED BY IDOCK:   30.83 KCAL/MOL
REMARK 924 INTRA-LIGAND FREE ENERGY PREDICTED BY IDOCK:    0.55 KCAL/MOL
REMARK 927      BINDING AFFINITY PREDICTED BY RF-SCORE:    0.00 PKD
ROOT
HETATM    1  C   UNL     1     -12.686  11.599  70.323  1.00  0.00    -0.043 C  
HETATM    2  C   UNL     1     -11.515  11.594  69.325  1.00  0.00    -0.364 C  
HETATM    3  C   UNL     1     -10.479  10.389  69.398  1.00  0.00    -0.238 C  
HETATM    4  C   UNL     1     -10.846  12.968  69.310  1.00  0.00     0.003 A  
HETATM    5  O   UNL     1      -9.751  10.515  68.136  1.00  0.00    -0.149 OA 
HETATM    6  N   UNL     1     -10.830  13.680  70.468  1.00  0.00     1.053 NA 
HETATM    7  C   UNL     1      -9.431  10.348  70.529  1.00  0.00     0.907 A  
HETATM    8  C   UNL     1     -11.185   8.999  69.252  1.00  0.00     0.176 C  
HETATM    9  C   UNL     1      -9.532  11.090  71.714  1.00  0.00     9.751 A  
HETATM   10  C   UNL     1      -8.314   9.490  70.428  1.00  0.00    -0.192 A  
HETATM   11  C   UNL     1     -10.224  14.880  70.442  1.00  0.00     0.297 A  
HETATM   12  H   UNL     1      -9.132   9.795  68.179  1.00  0.00     0.000 HD 
HETATM   13  F   UNL     1     -10.335  12.832  66.980  1.00  0.00    -0.228 F  
HETATM   14  C   UNL     1      -7.363   9.358  71.434  1.00  0.00     0.174 A  
HETATM   15  F   UNL     1      -8.148   8.761  69.314  1.00  0.00    -0.100 F  
HETATM   16  N   UNL     1      -9.616  15.429  69.383  1.00  0.00    -0.262 NA 
HETATM   17  C   UNL     1      -7.505  10.107  72.586  1.00  0.00     4.271 A  
HETATM   18  C   UNL     1      -8.573  10.980  72.730  1.00  0.00    15.675 A  
HETATM   19  C   UNL     1      -9.662  14.699  68.249  1.00  0.00    -0.215 A  
HETATM   20  F   UNL     1      -6.608   9.988  73.572  1.00  0.00     0.893 F  
HETATM   21  C   UNL     1     -10.280  13.473  68.154  1.00  0.00    -0.249 A  
ENDROOT
BRANCH   8  22
HETATM   22  N   UNL     1     -11.813   8.437  70.422  1.00  0.00    -0.009 NA 
HETATM   23  C   UNL     1     -12.089   7.877  72.406  1.00  0.00    -0.286 A  
HETATM   24  C   UNL     1     -13.116   8.079  70.587  1.00  0.00     0.565 A  
HETATM   25  N   UNL     1     -13.308   7.675  71.823  1.00  0.00    -0.335 NA 
HETATM   26  N   UNL     1     -11.156   8.387  71.595  1.00  0.00    -0.260 NA 
ENDBRANCH   8  22
TORSDOF 1
ENDMDL
MODEL      154
REMARK 921   NORMALIZED FREE ENERGY PREDICTED BY IDOCK:   59.04 KCAL/MOL
REMARK 922        TOTAL FREE ENERGY PREDICTED BY IDOCK:   62.89 KCAL/MOL
REMARK 923 INTER-LIGAND FREE ENERGY PREDICTED BY IDOCK:   62.53 KCAL/MOL
REMARK 924 INTRA-LIGAND FREE ENERGY PREDICTED BY IDOCK:    0.36 KCAL/MOL
REMARK 927      BINDING AFFINITY PREDICTED BY RF-SCORE:    0.00 PKD
ROOT
HETATM    1  C   UNL     1      -7.308  13.868  68.553  1.00  0.00    -0.116 C  
HETATM    2  C   UNL     1      -6.827  12.422  68.761  1.00  0.00    -0.092 C  
HETATM    3  C   UNL     1      -6.315  11.617  67.488  1.00  0.00    -0.087 C  
HETATM    4  C   UNL     1      -7.854  11.652  69.591  1.00  0.00     0.753 A  
HETATM    5  O   UNL     1      -5.632  10.470  68.087  1.00  0.00    -0.037 OA 
HETATM    6  N   UNL     1      -9.164  11.984  69.449  1.00  0.00     0.788 NA 
HETATM    7  C   UNL     1      -7.334  11.063  66.471  1.00  0.00    -0.144 A  
HETATM    8  C   UNL     1      -5.153  12.363  66.750  1.00  0.00     0.300 C  
HETATM    9  C   UNL     1      -8.659  11.510  66.373  1.00  0.00    -0.159 A  
HETATM   10  C   UNL     1      -6.939  10.083  65.534  1.00  0.00    -0.124 A  
HETATM   11  C   UNL     1     -10.055  11.287  70.175  1.00  0.00     1.358 A  
HETATM   12  H   UNL     1      -5.327   9.989  67.326  1.00  0.00     0.000 HD 
HETATM   13  F   UNL     1      -6.177  10.345  70.682  1.00  0.00    -0.094 F  
HETATM   14  C   UNL     1      -7.788   9.584  64.552  1.00  0.00    -0.126 A  
HETATM   15  F   UNL     1      -5.688   9.600  65.581  1.00  0.00    -0.051 F  
HETATM   16  N   UNL     1      -9.771  10.281  71.012  1.00  0.00     0.894 NA 
HETATM   17  C   UNL     1      -9.085  10.055  64.491  1.00  0.00    -0.243 A  
HETATM   18  C   UNL     1      -9.531  11.004  65.399  1.00  0.00    -0.257 A  
HETATM   19  C   UNL     1      -8.460   9.988  71.136  1.00  0.00     1.628 A  
HETATM   20  F   UNL     1      -9.916   9.598  63.548  1.00  0.00     0.046 F  
HETATM   21  C   UNL     1      -7.461  10.654  70.465  1.00  0.00     0.964 A  
ENDROOT
BRANCH   8  22
HETATM   22  N   UNL     1      -5.505  13.430  65.846  1.00  0.00     4.708 NA 
HETATM   23  C   UNL     1      -6.362  14.401  64.219  1.00  0.00    24.388 A  
HETATM   24  C   UNL     1      -5.405  14.772  66.049  1.00  0.00     6.219 A  
HETATM   25  N   UNL     1      -5.898  15.411  65.012  1.00  0.00    10.905 NA 
HETATM   26  N   UNL     1      -6.184  13.171  64.713  1.00  0.00    11.109 NA 
ENDBRANCH   8  22
TORSDOF 1
ENDMDL
MODEL      155
REMARK 921   NORMALIZED FREE ENERGY PREDICTED BY IDOCK:   61.36 KCAL/MOL
REMARK 922        TOTAL FREE ENERGY PREDICTED BY IDOCK:   65.35 KCAL/MOL
REMARK 923 INTER-LIGAND FREE ENERGY PREDICTED BY IDOCK:   64.89 KCAL/MOL
REMARK 924 INTRA-LIGAND FREE ENERGY PREDICTED BY IDOCK:    0.46 KCAL/MOL
REMARK 927      BINDING AFFINITY PREDICTED BY RF-SCORE:    0.00 PKD
ROOT
HETATM    1  C   UNL     1      -9.943  13.647  67.547  1.00  0.00    -0.230 C  
HETATM    2  C   UNL     1     -10.006  13.128  66.100  1.00  0.00    -0.291 C  
HETATM    3  C   UNL     1      -9.870  14.188  64.922  1.00  0.00     0.057 C  
HETATM    4  C   UNL     1     -11.207  12.195  65.940  1.00  0.00    -0.339 A  
HETATM    5  O   UNL     1      -9.621  13.340  63.756  1.00  0.00    -0.335 OA 
HETATM    6  N   UNL     1     -12.315  12.452  66.684  1.00  0.00    -0.355 NA 
HETATM    7  C   UNL     1     -11.060  15.105  64.576  1.00  0.00    -0.252 A  
HETATM    8  C   UNL     1      -8.548  15.019  65.031  1.00  0.00     4.053 C  
HETATM    9  C   UNL     1     -12.138  15.343  65.438  1.00  0.00     0.398 A  
HETATM   10  C   UNL     1     -11.082  15.804  63.349  1.00  0.00     3.214 A  
HETATM   11  C   UNL     1     -13.367  11.631  66.521  1.00  0.00     7.877 A  
HETATM   12  H   UNL     1      -9.540  13.973  63.052  1.00  0.00     0.000 HD 
HETATM   13  F   UNL     1     -10.070  10.797  64.372  1.00  0.00    -0.310 F  
HETATM   14  C   UNL     1     -12.092  16.694  62.997  1.00  0.00     7.203 A  
HETATM   15  F   UNL     1     -10.087  15.612  62.469  1.00  0.00     8.755 F  
HETATM   16  N   UNL     1     -13.430  10.596  65.675  1.00  0.00    10.174 NA 
HETATM   17  C   UNL     1     -13.134  16.899  63.881  1.00  0.00     6.784 A  
HETATM   18  C   UNL     1     -13.173  16.224  65.092  1.00  0.00     4.168 A  
HETATM   19  C   UNL     1     -12.309  10.365  64.961  1.00  0.00     5.903 A  
HETATM   20  F   UNL     1     -14.111  17.758  63.569  1.00  0.00     9.473 F  
HETATM   21  C   UNL     1     -11.164  11.121  65.070  1.00  0.00     0.063 A  
ENDROOT
BRANCH   8  22
HETATM   22  N   UNL     1      -8.529  16.136  65.942  1.00  0.00    -0.212 NA 
HETATM   23  C   UNL     1      -7.785  17.559  67.264  1.00  0.00    -0.202 A  
HETATM   24  C   UNL     1      -9.484  17.089  66.126  1.00  0.00    -0.225 A  
HETATM   25  N   UNL     1      -9.057  17.978  66.995  1.00  0.00    -0.253 NA 
HETATM   26  N   UNL     1      -7.403  16.460  66.606  1.00  0.00    -0.230 NA 
ENDBRANCH   8  22
TORSDOF 1
ENDMDL
